MODEL 1
REMARK VINA RESULT:      -5.8      0.000      0.000
REMARK  7 active torsions:
REMARK  status: ('A' for Active; 'I' for Inactive)
REMARK    1  A    between atoms: C_2  and  C_3 
REMARK    2  A    between atoms: C_3  and  O_6 
REMARK    3  A    between atoms: C_3  and  C_4 
REMARK    4  A    between atoms: C_7  and  O_6 
REMARK    5  A    between atoms: C_9  and  C_10 
REMARK    6  A    between atoms: N_15  and  C_14 
REMARK    7  A    between atoms: N_20  and  C_19 
REMARK       I    between atoms: C_22  and  N_20 
ROOT
ATOM      1  C   LIG d   1      -7.721  75.405 116.665  0.00  0.00     0.161 C 
ATOM      2  C   LIG d   1      -7.564  76.799 116.737  0.00  0.00     0.016 C 
ATOM      3  C   LIG d   1      -8.168  77.600 117.733  0.00  0.00     0.038 C 
ATOM      4  C   LIG d   1      -8.852  77.039 118.821  0.00  0.00     0.028 C 
ATOM      5  C   LIG d   1      -9.463  75.675 118.515  0.00  0.00    -0.047 C 
ATOM      6  C   LIG d   1      -8.373  74.763 117.907  0.00  0.00     0.091 C 
ENDROOT
BRANCH   1   7
ATOM      7  O   LIG d   1      -6.450  74.784 116.388  0.00  0.00    -0.368 OA
BRANCH   7   8
ATOM      8  C   LIG d   1      -5.306  75.670 116.333  0.00  0.00     0.119 C 
BRANCH   8   9
ATOM      9  C   LIG d   1      -4.546  75.365 115.028  0.00  0.00     0.028 C 
ATOM     10  C   LIG d   1      -5.395  75.645 113.776  0.00  0.00     0.006 C 
ENDBRANCH   8   9
BRANCH   8  11
ATOM     11  C   LIG d   1      -4.313  75.369 117.460  0.00  0.00     0.028 C 
ATOM     12  C   LIG d   1      -2.914  75.003 116.939  0.00  0.00     0.006 C 
ENDBRANCH   8  11
ENDBRANCH   7   8
ENDBRANCH   1   7
BRANCH   6  13
ATOM     13  N   LIG d   1      -8.906  73.436 117.501  0.00  0.00    -0.311 N 
ATOM     14  C   LIG d   1      -9.039  72.411 118.340  0.00  0.00     0.210 C 
ATOM     15  C   LIG d   1      -9.590  71.127 117.711  0.00  0.00     0.109 C 
ATOM     16  O   LIG d   1      -8.783  72.452 119.553  0.00  0.00    -0.276 OA
ATOM     17  H   LIG d   1      -9.167  73.325 116.541  0.00  0.00     0.149 HD
ENDBRANCH   6  13
BRANCH   5  18
ATOM     18  N   LIG d   1     -10.025  75.146 119.772  0.00  0.00     0.381 N 
ATOM     19  H   LIG d   1      -9.365  75.263 120.514  0.00  0.00    -0.090 HD
ATOM     20  H   LIG d   1     -10.203  74.163 119.660  0.00  0.00    -0.090 HD
ATOM     21  H   LIG d   1     -10.872  75.621 119.993  0.00  0.00    -0.090 HD
ENDBRANCH   5  18
BRANCH   3  22
ATOM     22  C   LIG d   1      -8.124  78.982 117.625  0.00  0.00     0.382 C 
ATOM     23  O   LIG d   1      -9.073  79.675 118.063  0.00  0.00    -0.241 OA
ATOM     24  O   LIG d   1      -7.168  79.540 117.054  0.00  0.00    -0.241 OA
ENDBRANCH   3  22
TORSDOF 7
ENDMDL
MODEL 2
REMARK VINA RESULT:      -5.7     11.839     13.795
REMARK  7 active torsions:
REMARK  status: ('A' for Active; 'I' for Inactive)
REMARK    1  A    between atoms: C_2  and  C_3 
REMARK    2  A    between atoms: C_3  and  O_6 
REMARK    3  A    between atoms: C_3  and  C_4 
REMARK    4  A    between atoms: C_7  and  O_6 
REMARK    5  A    between atoms: C_9  and  C_10 
REMARK    6  A    between atoms: N_15  and  C_14 
REMARK    7  A    between atoms: N_20  and  C_19 
REMARK       I    between atoms: C_22  and  N_20 
ROOT
ATOM      1  C   LIG d   1       1.971  83.712 112.850  0.00  0.00     0.161 C 
ATOM      2  C   LIG d   1       2.118  84.998 112.302  0.00  0.00     0.016 C 
ATOM      3  C   LIG d   1       2.439  86.140 113.071  0.00  0.00     0.038 C 
ATOM      4  C   LIG d   1       2.784  86.047 114.428  0.00  0.00     0.028 C 
ATOM      5  C   LIG d   1       2.158  84.848 115.131  0.00  0.00    -0.047 C 
ATOM      6  C   LIG d   1       2.453  83.572 114.309  0.00  0.00     0.091 C 
ENDROOT
BRANCH   1   7
ATOM      7  O   LIG d   1       2.629  82.744 112.009  0.00  0.00    -0.368 OA
BRANCH   7   8
ATOM      8  C   LIG d   1       1.885  82.294 110.851  0.00  0.00     0.119 C 
BRANCH   8   9
ATOM      9  C   LIG d   1       1.789  80.758 110.930  0.00  0.00     0.028 C 
ATOM     10  C   LIG d   1       1.566  80.112 109.552  0.00  0.00     0.006 C 
ENDBRANCH   8   9
BRANCH   8  11
ATOM     11  C   LIG d   1       2.643  82.587 109.553  0.00  0.00     0.028 C 
ATOM     12  C   LIG d   1       4.126  82.911 109.789  0.00  0.00     0.006 C 
ENDBRANCH   8  11
ENDBRANCH   7   8
ENDBRANCH   1   7
BRANCH   6  13
ATOM     13  N   LIG d   1       1.804  82.365 114.883  0.00  0.00    -0.311 N 
ATOM     14  C   LIG d   1       2.413  81.537 115.730  0.00  0.00     0.210 C 
ATOM     15  C   LIG d   1       1.571  80.342 116.186  0.00  0.00     0.109 C 
ATOM     16  O   LIG d   1       3.561  81.697 116.172  0.00  0.00    -0.276 OA
ATOM     17  H   LIG d   1       0.861  82.176 114.602  0.00  0.00     0.149 HD
ENDBRANCH   6  13
BRANCH   5  18
ATOM     18  N   LIG d   1       2.710  84.794 116.498  0.00  0.00     0.381 N 
ATOM     19  H   LIG d   1       2.744  83.845 116.813  0.00  0.00    -0.090 HD
ATOM     20  H   LIG d   1       2.105  85.309 117.113  0.00  0.00    -0.090 HD
ATOM     21  H   LIG d   1       3.624  85.190 116.512  0.00  0.00    -0.090 HD
ENDBRANCH   5  18
BRANCH   3  22
ATOM     22  C   LIG d   1       2.377  87.398 112.492  0.00  0.00     0.382 C 
ATOM     23  O   LIG d   1       2.992  88.359 113.014  0.00  0.00    -0.241 OA
ATOM     24  O   LIG d   1       1.678  87.594 111.480  0.00  0.00    -0.241 OA
ENDBRANCH   3  22
TORSDOF 7
ENDMDL
MODEL 3
REMARK VINA RESULT:      -5.5      1.888      4.704
REMARK  7 active torsions:
REMARK  status: ('A' for Active; 'I' for Inactive)
REMARK    1  A    between atoms: C_2  and  C_3 
REMARK    2  A    between atoms: C_3  and  O_6 
REMARK    3  A    between atoms: C_3  and  C_4 
REMARK    4  A    between atoms: C_7  and  O_6 
REMARK    5  A    between atoms: C_9  and  C_10 
REMARK    6  A    between atoms: N_15  and  C_14 
REMARK    7  A    between atoms: N_20  and  C_19 
REMARK       I    between atoms: C_22  and  N_20 
ROOT
ATOM      1  C   LIG d   1      -6.881  76.534 117.069  0.00  0.00     0.161 C 
ATOM      2  C   LIG d   1      -7.366  75.229 116.885  0.00  0.00     0.016 C 
ATOM      3  C   LIG d   1      -8.671  74.825 117.251  0.00  0.00     0.038 C 
ATOM      4  C   LIG d   1      -9.636  75.743 117.691  0.00  0.00     0.028 C 
ATOM      5  C   LIG d   1      -9.038  76.972 118.367  0.00  0.00    -0.047 C 
ATOM      6  C   LIG d   1      -7.955  77.576 117.444  0.00  0.00     0.091 C 
ENDROOT
BRANCH   1   7
ATOM      7  O   LIG d   1      -6.160  76.957 115.895  0.00  0.00    -0.368 OA
BRANCH   7   8
ATOM      8  C   LIG d   1      -4.716  76.976 116.006  0.00  0.00     0.119 C 
BRANCH   8   9
ATOM      9  C   LIG d   1      -4.166  75.865 115.090  0.00  0.00     0.028 C 
ATOM     10  C   LIG d   1      -5.133  75.517 113.946  0.00  0.00     0.006 C 
ENDBRANCH   8   9
BRANCH   8  11
ATOM     11  C   LIG d   1      -4.261  76.600 117.419  0.00  0.00     0.028 C 
ATOM     12  C   LIG d   1      -3.429  75.308 117.452  0.00  0.00     0.006 C 
ENDBRANCH   8  11
ENDBRANCH   7   8
ENDBRANCH   1   7
BRANCH   6  13
ATOM     13  N   LIG d   1      -7.260  78.733 118.067  0.00  0.00    -0.311 N 
ATOM     14  C   LIG d   1      -7.580  80.002 117.816  0.00  0.00     0.210 C 
ATOM     15  C   LIG d   1      -6.725  81.041 118.548  0.00  0.00     0.109 C 
ATOM     16  O   LIG d   1      -8.511  80.365 117.081  0.00  0.00    -0.276 OA
ATOM     17  H   LIG d   1      -6.512  78.529 118.700  0.00  0.00     0.149 HD
ENDBRANCH   6  13
BRANCH   5  18
ATOM     18  N   LIG d   1     -10.143  77.907 118.651  0.00  0.00     0.381 N 
ATOM     19  H   LIG d   1      -9.926  78.452 119.461  0.00  0.00    -0.090 HD
ATOM     20  H   LIG d   1     -10.976  77.378 118.840  0.00  0.00    -0.090 HD
ATOM     21  H   LIG d   1     -10.292  78.506 117.869  0.00  0.00    -0.090 HD
ENDBRANCH   5  18
BRANCH   3  22
ATOM     22  C   LIG d   1      -9.009  73.480 117.217  0.00  0.00     0.382 C 
ATOM     23  O   LIG d   1      -8.460  72.675 118.007  0.00  0.00    -0.241 OA
ATOM     24  O   LIG d   1      -9.824  73.055 116.375  0.00  0.00    -0.241 OA
ENDBRANCH   3  22
TORSDOF 7
ENDMDL
MODEL 4
REMARK VINA RESULT:      -5.5     11.134     13.255
REMARK  7 active torsions:
REMARK  status: ('A' for Active; 'I' for Inactive)
REMARK    1  A    between atoms: C_2  and  C_3 
REMARK    2  A    between atoms: C_3  and  O_6 
REMARK    3  A    between atoms: C_3  and  C_4 
REMARK    4  A    between atoms: C_7  and  O_6 
REMARK    5  A    between atoms: C_9  and  C_10 
REMARK    6  A    between atoms: N_15  and  C_14 
REMARK    7  A    between atoms: N_20  and  C_19 
REMARK       I    between atoms: C_22  and  N_20 
ROOT
ATOM      1  C   LIG d   1       1.777  83.734 113.446  0.00  0.00     0.161 C 
ATOM      2  C   LIG d   1       2.301  85.037 113.486  0.00  0.00     0.016 C 
ATOM      3  C   LIG d   1       1.954  86.044 112.556  0.00  0.00     0.038 C 
ATOM      4  C   LIG d   1       0.938  85.858 111.607  0.00  0.00     0.028 C 
ATOM      5  C   LIG d   1       0.741  84.400 111.207  0.00  0.00    -0.047 C 
ATOM      6  C   LIG d   1       0.584  83.546 112.485  0.00  0.00     0.091 C 
ENDROOT
BRANCH   1   7
ATOM      7  O   LIG d   1       1.420  83.309 114.776  0.00  0.00    -0.368 OA
BRANCH   7   8
ATOM      8  C   LIG d   1       2.455  82.627 115.526  0.00  0.00     0.119 C 
BRANCH   8   9
ATOM      9  C   LIG d   1       2.127  81.122 115.504  0.00  0.00     0.028 C 
ATOM     10  C   LIG d   1       3.058  80.304 116.415  0.00  0.00     0.006 C 
ENDBRANCH   8   9
BRANCH   8  11
ATOM     11  C   LIG d   1       2.428  83.027 117.004  0.00  0.00     0.028 C 
ATOM     12  C   LIG d   1       1.782  84.402 117.238  0.00  0.00     0.006 C 
ENDBRANCH   8  11
ENDBRANCH   7   8
ENDBRANCH   1   7
BRANCH   6  13
ATOM     13  N   LIG d   1       0.471  82.094 112.187  0.00  0.00    -0.311 N 
ATOM     14  C   LIG d   1      -0.693  81.469 112.019  0.00  0.00     0.210 C 
ATOM     15  C   LIG d   1      -0.585  79.966 111.739  0.00  0.00     0.109 C 
ATOM     16  O   LIG d   1      -1.803  82.021 112.044  0.00  0.00    -0.276 OA
ATOM     17  H   LIG d   1       1.324  81.575 112.119  0.00  0.00     0.149 HD
ENDBRANCH   6  13
BRANCH   5  18
ATOM     18  N   LIG d   1      -0.436  84.336 110.320  0.00  0.00     0.381 N 
ATOM     19  H   LIG d   1      -0.822  85.252 110.203  0.00  0.00    -0.090 HD
ATOM     20  H   LIG d   1      -1.133  83.752 110.747  0.00  0.00    -0.090 HD
ATOM     21  H   LIG d   1      -0.175  83.962 109.434  0.00  0.00    -0.090 HD
ENDBRANCH   5  18
BRANCH   3  22
ATOM     22  C   LIG d   1       2.656  87.240 112.545  0.00  0.00     0.382 C 
ATOM     23  O   LIG d   1       2.070  88.307 112.243  0.00  0.00    -0.241 OA
ATOM     24  O   LIG d   1       3.877  87.258 112.789  0.00  0.00    -0.241 OA
ENDBRANCH   3  22
TORSDOF 7
ENDMDL
MODEL 5
REMARK VINA RESULT:      -5.3     13.815     15.716
REMARK  7 active torsions:
REMARK  status: ('A' for Active; 'I' for Inactive)
REMARK    1  A    between atoms: C_2  and  C_3 
REMARK    2  A    between atoms: C_3  and  O_6 
REMARK    3  A    between atoms: C_3  and  C_4 
REMARK    4  A    between atoms: C_7  and  O_6 
REMARK    5  A    between atoms: C_9  and  C_10 
REMARK    6  A    between atoms: N_15  and  C_14 
REMARK    7  A    between atoms: N_20  and  C_19 
REMARK       I    between atoms: C_22  and  N_20 
ROOT
ATOM      1  C   LIG d   1       2.799  86.192 114.482  0.00  0.00     0.161 C 
ATOM      2  C   LIG d   1       3.390  87.400 114.075  0.00  0.00     0.016 C 
ATOM      3  C   LIG d   1       4.412  88.050 114.803  0.00  0.00     0.038 C 
ATOM      4  C   LIG d   1       5.023  87.454 115.917  0.00  0.00     0.028 C 
ATOM      5  C   LIG d   1       4.116  86.474 116.653  0.00  0.00    -0.047 C 
ATOM      6  C   LIG d   1       3.529  85.471 115.634  0.00  0.00     0.091 C 
ENDROOT
BRANCH   1   7
ATOM      7  O   LIG d   1       2.658  85.311 113.349  0.00  0.00    -0.368 OA
BRANCH   7   8
ATOM      8  C   LIG d   1       2.602  85.949 112.050  0.00  0.00     0.119 C 
BRANCH   8   9
ATOM      9  C   LIG d   1       1.265  85.551 111.396  0.00  0.00     0.028 C 
ATOM     10  C   LIG d   1       0.324  86.753 111.205  0.00  0.00     0.006 C 
ENDBRANCH   8   9
BRANCH   8  11
ATOM     11  C   LIG d   1       3.688  85.405 111.116  0.00  0.00     0.028 C 
ATOM     12  C   LIG d   1       3.745  83.869 111.099  0.00  0.00     0.006 C 
ENDBRANCH   8  11
ENDBRANCH   7   8
ENDBRANCH   1   7
BRANCH   6  13
ATOM     13  N   LIG d   1       2.564  84.528 116.258  0.00  0.00    -0.311 N 
ATOM     14  C   LIG d   1       2.767  83.214 116.334  0.00  0.00     0.210 C 
ATOM     15  C   LIG d   1       1.637  82.422 116.999  0.00  0.00     0.109 C 
ATOM     16  O   LIG d   1       3.791  82.633 115.944  0.00  0.00    -0.276 OA
ATOM     17  H   LIG d   1       1.720  84.919 116.629  0.00  0.00     0.149 HD
ENDBRANCH   6  13
BRANCH   5  18
ATOM     18  N   LIG d   1       4.921  85.825 117.705  0.00  0.00     0.381 N 
ATOM     19  H   LIG d   1       5.893  86.008 117.549  0.00  0.00    -0.090 HD
ATOM     20  H   LIG d   1       4.776  84.832 117.660  0.00  0.00    -0.090 HD
ATOM     21  H   LIG d   1       4.651  86.167 118.601  0.00  0.00    -0.090 HD
ENDBRANCH   5  18
BRANCH   3  22
ATOM     22  C   LIG d   1       4.807  89.329 114.442  0.00  0.00     0.382 C 
ATOM     23  O   LIG d   1       5.441  90.043 115.256  0.00  0.00    -0.241 OA
ATOM     24  O   LIG d   1       4.498  89.794 113.328  0.00  0.00    -0.241 OA
ENDBRANCH   3  22
TORSDOF 7
ENDMDL
MODEL 6
REMARK VINA RESULT:      -4.9     17.466     20.542
REMARK  7 active torsions:
REMARK  status: ('A' for Active; 'I' for Inactive)
REMARK    1  A    between atoms: C_2  and  C_3 
REMARK    2  A    between atoms: C_3  and  O_6 
REMARK    3  A    between atoms: C_3  and  C_4 
REMARK    4  A    between atoms: C_7  and  O_6 
REMARK    5  A    between atoms: C_9  and  C_10 
REMARK    6  A    between atoms: N_15  and  C_14 
REMARK    7  A    between atoms: N_20  and  C_19 
REMARK       I    between atoms: C_22  and  N_20 
ROOT
ATOM      1  C   LIG d   1      11.934  76.108 114.436  0.00  0.00     0.161 C 
ATOM      2  C   LIG d   1      10.571  76.451 114.437  0.00  0.00     0.016 C 
ATOM      3  C   LIG d   1      10.089  77.725 114.061  0.00  0.00     0.038 C 
ATOM      4  C   LIG d   1      10.930  78.703 113.508  0.00  0.00     0.028 C 
ATOM      5  C   LIG d   1      12.381  78.578 113.960  0.00  0.00    -0.047 C 
ATOM      6  C   LIG d   1      12.855  77.125 113.731  0.00  0.00     0.091 C 
ENDROOT
BRANCH   1   7
ATOM      7  O   LIG d   1      12.106  74.795 113.866  0.00  0.00    -0.368 OA
BRANCH   7   8
ATOM      8  C   LIG d   1      12.093  73.688 114.800  0.00  0.00     0.119 C 
BRANCH   8   9
ATOM      9  C   LIG d   1      13.330  73.833 115.707  0.00  0.00     0.028 C 
ATOM     10  C   LIG d   1      12.969  73.803 117.202  0.00  0.00     0.006 C 
ENDBRANCH   8   9
BRANCH   8  11
ATOM     11  C   LIG d   1      12.274  72.349 114.079  0.00  0.00     0.028 C 
ATOM     12  C   LIG d   1      13.544  72.305 113.214  0.00  0.00     0.006 C 
ENDBRANCH   8  11
ENDBRANCH   7   8
ENDBRANCH   1   7
BRANCH   6  13
ATOM     13  N   LIG d   1      14.238  76.895 114.224  0.00  0.00    -0.311 N 
ATOM     14  C   LIG d   1      15.319  77.000 113.452  0.00  0.00     0.210 C 
ATOM     15  C   LIG d   1      16.647  76.702 114.154  0.00  0.00     0.109 C 
ATOM     16  O   LIG d   1      15.306  77.344 112.260  0.00  0.00    -0.276 OA
ATOM     17  H   LIG d   1      14.343  76.643 115.187  0.00  0.00     0.149 HD
ENDBRANCH   6  13
BRANCH   5  18
ATOM     18  N   LIG d   1      13.170  79.569 113.204  0.00  0.00     0.381 N 
ATOM     19  H   LIG d   1      12.897  79.556 112.241  0.00  0.00    -0.090 HD
ATOM     20  H   LIG d   1      14.142  79.322 113.259  0.00  0.00    -0.090 HD
ATOM     21  H   LIG d   1      13.029  80.479 113.584  0.00  0.00    -0.090 HD
ENDBRANCH   5  18
BRANCH   3  22
ATOM     22  C   LIG d   1       8.757  78.046 114.273  0.00  0.00     0.382 C 
ATOM     23  O   LIG d   1       8.453  79.135 114.818  0.00  0.00    -0.241 OA
ATOM     24  O   LIG d   1       7.857  77.242 113.966  0.00  0.00    -0.241 OA
ENDBRANCH   3  22
TORSDOF 7
ENDMDL
MODEL 7
REMARK VINA RESULT:      -4.9      2.940      5.875
REMARK  7 active torsions:
REMARK  status: ('A' for Active; 'I' for Inactive)
REMARK    1  A    between atoms: C_2  and  C_3 
REMARK    2  A    between atoms: C_3  and  O_6 
REMARK    3  A    between atoms: C_3  and  C_4 
REMARK    4  A    between atoms: C_7  and  O_6 
REMARK    5  A    between atoms: C_9  and  C_10 
REMARK    6  A    between atoms: N_15  and  C_14 
REMARK    7  A    between atoms: N_20  and  C_19 
REMARK       I    between atoms: C_22  and  N_20 
ROOT
ATOM      1  C   LIG d   1      -6.808  78.180 117.120  0.00  0.00     0.161 C 
ATOM      2  C   LIG d   1      -8.087  77.624 117.295  0.00  0.00     0.016 C 
ATOM      3  C   LIG d   1      -8.345  76.235 117.248  0.00  0.00     0.038 C 
ATOM      4  C   LIG d   1      -7.310  75.291 117.172  0.00  0.00     0.028 C 
ATOM      5  C   LIG d   1      -6.055  75.822 116.487  0.00  0.00    -0.047 C 
ATOM      6  C   LIG d   1      -5.651  77.160 117.147  0.00  0.00     0.091 C 
ENDROOT
BRANCH   1   7
ATOM      7  O   LIG d   1      -6.587  79.214 118.099  0.00  0.00    -0.368 OA
BRANCH   7   8
ATOM      8  C   LIG d   1      -7.686  80.133 118.315  0.00  0.00     0.119 C 
BRANCH   8   9
ATOM      9  C   LIG d   1      -7.545  81.274 117.288  0.00  0.00     0.028 C 
ATOM     10  C   LIG d   1      -8.907  81.799 116.804  0.00  0.00     0.006 C 
ENDBRANCH   8   9
BRANCH   8  11
ATOM     11  C   LIG d   1      -7.588  80.808 119.687  0.00  0.00     0.028 C 
ATOM     12  C   LIG d   1      -6.442  81.829 119.767  0.00  0.00     0.006 C 
ENDBRANCH   8  11
ENDBRANCH   7   8
ENDBRANCH   1   7
BRANCH   6  13
ATOM     13  N   LIG d   1      -4.481  77.789 116.482  0.00  0.00    -0.311 N 
ATOM     14  C   LIG d   1      -3.227  77.633 116.902  0.00  0.00     0.210 C 
ATOM     15  C   LIG d   1      -2.172  78.386 116.085  0.00  0.00     0.109 C 
ATOM     16  O   LIG d   1      -2.884  76.917 117.855  0.00  0.00    -0.276 OA
ATOM     17  H   LIG d   1      -4.665  78.362 115.682  0.00  0.00     0.149 HD
ENDBRANCH   6  13
BRANCH   5  18
ATOM     18  N   LIG d   1      -5.013  74.783 116.600  0.00  0.00     0.381 N 
ATOM     19  H   LIG d   1      -5.404  73.954 116.999  0.00  0.00    -0.090 HD
ATOM     20  H   LIG d   1      -4.288  75.116 117.210  0.00  0.00    -0.090 HD
ATOM     21  H   LIG d   1      -4.635  74.581 115.700  0.00  0.00    -0.090 HD
ENDBRANCH   5  18
BRANCH   3  22
ATOM     22  C   LIG d   1      -9.655  75.780 117.236  0.00  0.00     0.382 C 
ATOM     23  O   LIG d   1      -9.952  74.744 116.594  0.00  0.00    -0.241 OA
ATOM     24  O   LIG d   1     -10.550  76.416 117.823  0.00  0.00    -0.241 OA
ENDBRANCH   3  22
TORSDOF 7
ENDMDL
MODEL 8
REMARK VINA RESULT:      -4.9     11.797     13.845
REMARK  7 active torsions:
REMARK  status: ('A' for Active; 'I' for Inactive)
REMARK    1  A    between atoms: C_2  and  C_3 
REMARK    2  A    between atoms: C_3  and  O_6 
REMARK    3  A    between atoms: C_3  and  C_4 
REMARK    4  A    between atoms: C_7  and  O_6 
REMARK    5  A    between atoms: C_9  and  C_10 
REMARK    6  A    between atoms: N_15  and  C_14 
REMARK    7  A    between atoms: N_20  and  C_19 
REMARK       I    between atoms: C_22  and  N_20 
ROOT
ATOM      1  C   LIG d   1       2.642  83.613 111.650  0.00  0.00     0.161 C 
ATOM      2  C   LIG d   1       2.982  84.875 112.165  0.00  0.00     0.016 C 
ATOM      3  C   LIG d   1       2.204  86.036 111.956  0.00  0.00     0.038 C 
ATOM      4  C   LIG d   1       0.945  85.983 111.339  0.00  0.00     0.028 C 
ATOM      5  C   LIG d   1       0.797  84.822 110.361  0.00  0.00    -0.047 C 
ATOM      6  C   LIG d   1       1.216  83.514 111.069  0.00  0.00     0.091 C 
ENDROOT
BRANCH   1   7
ATOM      7  O   LIG d   1       2.844  82.603 112.658  0.00  0.00    -0.368 OA
BRANCH   7   8
ATOM      8  C   LIG d   1       1.932  82.635 113.784  0.00  0.00     0.119 C 
BRANCH   8   9
ATOM      9  C   LIG d   1       2.674  83.296 114.962  0.00  0.00     0.028 C 
ATOM     10  C   LIG d   1       1.859  84.428 115.608  0.00  0.00     0.006 C 
ENDBRANCH   8   9
BRANCH   8  11
ATOM     11  C   LIG d   1       1.589  81.221 114.263  0.00  0.00     0.028 C 
ATOM     12  C   LIG d   1       2.312  80.841 115.565  0.00  0.00     0.006 C 
ENDBRANCH   8  11
ENDBRANCH   7   8
ENDBRANCH   1   7
BRANCH   6  13
ATOM     13  N   LIG d   1       1.182  82.340 110.158  0.00  0.00    -0.311 N 
ATOM     14  C   LIG d   1       0.433  81.261 110.380  0.00  0.00     0.210 C 
ATOM     15  C   LIG d   1       0.561  80.157 109.326  0.00  0.00     0.109 C 
ATOM     16  O   LIG d   1      -0.349  81.127 111.333  0.00  0.00    -0.276 OA
ATOM     17  H   LIG d   1       1.763  82.378 109.344  0.00  0.00     0.149 HD
ENDBRANCH   6  13
BRANCH   5  18
ATOM     18  N   LIG d   1      -0.603  84.806 109.897  0.00  0.00     0.381 N 
ATOM     19  H   LIG d   1      -1.196  84.450 110.621  0.00  0.00    -0.090 HD
ATOM     20  H   LIG d   1      -0.675  84.196 109.102  0.00  0.00    -0.090 HD
ATOM     21  H   LIG d   1      -0.890  85.726 109.646  0.00  0.00    -0.090 HD
ENDBRANCH   5  18
BRANCH   3  22
ATOM     22  C   LIG d   1       2.702  87.274 112.330  0.00  0.00     0.382 C 
ATOM     23  O   LIG d   1       2.009  88.307 112.161  0.00  0.00    -0.241 OA
ATOM     24  O   LIG d   1       3.854  87.378 112.794  0.00  0.00    -0.241 OA
ENDBRANCH   3  22
TORSDOF 7
ENDMDL
MODEL 9
REMARK VINA RESULT:      -4.9     16.857     18.918
REMARK  7 active torsions:
REMARK  status: ('A' for Active; 'I' for Inactive)
REMARK    1  A    between atoms: C_2  and  C_3 
REMARK    2  A    between atoms: C_3  and  O_6 
REMARK    3  A    between atoms: C_3  and  C_4 
REMARK    4  A    between atoms: C_7  and  O_6 
REMARK    5  A    between atoms: C_9  and  C_10 
REMARK    6  A    between atoms: N_15  and  C_14 
REMARK    7  A    between atoms: N_20  and  C_19 
REMARK       I    between atoms: C_22  and  N_20 
ROOT
ATOM      1  C   LIG d   1     -24.011  83.254 114.936  0.00  0.00     0.161 C 
ATOM      2  C   LIG d   1     -24.533  83.259 113.632  0.00  0.00     0.016 C 
ATOM      3  C   LIG d   1     -24.272  84.283 112.693  0.00  0.00     0.038 C 
ATOM      4  C   LIG d   1     -23.344  85.303 112.947  0.00  0.00     0.028 C 
ATOM      5  C   LIG d   1     -23.179  85.617 114.431  0.00  0.00    -0.047 C 
ATOM      6  C   LIG d   1     -22.907  84.301 115.194  0.00  0.00     0.091 C 
ENDROOT
BRANCH   1   7
ATOM      7  O   LIG d   1     -23.537  81.934 115.268  0.00  0.00    -0.368 OA
BRANCH   7   8
ATOM      8  C   LIG d   1     -24.318  81.204 116.246  0.00  0.00     0.119 C 
BRANCH   8   9
ATOM      9  C   LIG d   1     -25.141  80.146 115.486  0.00  0.00     0.028 C 
ATOM     10  C   LIG d   1     -25.485  78.930 116.362  0.00  0.00     0.006 C 
ENDBRANCH   8   9
BRANCH   8  11
ATOM     11  C   LIG d   1     -25.350  82.110 116.924  0.00  0.00     0.028 C 
ATOM     12  C   LIG d   1     -25.123  82.244 118.438  0.00  0.00     0.006 C 
ENDBRANCH   8  11
ENDBRANCH   7   8
ENDBRANCH   1   7
BRANCH   6  13
ATOM     13  N   LIG d   1     -22.817  84.506 116.664  0.00  0.00    -0.311 N 
ATOM     14  C   LIG d   1     -21.854  83.983 117.420  0.00  0.00     0.210 C 
ATOM     15  C   LIG d   1     -21.959  84.302 118.914  0.00  0.00     0.109 C 
ATOM     16  O   LIG d   1     -20.904  83.312 116.990  0.00  0.00    -0.276 OA
ATOM     17  H   LIG d   1     -23.530  85.065 117.091  0.00  0.00     0.149 HD
ENDBRANCH   6  13
BRANCH   5  18
ATOM     18  N   LIG d   1     -22.085  86.598 114.560  0.00  0.00     0.381 N 
ATOM     19  H   LIG d   1     -22.038  86.930 115.503  0.00  0.00    -0.090 HD
ATOM     20  H   LIG d   1     -22.277  87.380 113.959  0.00  0.00    -0.090 HD
ATOM     21  H   LIG d   1     -21.219  86.178 114.305  0.00  0.00    -0.090 HD
ENDBRANCH   5  18
BRANCH   3  22
ATOM     22  C   LIG d   1     -24.976  84.316 111.498  0.00  0.00     0.382 C 
ATOM     23  O   LIG d   1     -25.802  83.410 111.233  0.00  0.00    -0.241 OA
ATOM     24  O   LIG d   1     -24.762  85.215 110.663  0.00  0.00    -0.241 OA
ENDBRANCH   3  22
TORSDOF 7
ENDMDL
