MODEL 1
REMARK VINA RESULT:      -6.2      0.000      0.000
REMARK  7 active torsions:
REMARK  status: ('A' for Active; 'I' for Inactive)
REMARK    1  A    between atoms: C_2  and  C_3 
REMARK    2  A    between atoms: C_3  and  O_6 
REMARK    3  A    between atoms: C_3  and  C_4 
REMARK    4  A    between atoms: C_7  and  O_6 
REMARK    5  A    between atoms: C_9  and  C_10 
REMARK    6  A    between atoms: N_15  and  C_14 
REMARK    7  A    between atoms: N_20  and  C_19 
REMARK       I    between atoms: C_22  and  N_20 
ROOT
ATOM      1  C   LIG d   1      -8.185  74.951 116.718  0.00  0.00     0.161 C 
ATOM      2  C   LIG d   1      -7.925  75.395 115.411  0.00  0.00     0.016 C 
ATOM      3  C   LIG d   1      -6.677  75.232 114.768  0.00  0.00     0.038 C 
ATOM      4  C   LIG d   1      -5.643  74.474 115.337  0.00  0.00     0.028 C 
ATOM      5  C   LIG d   1      -5.686  74.437 116.861  0.00  0.00    -0.047 C 
ATOM      6  C   LIG d   1      -7.105  74.023 117.312  0.00  0.00     0.091 C 
ENDROOT
BRANCH   1   7
ATOM      7  O   LIG d   1      -9.477  74.313 116.769  0.00  0.00    -0.368 OA
BRANCH   7   8
ATOM      8  C   LIG d   1     -10.251  74.536 117.973  0.00  0.00     0.119 C 
BRANCH   8   9
ATOM      9  C   LIG d   1     -10.878  73.188 118.377  0.00  0.00     0.028 C 
ATOM     10  C   LIG d   1     -10.264  72.003 117.613  0.00  0.00     0.006 C 
ENDBRANCH   8   9
BRANCH   8  11
ATOM     11  C   LIG d   1     -11.435  75.471 117.709  0.00  0.00     0.028 C 
ATOM     12  C   LIG d   1     -12.791  74.820 118.026  0.00  0.00     0.006 C 
ENDBRANCH   8  11
ENDBRANCH   7   8
ENDBRANCH   1   7
BRANCH   6  13
ATOM     13  N   LIG d   1      -7.258  74.044 118.791  0.00  0.00    -0.311 N 
ATOM     14  C   LIG d   1      -7.121  72.964 119.557  0.00  0.00     0.210 C 
ATOM     15  C   LIG d   1      -7.339  73.202 121.055  0.00  0.00     0.109 C 
ATOM     16  O   LIG d   1      -6.807  71.838 119.143  0.00  0.00    -0.276 OA
ATOM     17  H   LIG d   1      -7.482  74.924 119.213  0.00  0.00     0.149 HD
ENDBRANCH   6  13
BRANCH   5  18
ATOM     18  N   LIG d   1      -4.639  73.503 117.314  0.00  0.00     0.381 N 
ATOM     19  H   LIG d   1      -4.995  72.568 117.311  0.00  0.00    -0.090 HD
ATOM     20  H   LIG d   1      -4.379  73.738 118.256  0.00  0.00    -0.090 HD
ATOM     21  H   LIG d   1      -3.844  73.566 116.717  0.00  0.00    -0.090 HD
ENDBRANCH   5  18
BRANCH   3  22
ATOM     22  C   LIG d   1      -6.439  75.866 113.557  0.00  0.00     0.382 C 
ATOM     23  O   LIG d   1      -5.263  76.004 113.142  0.00  0.00    -0.241 OA
ATOM     24  O   LIG d   1      -7.383  76.341 112.897  0.00  0.00    -0.241 OA
ENDBRANCH   3  22
TORSDOF 7
ENDMDL
MODEL 2
REMARK VINA RESULT:      -6.1      2.650      5.511
REMARK  7 active torsions:
REMARK  status: ('A' for Active; 'I' for Inactive)
REMARK    1  A    between atoms: C_2  and  C_3 
REMARK    2  A    between atoms: C_3  and  O_6 
REMARK    3  A    between atoms: C_3  and  C_4 
REMARK    4  A    between atoms: C_7  and  O_6 
REMARK    5  A    between atoms: C_9  and  C_10 
REMARK    6  A    between atoms: N_15  and  C_14 
REMARK    7  A    between atoms: N_20  and  C_19 
REMARK       I    between atoms: C_22  and  N_20 
ROOT
ATOM      1  C   LIG d   1      -8.491  74.225 117.508  0.00  0.00     0.161 C 
ATOM      2  C   LIG d   1      -8.111  73.011 116.911  0.00  0.00     0.016 C 
ATOM      3  C   LIG d   1      -8.894  71.835 116.974  0.00  0.00     0.038 C 
ATOM      4  C   LIG d   1     -10.188  71.834 117.514  0.00  0.00     0.028 C 
ATOM      5  C   LIG d   1     -10.404  72.909 118.574  0.00  0.00    -0.047 C 
ATOM      6  C   LIG d   1      -9.951  74.273 118.005  0.00  0.00     0.091 C 
ENDROOT
BRANCH   1   7
ATOM      7  O   LIG d   1      -8.234  75.316 116.601  0.00  0.00    -0.368 OA
BRANCH   7   8
ATOM      8  C   LIG d   1      -6.853  75.509 116.210  0.00  0.00     0.119 C 
BRANCH   8   9
ATOM      9  C   LIG d   1      -6.453  76.941 116.614  0.00  0.00     0.028 C 
ATOM     10  C   LIG d   1      -7.519  77.625 117.485  0.00  0.00     0.006 C 
ENDBRANCH   8   9
BRANCH   8  11
ATOM     11  C   LIG d   1      -6.692  75.456 114.688  0.00  0.00     0.028 C 
ATOM     12  C   LIG d   1      -5.742  74.339 114.228  0.00  0.00     0.006 C 
ENDBRANCH   8  11
ENDBRANCH   7   8
ENDBRANCH   1   7
BRANCH   6  13
ATOM     13  N   LIG d   1     -10.049  75.366 119.007  0.00  0.00    -0.311 N 
ATOM     14  C   LIG d   1     -11.065  76.225 119.057  0.00  0.00     0.210 C 
ATOM     15  C   LIG d   1     -10.960  77.288 120.156  0.00  0.00     0.109 C 
ATOM     16  O   LIG d   1     -12.059  76.189 118.317  0.00  0.00    -0.276 OA
ATOM     17  H   LIG d   1      -9.300  75.449 119.666  0.00  0.00     0.149 HD
ENDBRANCH   6  13
BRANCH   5  18
ATOM     18  N   LIG d   1     -11.830  72.884 118.950  0.00  0.00     0.381 N 
ATOM     19  H   LIG d   1     -12.010  72.100 119.545  0.00  0.00    -0.090 HD
ATOM     20  H   LIG d   1     -12.384  72.782 118.118  0.00  0.00    -0.090 HD
ATOM     21  H   LIG d   1     -12.073  73.729 119.419  0.00  0.00    -0.090 HD
ENDBRANCH   5  18
BRANCH   3  22
ATOM     22  C   LIG d   1      -8.364  70.633 116.529  0.00  0.00     0.382 C 
ATOM     23  O   LIG d   1      -8.827  69.548 116.956  0.00  0.00    -0.241 OA
ATOM     24  O   LIG d   1      -7.401  70.621 115.740  0.00  0.00    -0.241 OA
ENDBRANCH   3  22
TORSDOF 7
ENDMDL
MODEL 3
REMARK VINA RESULT:      -5.8      2.952      4.259
REMARK  7 active torsions:
REMARK  status: ('A' for Active; 'I' for Inactive)
REMARK    1  A    between atoms: C_2  and  C_3 
REMARK    2  A    between atoms: C_3  and  O_6 
REMARK    3  A    between atoms: C_3  and  C_4 
REMARK    4  A    between atoms: C_7  and  O_6 
REMARK    5  A    between atoms: C_9  and  C_10 
REMARK    6  A    between atoms: N_15  and  C_14 
REMARK    7  A    between atoms: N_20  and  C_19 
REMARK       I    between atoms: C_22  and  N_20 
ROOT
ATOM      1  C   LIG d   1      -9.978  73.446 118.102  0.00  0.00     0.161 C 
ATOM      2  C   LIG d   1      -9.555  72.199 117.612  0.00  0.00     0.016 C 
ATOM      3  C   LIG d   1      -8.256  71.962 117.105  0.00  0.00     0.038 C 
ATOM      4  C   LIG d   1      -7.238  72.923 117.195  0.00  0.00     0.028 C 
ATOM      5  C   LIG d   1      -7.759  74.356 117.220  0.00  0.00    -0.047 C 
ATOM      6  C   LIG d   1      -8.848  74.476 118.311  0.00  0.00     0.091 C 
ENDROOT
BRANCH   1   7
ATOM      7  O   LIG d   1     -10.722  73.264 119.323  0.00  0.00    -0.368 OA
BRANCH   7   8
ATOM      8  C   LIG d   1     -12.164  73.217 119.190  0.00  0.00     0.119 C 
BRANCH   8   9
ATOM      9  C   LIG d   1     -12.559  74.214 118.083  0.00  0.00     0.028 C 
ATOM     10  C   LIG d   1     -13.125  75.527 118.651  0.00  0.00     0.006 C 
ENDBRANCH   8   9
BRANCH   8  11
ATOM     11  C   LIG d   1     -12.857  73.723 120.458  0.00  0.00     0.028 C 
ATOM     12  C   LIG d   1     -11.868  74.051 121.588  0.00  0.00     0.006 C 
ENDBRANCH   8  11
ENDBRANCH   7   8
ENDBRANCH   1   7
BRANCH   6  13
ATOM     13  N   LIG d   1      -9.470  75.825 118.345  0.00  0.00    -0.311 N 
ATOM     14  C   LIG d   1      -9.081  76.790 119.177  0.00  0.00     0.210 C 
ATOM     15  C   LIG d   1      -9.869  78.099 119.061  0.00  0.00     0.109 C 
ATOM     16  O   LIG d   1      -8.138  76.698 119.977  0.00  0.00    -0.276 OA
ATOM     17  H   LIG d   1     -10.222  75.997 117.707  0.00  0.00     0.149 HD
ENDBRANCH   6  13
BRANCH   5  18
ATOM     18  N   LIG d   1      -6.605  75.245 117.454  0.00  0.00     0.381 N 
ATOM     19  H   LIG d   1      -6.674  76.051 116.865  0.00  0.00    -0.090 HD
ATOM     20  H   LIG d   1      -5.762  74.752 117.218  0.00  0.00    -0.090 HD
ATOM     21  H   LIG d   1      -6.579  75.525 118.410  0.00  0.00    -0.090 HD
ENDBRANCH   5  18
BRANCH   3  22
ATOM     22  C   LIG d   1      -7.977  70.764 116.464  0.00  0.00     0.382 C 
ATOM     23  O   LIG d   1      -8.480  69.695 116.886  0.00  0.00    -0.241 OA
ATOM     24  O   LIG d   1      -7.193  70.734 115.497  0.00  0.00    -0.241 OA
ENDBRANCH   3  22
TORSDOF 7
ENDMDL
MODEL 4
REMARK VINA RESULT:      -5.6      2.184      2.896
REMARK  7 active torsions:
REMARK  status: ('A' for Active; 'I' for Inactive)
REMARK    1  A    between atoms: C_2  and  C_3 
REMARK    2  A    between atoms: C_3  and  O_6 
REMARK    3  A    between atoms: C_3  and  C_4 
REMARK    4  A    between atoms: C_7  and  O_6 
REMARK    5  A    between atoms: C_9  and  C_10 
REMARK    6  A    between atoms: N_15  and  C_14 
REMARK    7  A    between atoms: N_20  and  C_19 
REMARK       I    between atoms: C_22  and  N_20 
ROOT
ATOM      1  C   LIG d   1      -8.093  74.129 116.959  0.00  0.00     0.161 C 
ATOM      2  C   LIG d   1      -7.251  74.026 115.840  0.00  0.00     0.016 C 
ATOM      3  C   LIG d   1      -6.487  75.105 115.338  0.00  0.00     0.038 C 
ATOM      4  C   LIG d   1      -6.398  76.329 116.017  0.00  0.00     0.028 C 
ATOM      5  C   LIG d   1      -7.623  76.639 116.870  0.00  0.00    -0.047 C 
ATOM      6  C   LIG d   1      -7.923  75.425 117.779  0.00  0.00     0.091 C 
ENDROOT
BRANCH   1   7
ATOM      7  O   LIG d   1      -7.924  72.975 117.806  0.00  0.00    -0.368 OA
BRANCH   7   8
ATOM      8  C   LIG d   1      -9.010  72.015 117.799  0.00  0.00     0.119 C 
BRANCH   8   9
ATOM      9  C   LIG d   1      -8.650  70.917 116.779  0.00  0.00     0.028 C 
ATOM     10  C   LIG d   1      -9.544  69.673 116.917  0.00  0.00     0.006 C 
ENDBRANCH   8   9
BRANCH   8  11
ATOM     11  C   LIG d   1     -10.306  72.644 117.279  0.00  0.00     0.028 C 
ATOM     12  C   LIG d   1     -11.370  72.809 118.375  0.00  0.00     0.006 C 
ENDBRANCH   8  11
ENDBRANCH   7   8
ENDBRANCH   1   7
BRANCH   6  13
ATOM     13  N   LIG d   1      -9.157  75.612 118.586  0.00  0.00    -0.311 N 
ATOM     14  C   LIG d   1      -9.152  76.067 119.838  0.00  0.00     0.210 C 
ATOM     15  C   LIG d   1     -10.532  76.165 120.496  0.00  0.00     0.109 C 
ATOM     16  O   LIG d   1      -8.138  76.429 120.455  0.00  0.00    -0.276 OA
ATOM     17  H   LIG d   1     -10.026  75.373 118.152  0.00  0.00     0.149 HD
ENDBRANCH   6  13
BRANCH   5  18
ATOM     18  N   LIG d   1      -7.338  77.872 117.628  0.00  0.00     0.381 N 
ATOM     19  H   LIG d   1      -8.113  78.093 118.221  0.00  0.00    -0.090 HD
ATOM     20  H   LIG d   1      -7.211  78.630 116.980  0.00  0.00    -0.090 HD
ATOM     21  H   LIG d   1      -6.515  77.753 118.176  0.00  0.00    -0.090 HD
ENDBRANCH   5  18
BRANCH   3  22
ATOM     22  C   LIG d   1      -5.834  74.977 114.121  0.00  0.00     0.382 C 
ATOM     23  O   LIG d   1      -5.395  73.859 113.760  0.00  0.00    -0.241 OA
ATOM     24  O   LIG d   1      -5.639  75.975 113.402  0.00  0.00    -0.241 OA
ENDBRANCH   3  22
TORSDOF 7
ENDMDL
MODEL 5
REMARK VINA RESULT:      -5.4     10.647     12.753
REMARK  7 active torsions:
REMARK  status: ('A' for Active; 'I' for Inactive)
REMARK    1  A    between atoms: C_2  and  C_3 
REMARK    2  A    between atoms: C_3  and  O_6 
REMARK    3  A    between atoms: C_3  and  C_4 
REMARK    4  A    between atoms: C_7  and  O_6 
REMARK    5  A    between atoms: C_9  and  C_10 
REMARK    6  A    between atoms: N_15  and  C_14 
REMARK    7  A    between atoms: N_20  and  C_19 
REMARK       I    between atoms: C_22  and  N_20 
ROOT
ATOM      1  C   LIG d   1     -16.756  65.447 114.512  0.00  0.00     0.161 C 
ATOM      2  C   LIG d   1     -16.417  66.539 113.698  0.00  0.00     0.016 C 
ATOM      3  C   LIG d   1     -15.395  67.462 114.019  0.00  0.00     0.038 C 
ATOM      4  C   LIG d   1     -14.536  67.266 115.111  0.00  0.00     0.028 C 
ATOM      5  C   LIG d   1     -15.165  66.455 116.239  0.00  0.00    -0.047 C 
ATOM      6  C   LIG d   1     -15.757  65.154 115.651  0.00  0.00     0.091 C 
ENDROOT
BRANCH   1   7
ATOM      7  O   LIG d   1     -16.948  64.272 113.699  0.00  0.00    -0.368 OA
BRANCH   7   8
ATOM      8  C   LIG d   1     -18.302  63.760 113.628  0.00  0.00     0.119 C 
BRANCH   8   9
ATOM      9  C   LIG d   1     -19.216  64.767 114.352  0.00  0.00     0.028 C 
ATOM     10  C   LIG d   1     -20.252  65.402 113.409  0.00  0.00     0.006 C 
ENDBRANCH   8   9
BRANCH   8  11
ATOM     11  C   LIG d   1     -18.444  62.450 114.409  0.00  0.00     0.028 C 
ATOM     12  C   LIG d   1     -19.427  62.561 115.585  0.00  0.00     0.006 C 
ENDBRANCH   8  11
ENDBRANCH   7   8
ENDBRANCH   1   7
BRANCH   6  13
ATOM     13  N   LIG d   1     -16.465  64.341 116.674  0.00  0.00    -0.311 N 
ATOM     14  C   LIG d   1     -15.889  63.348 117.349  0.00  0.00     0.210 C 
ATOM     15  C   LIG d   1     -16.804  62.625 118.343  0.00  0.00     0.109 C 
ATOM     16  O   LIG d   1     -14.698  63.018 117.243  0.00  0.00    -0.276 OA
ATOM     17  H   LIG d   1     -17.427  64.561 116.846  0.00  0.00     0.149 HD
ENDBRANCH   6  13
BRANCH   5  18
ATOM     18  N   LIG d   1     -14.118  66.210 117.249  0.00  0.00     0.381 N 
ATOM     19  H   LIG d   1     -13.274  66.676 116.982  0.00  0.00    -0.090 HD
ATOM     20  H   LIG d   1     -13.933  65.223 117.292  0.00  0.00    -0.090 HD
ATOM     21  H   LIG d   1     -14.420  66.538 118.139  0.00  0.00    -0.090 HD
ENDBRANCH   5  18
BRANCH   3  22
ATOM     22  C   LIG d   1     -15.251  68.617 113.266  0.00  0.00     0.382 C 
ATOM     23  O   LIG d   1     -14.133  69.182 113.193  0.00  0.00    -0.241 OA
ATOM     24  O   LIG d   1     -16.234  69.127 112.696  0.00  0.00    -0.241 OA
ENDBRANCH   3  22
TORSDOF 7
ENDMDL
MODEL 6
REMARK VINA RESULT:      -5.4      2.830      4.412
REMARK  7 active torsions:
REMARK  status: ('A' for Active; 'I' for Inactive)
REMARK    1  A    between atoms: C_2  and  C_3 
REMARK    2  A    between atoms: C_3  and  O_6 
REMARK    3  A    between atoms: C_3  and  C_4 
REMARK    4  A    between atoms: C_7  and  O_6 
REMARK    5  A    between atoms: C_9  and  C_10 
REMARK    6  A    between atoms: N_15  and  C_14 
REMARK    7  A    between atoms: N_20  and  C_19 
REMARK       I    between atoms: C_22  and  N_20 
ROOT
ATOM      1  C   LIG d   1      -9.423  73.643 117.424  0.00  0.00     0.161 C 
ATOM      2  C   LIG d   1      -9.813  72.295 117.364  0.00  0.00     0.016 C 
ATOM      3  C   LIG d   1      -8.900  71.226 117.221  0.00  0.00     0.038 C 
ATOM      4  C   LIG d   1      -7.512  71.423 117.281  0.00  0.00     0.028 C 
ATOM      5  C   LIG d   1      -7.079  72.815 116.833  0.00  0.00    -0.047 C 
ATOM      6  C   LIG d   1      -7.907  73.870 117.603  0.00  0.00     0.091 C 
ENDROOT
BRANCH   1   7
ATOM      7  O   LIG d   1     -10.156  74.318 118.465  0.00  0.00    -0.368 OA
BRANCH   7   8
ATOM      8  C   LIG d   1     -11.020  75.399 118.038  0.00  0.00     0.119 C 
BRANCH   8   9
ATOM      9  C   LIG d   1     -10.910  76.523 119.086  0.00  0.00     0.028 C 
ATOM     10  C   LIG d   1      -9.917  77.621 118.668  0.00  0.00     0.006 C 
ENDBRANCH   8   9
BRANCH   8  11
ATOM     11  C   LIG d   1     -12.492  74.975 118.052  0.00  0.00     0.028 C 
ATOM     12  C   LIG d   1     -12.814  73.977 119.176  0.00  0.00     0.006 C 
ENDBRANCH   8  11
ENDBRANCH   7   8
ENDBRANCH   1   7
BRANCH   6  13
ATOM     13  N   LIG d   1      -7.605  75.257 117.164  0.00  0.00    -0.311 N 
ATOM     14  C   LIG d   1      -6.684  76.025 117.744  0.00  0.00     0.210 C 
ATOM     15  C   LIG d   1      -6.546  77.430 117.149  0.00  0.00     0.109 C 
ATOM     16  O   LIG d   1      -5.946  75.665 118.673  0.00  0.00    -0.276 OA
ATOM     17  H   LIG d   1      -8.136  75.619 116.396  0.00  0.00     0.149 HD
ENDBRANCH   6  13
BRANCH   5  18
ATOM     18  N   LIG d   1      -5.628  72.930 117.076  0.00  0.00     0.381 N 
ATOM     19  H   LIG d   1      -5.220  72.018 117.126  0.00  0.00    -0.090 HD
ATOM     20  H   LIG d   1      -5.481  73.390 117.958  0.00  0.00    -0.090 HD
ATOM     21  H   LIG d   1      -5.200  73.454 116.345  0.00  0.00    -0.090 HD
ENDBRANCH   5  18
BRANCH   3  22
ATOM     22  C   LIG d   1      -9.373  69.945 116.976  0.00  0.00     0.382 C 
ATOM     23  O   LIG d   1      -8.749  68.951 117.418  0.00  0.00    -0.241 OA
ATOM     24  O   LIG d   1     -10.391  69.771 116.281  0.00  0.00    -0.241 OA
ENDBRANCH   3  22
TORSDOF 7
ENDMDL
MODEL 7
REMARK VINA RESULT:      -5.2      2.451      3.082
REMARK  7 active torsions:
REMARK  status: ('A' for Active; 'I' for Inactive)
REMARK    1  A    between atoms: C_2  and  C_3 
REMARK    2  A    between atoms: C_3  and  O_6 
REMARK    3  A    between atoms: C_3  and  C_4 
REMARK    4  A    between atoms: C_7  and  O_6 
REMARK    5  A    between atoms: C_9  and  C_10 
REMARK    6  A    between atoms: N_15  and  C_14 
REMARK    7  A    between atoms: N_20  and  C_19 
REMARK       I    between atoms: C_22  and  N_20 
ROOT
ATOM      1  C   LIG d   1      -8.420  75.384 117.183  0.00  0.00     0.161 C 
ATOM      2  C   LIG d   1      -7.950  75.129 115.884  0.00  0.00     0.016 C 
ATOM      3  C   LIG d   1      -6.805  75.752 115.335  0.00  0.00     0.038 C 
ATOM      4  C   LIG d   1      -5.961  76.564 116.106  0.00  0.00     0.028 C 
ATOM      5  C   LIG d   1      -6.674  77.247 117.268  0.00  0.00    -0.047 C 
ATOM      6  C   LIG d   1      -7.449  76.182 118.077  0.00  0.00     0.091 C 
ENDROOT
BRANCH   1   7
ATOM      7  O   LIG d   1      -8.786  74.145 117.822  0.00  0.00    -0.368 OA
BRANCH   7   8
ATOM      8  C   LIG d   1      -9.461  73.172 116.986  0.00  0.00     0.119 C 
BRANCH   8   9
ATOM      9  C   LIG d   1     -10.976  73.334 117.217  0.00  0.00     0.028 C 
ATOM     10  C   LIG d   1     -11.412  72.853 118.611  0.00  0.00     0.006 C 
ENDBRANCH   8   9
BRANCH   8  11
ATOM     11  C   LIG d   1      -9.135  71.741 117.424  0.00  0.00     0.028 C 
ATOM     12  C   LIG d   1      -8.197  71.017 116.445  0.00  0.00     0.006 C 
ENDBRANCH   8  11
ENDBRANCH   7   8
ENDBRANCH   1   7
BRANCH   6  13
ATOM     13  N   LIG d   1      -8.244  76.778 119.183  0.00  0.00    -0.311 N 
ATOM     14  C   LIG d   1      -7.795  76.885 120.433  0.00  0.00     0.210 C 
ATOM     15  C   LIG d   1      -8.782  77.512 121.423  0.00  0.00     0.109 C 
ATOM     16  O   LIG d   1      -6.662  76.550 120.809  0.00  0.00    -0.276 OA
ATOM     17  H   LIG d   1      -9.164  77.104 118.960  0.00  0.00     0.149 HD
ENDBRANCH   6  13
BRANCH   5  18
ATOM     18  N   LIG d   1      -5.652  77.950 118.067  0.00  0.00     0.381 N 
ATOM     19  H   LIG d   1      -6.002  78.841 118.357  0.00  0.00    -0.090 HD
ATOM     20  H   LIG d   1      -4.840  78.100 117.496  0.00  0.00    -0.090 HD
ATOM     21  H   LIG d   1      -5.410  77.405 118.866  0.00  0.00    -0.090 HD
ENDBRANCH   5  18
BRANCH   3  22
ATOM     22  C   LIG d   1      -6.518  75.595 113.987  0.00  0.00     0.382 C 
ATOM     23  O   LIG d   1      -7.184  76.220 113.127  0.00  0.00    -0.241 OA
ATOM     24  O   LIG d   1      -5.630  74.803 113.619  0.00  0.00    -0.241 OA
ENDBRANCH   3  22
TORSDOF 7
ENDMDL
MODEL 8
REMARK VINA RESULT:      -5.1     10.618     12.562
REMARK  7 active torsions:
REMARK  status: ('A' for Active; 'I' for Inactive)
REMARK    1  A    between atoms: C_2  and  C_3 
REMARK    2  A    between atoms: C_3  and  O_6 
REMARK    3  A    between atoms: C_3  and  C_4 
REMARK    4  A    between atoms: C_7  and  O_6 
REMARK    5  A    between atoms: C_9  and  C_10 
REMARK    6  A    between atoms: N_15  and  C_14 
REMARK    7  A    between atoms: N_20  and  C_19 
REMARK       I    between atoms: C_22  and  N_20 
ROOT
ATOM      1  C   LIG d   1     -15.357  65.361 115.546  0.00  0.00     0.161 C 
ATOM      2  C   LIG d   1     -15.109  66.652 115.051  0.00  0.00     0.016 C 
ATOM      3  C   LIG d   1     -15.870  67.249 114.020  0.00  0.00     0.038 C 
ATOM      4  C   LIG d   1     -17.033  66.649 113.514  0.00  0.00     0.028 C 
ATOM      5  C   LIG d   1     -17.028  65.129 113.627  0.00  0.00    -0.047 C 
ATOM      6  C   LIG d   1     -16.689  64.735 115.083  0.00  0.00     0.091 C 
ENDROOT
BRANCH   1   7
ATOM      7  O   LIG d   1     -15.278  65.365 116.985  0.00  0.00    -0.368 OA
BRANCH   7   8
ATOM      8  C   LIG d   1     -15.315  66.667 117.621  0.00  0.00     0.119 C 
BRANCH   8   9
ATOM      9  C   LIG d   1     -14.449  66.585 118.893  0.00  0.00     0.028 C 
ATOM     10  C   LIG d   1     -14.577  65.228 119.605  0.00  0.00     0.006 C 
ENDBRANCH   8   9
BRANCH   8  11
ATOM     11  C   LIG d   1     -16.726  67.007 118.113  0.00  0.00     0.028 C 
ATOM     12  C   LIG d   1     -17.321  68.237 117.410  0.00  0.00     0.006 C 
ENDBRANCH   8  11
ENDBRANCH   7   8
ENDBRANCH   1   7
BRANCH   6  13
ATOM     13  N   LIG d   1     -16.581  63.264 115.262  0.00  0.00    -0.311 N 
ATOM     14  C   LIG d   1     -17.597  62.497 115.656  0.00  0.00     0.210 C 
ATOM     15  C   LIG d   1     -17.266  61.008 115.796  0.00  0.00     0.109 C 
ATOM     16  O   LIG d   1     -18.748  62.904 115.871  0.00  0.00    -0.276 OA
ATOM     17  H   LIG d   1     -15.690  62.846 115.079  0.00  0.00     0.149 HD
ENDBRANCH   6  13
BRANCH   5  18
ATOM     18  N   LIG d   1     -18.352  64.645 113.191  0.00  0.00     0.381 N 
ATOM     19  H   LIG d   1     -18.451  63.677 113.421  0.00  0.00    -0.090 HD
ATOM     20  H   LIG d   1     -18.420  64.742 112.193  0.00  0.00    -0.090 HD
ATOM     21  H   LIG d   1     -19.071  65.174 113.634  0.00  0.00    -0.090 HD
ENDBRANCH   5  18
BRANCH   3  22
ATOM     22  C   LIG d   1     -15.446  68.443 113.456  0.00  0.00     0.382 C 
ATOM     23  O   LIG d   1     -14.291  68.873 113.693  0.00  0.00    -0.241 OA
ATOM     24  O   LIG d   1     -16.218  69.118 112.750  0.00  0.00    -0.241 OA
ENDBRANCH   3  22
TORSDOF 7
ENDMDL
MODEL 9
REMARK VINA RESULT:      -5.0      2.575      5.549
REMARK  7 active torsions:
REMARK  status: ('A' for Active; 'I' for Inactive)
REMARK    1  A    between atoms: C_2  and  C_3 
REMARK    2  A    between atoms: C_3  and  O_6 
REMARK    3  A    between atoms: C_3  and  C_4 
REMARK    4  A    between atoms: C_7  and  O_6 
REMARK    5  A    between atoms: C_9  and  C_10 
REMARK    6  A    between atoms: N_15  and  C_14 
REMARK    7  A    between atoms: N_20  and  C_19 
REMARK       I    between atoms: C_22  and  N_20 
ROOT
ATOM      1  C   LIG d   1      -9.546  75.502 117.802  0.00  0.00     0.161 C 
ATOM      2  C   LIG d   1     -10.808  75.567 118.415  0.00  0.00     0.016 C 
ATOM      3  C   LIG d   1     -11.699  74.471 118.480  0.00  0.00     0.038 C 
ATOM      4  C   LIG d   1     -11.323  73.184 118.066  0.00  0.00     0.028 C 
ATOM      5  C   LIG d   1     -10.250  73.186 116.982  0.00  0.00    -0.047 C 
ATOM      6  C   LIG d   1      -9.074  74.077 117.443  0.00  0.00     0.091 C 
ENDROOT
BRANCH   1   7
ATOM      7  O   LIG d   1      -8.566  76.161 118.628  0.00  0.00    -0.368 OA
BRANCH   7   8
ATOM      8  C   LIG d   1      -7.776  75.302 119.487  0.00  0.00     0.119 C 
BRANCH   8   9
ATOM      9  C   LIG d   1      -8.459  75.274 120.869  0.00  0.00     0.028 C 
ATOM     10  C   LIG d   1      -9.007  73.882 121.225  0.00  0.00     0.006 C 
ENDBRANCH   8   9
BRANCH   8  11
ATOM     11  C   LIG d   1      -6.384  75.891 119.735  0.00  0.00     0.028 C 
ATOM     12  C   LIG d   1      -5.254  74.986 119.218  0.00  0.00     0.006 C 
ENDBRANCH   8  11
ENDBRANCH   7   8
ENDBRANCH   1   7
BRANCH   6  13
ATOM     13  N   LIG d   1      -8.017  74.202 116.405  0.00  0.00    -0.311 N 
ATOM     14  C   LIG d   1      -6.940  73.420 116.358  0.00  0.00     0.210 C 
ATOM     15  C   LIG d   1      -5.965  73.730 115.218  0.00  0.00     0.109 C 
ATOM     16  O   LIG d   1      -6.715  72.478 117.133  0.00  0.00    -0.276 OA
ATOM     17  H   LIG d   1      -8.135  74.920 115.718  0.00  0.00     0.149 HD
ENDBRANCH   6  13
BRANCH   5  18
ATOM     18  N   LIG d   1      -9.855  71.785 116.744  0.00  0.00     0.381 N 
ATOM     19  H   LIG d   1      -8.890  71.661 116.975  0.00  0.00    -0.090 HD
ATOM     20  H   LIG d   1      -9.975  71.575 115.768  0.00  0.00    -0.090 HD
ATOM     21  H   LIG d   1     -10.417  71.174 117.294  0.00  0.00    -0.090 HD
ENDBRANCH   5  18
BRANCH   3  22
ATOM     22  C   LIG d   1     -12.997  74.665 118.928  0.00  0.00     0.382 C 
ATOM     23  O   LIG d   1     -13.420  74.027 119.922  0.00  0.00    -0.241 OA
ATOM     24  O   LIG d   1     -13.764  75.439 118.324  0.00  0.00    -0.241 OA
ENDBRANCH   3  22
TORSDOF 7
ENDMDL
