MODEL 1
REMARK VINA RESULT:      -5.4      0.000      0.000
REMARK  7 active torsions:
REMARK  status: ('A' for Active; 'I' for Inactive)
REMARK    1  A    between atoms: C_2  and  C_3 
REMARK    2  A    between atoms: C_3  and  O_6 
REMARK    3  A    between atoms: C_3  and  C_4 
REMARK    4  A    between atoms: C_7  and  O_6 
REMARK    5  A    between atoms: C_9  and  C_10 
REMARK    6  A    between atoms: N_15  and  C_14 
REMARK    7  A    between atoms: N_20  and  C_19 
REMARK       I    between atoms: C_22  and  N_20 
ROOT
ATOM      1  C   LIG d   1      -4.579  91.320 117.739  0.00  0.00     0.161 C 
ATOM      2  C   LIG d   1      -3.812  92.279 118.421  0.00  0.00     0.016 C 
ATOM      3  C   LIG d   1      -4.374  93.385 119.100  0.00  0.00     0.038 C 
ATOM      4  C   LIG d   1      -5.760  93.524 119.270  0.00  0.00     0.028 C 
ATOM      5  C   LIG d   1      -6.576  92.855 118.170  0.00  0.00    -0.047 C 
ATOM      6  C   LIG d   1      -6.097  91.394 118.008  0.00  0.00     0.091 C 
ENDROOT
BRANCH   1   7
ATOM      7  O   LIG d   1      -4.082  89.999 118.032  0.00  0.00    -0.368 OA
BRANCH   7   8
ATOM      8  C   LIG d   1      -2.766  89.932 118.634  0.00  0.00     0.119 C 
BRANCH   8   9
ATOM      9  C   LIG d   1      -1.855  89.149 117.670  0.00  0.00     0.028 C 
ATOM     10  C   LIG d   1      -0.506  89.850 117.437  0.00  0.00     0.006 C 
ENDBRANCH   8   9
BRANCH   8  11
ATOM     11  C   LIG d   1      -2.787  89.113 119.928  0.00  0.00     0.028 C 
ATOM     12  C   LIG d   1      -2.426  87.636 119.704  0.00  0.00     0.006 C 
ENDBRANCH   8  11
ENDBRANCH   7   8
ENDBRANCH   1   7
BRANCH   6  13
ATOM     13  N   LIG d   1      -6.786  90.692 116.894  0.00  0.00    -0.311 N 
ATOM     14  C   LIG d   1      -6.838  91.165 115.650  0.00  0.00     0.210 C 
ATOM     15  C   LIG d   1      -7.616  90.293 114.659  0.00  0.00     0.109 C 
ATOM     16  O   LIG d   1      -6.287  92.207 115.266  0.00  0.00    -0.276 OA
ATOM     17  H   LIG d   1      -7.233  89.823 117.111  0.00  0.00     0.149 HD
ENDBRANCH   6  13
BRANCH   5  18
ATOM     18  N   LIG d   1      -7.999  92.958 118.545  0.00  0.00     0.381 N 
ATOM     19  H   LIG d   1      -8.142  92.548 119.446  0.00  0.00    -0.090 HD
ATOM     20  H   LIG d   1      -8.549  92.449 117.876  0.00  0.00    -0.090 HD
ATOM     21  H   LIG d   1      -8.279  93.914 118.558  0.00  0.00    -0.090 HD
ENDBRANCH   5  18
BRANCH   3  22
ATOM     22  C   LIG d   1      -3.547  94.388 119.582  0.00  0.00     0.382 C 
ATOM     23  O   LIG d   1      -2.317  94.177 119.715  0.00  0.00    -0.241 OA
ATOM     24  O   LIG d   1      -4.022  95.487 119.928  0.00  0.00    -0.241 OA
ENDBRANCH   3  22
TORSDOF 7
ENDMDL
MODEL 2
REMARK VINA RESULT:      -4.7      6.668      9.397
REMARK  7 active torsions:
REMARK  status: ('A' for Active; 'I' for Inactive)
REMARK    1  A    between atoms: C_2  and  C_3 
REMARK    2  A    between atoms: C_3  and  O_6 
REMARK    3  A    between atoms: C_3  and  C_4 
REMARK    4  A    between atoms: C_7  and  O_6 
REMARK    5  A    between atoms: C_9  and  C_10 
REMARK    6  A    between atoms: N_15  and  C_14 
REMARK    7  A    between atoms: N_20  and  C_19 
REMARK       I    between atoms: C_22  and  N_20 
ROOT
ATOM      1  C   LIG d   1       3.147  88.687 116.299  0.00  0.00     0.161 C 
ATOM      2  C   LIG d   1       3.689  89.608 117.210  0.00  0.00     0.016 C 
ATOM      3  C   LIG d   1       4.944  90.234 117.030  0.00  0.00     0.038 C 
ATOM      4  C   LIG d   1       5.680  90.093 115.844  0.00  0.00     0.028 C 
ATOM      5  C   LIG d   1       5.410  88.780 115.117  0.00  0.00    -0.047 C 
ATOM      6  C   LIG d   1       3.884  88.605 114.946  0.00  0.00     0.091 C 
ENDROOT
BRANCH   1   7
ATOM      7  O   LIG d   1       1.749  88.969 116.091  0.00  0.00    -0.368 OA
BRANCH   7   8
ATOM      8  C   LIG d   1       0.912  88.950 117.274  0.00  0.00     0.119 C 
BRANCH   8   9
ATOM      9  C   LIG d   1       0.138  87.617 117.272  0.00  0.00     0.028 C 
ATOM     10  C   LIG d   1       0.717  86.601 118.271  0.00  0.00     0.006 C 
ENDBRANCH   8   9
BRANCH   8  11
ATOM     11  C   LIG d   1      -0.161  90.041 117.216  0.00  0.00     0.028 C 
ATOM     12  C   LIG d   1      -1.434  89.667 117.991  0.00  0.00     0.006 C 
ENDBRANCH   8  11
ENDBRANCH   7   8
ENDBRANCH   1   7
BRANCH   6  13
ATOM     13  N   LIG d   1       3.529  87.305 114.318  0.00  0.00    -0.311 N 
ATOM     14  C   LIG d   1       2.842  87.203 113.182  0.00  0.00     0.210 C 
ATOM     15  C   LIG d   1       2.566  85.769 112.719  0.00  0.00     0.109 C 
ATOM     16  O   LIG d   1       2.462  88.165 112.497  0.00  0.00    -0.276 OA
ATOM     17  H   LIG d   1       3.825  86.474 114.791  0.00  0.00     0.149 HD
ENDBRANCH   6  13
BRANCH   5  18
ATOM     18  N   LIG d   1       6.135  88.825 113.833  0.00  0.00     0.381 N 
ATOM     19  H   LIG d   1       5.521  88.561 113.088  0.00  0.00    -0.090 HD
ATOM     20  H   LIG d   1       6.893  88.166 113.864  0.00  0.00    -0.090 HD
ATOM     21  H   LIG d   1       6.489  89.742 113.673  0.00  0.00    -0.090 HD
ENDBRANCH   5  18
BRANCH   3  22
ATOM     22  C   LIG d   1       5.494  90.979 118.062  0.00  0.00     0.382 C 
ATOM     23  O   LIG d   1       6.600  91.550 117.903  0.00  0.00    -0.241 OA
ATOM     24  O   LIG d   1       4.920  91.052 119.165  0.00  0.00    -0.241 OA
ENDBRANCH   3  22
TORSDOF 7
ENDMDL
MODEL 3
REMARK VINA RESULT:      -4.7      7.033     10.248
REMARK  7 active torsions:
REMARK  status: ('A' for Active; 'I' for Inactive)
REMARK    1  A    between atoms: C_2  and  C_3 
REMARK    2  A    between atoms: C_3  and  O_6 
REMARK    3  A    between atoms: C_3  and  C_4 
REMARK    4  A    between atoms: C_7  and  O_6 
REMARK    5  A    between atoms: C_9  and  C_10 
REMARK    6  A    between atoms: N_15  and  C_14 
REMARK    7  A    between atoms: N_20  and  C_19 
REMARK       I    between atoms: C_22  and  N_20 
ROOT
ATOM      1  C   LIG d   1       3.406  89.296 116.587  0.00  0.00     0.161 C 
ATOM      2  C   LIG d   1       3.423  88.847 115.256  0.00  0.00     0.016 C 
ATOM      3  C   LIG d   1       4.579  88.866 114.442  0.00  0.00     0.038 C 
ATOM      4  C   LIG d   1       5.841  89.199 114.956  0.00  0.00     0.028 C 
ATOM      5  C   LIG d   1       5.779  90.140 116.154  0.00  0.00    -0.047 C 
ATOM      6  C   LIG d   1       4.799  89.559 117.198  0.00  0.00     0.091 C 
ENDROOT
BRANCH   1   7
ATOM      7  O   LIG d   1       2.666  88.370 117.406  0.00  0.00    -0.368 OA
BRANCH   7   8
ATOM      8  C   LIG d   1       1.518  87.744 116.782  0.00  0.00     0.119 C 
BRANCH   8   9
ATOM      9  C   LIG d   1       0.270  88.158 117.587  0.00  0.00     0.028 C 
ATOM     10  C   LIG d   1      -0.178  89.596 117.277  0.00  0.00     0.006 C 
ENDBRANCH   8   9
BRANCH   8  11
ATOM     11  C   LIG d   1       1.586  86.218 116.895  0.00  0.00     0.028 C 
ATOM     12  C   LIG d   1       1.907  85.536 115.556  0.00  0.00     0.006 C 
ENDBRANCH   8  11
ENDBRANCH   7   8
ENDBRANCH   1   7
BRANCH   6  13
ATOM     13  N   LIG d   1       4.615  90.459 118.366  0.00  0.00    -0.311 N 
ATOM     14  C   LIG d   1       4.185  91.715 118.263  0.00  0.00     0.210 C 
ATOM     15  C   LIG d   1       4.085  92.476 119.589  0.00  0.00     0.109 C 
ATOM     16  O   LIG d   1       3.846  92.262 117.202  0.00  0.00    -0.276 OA
ATOM     17  H   LIG d   1       4.837  90.087 119.269  0.00  0.00     0.149 HD
ENDBRANCH   6  13
BRANCH   5  18
ATOM     18  N   LIG d   1       7.152  90.293 116.672  0.00  0.00     0.381 N 
ATOM     19  H   LIG d   1       7.202  91.097 117.265  0.00  0.00    -0.090 HD
ATOM     20  H   LIG d   1       7.778  90.431 115.899  0.00  0.00    -0.090 HD
ATOM     21  H   LIG d   1       7.417  89.478 117.182  0.00  0.00    -0.090 HD
ENDBRANCH   5  18
BRANCH   3  22
ATOM     22  C   LIG d   1       4.471  88.589 113.088  0.00  0.00     0.382 C 
ATOM     23  O   LIG d   1       5.489  88.265 112.431  0.00  0.00    -0.241 OA
ATOM     24  O   LIG d   1       3.376  88.702 112.506  0.00  0.00    -0.241 OA
ENDBRANCH   3  22
TORSDOF 7
ENDMDL
MODEL 4
REMARK VINA RESULT:      -4.7      5.583      8.471
REMARK  7 active torsions:
REMARK  status: ('A' for Active; 'I' for Inactive)
REMARK    1  A    between atoms: C_2  and  C_3 
REMARK    2  A    between atoms: C_3  and  O_6 
REMARK    3  A    between atoms: C_3  and  C_4 
REMARK    4  A    between atoms: C_7  and  O_6 
REMARK    5  A    between atoms: C_9  and  C_10 
REMARK    6  A    between atoms: N_15  and  C_14 
REMARK    7  A    between atoms: N_20  and  C_19 
REMARK       I    between atoms: C_22  and  N_20 
ROOT
ATOM      1  C   LIG d   1       1.695  88.114 116.613  0.00  0.00     0.161 C 
ATOM      2  C   LIG d   1       0.356  88.002 117.026  0.00  0.00     0.016 C 
ATOM      3  C   LIG d   1      -0.348  89.044 117.671  0.00  0.00     0.038 C 
ATOM      4  C   LIG d   1       0.195  90.330 117.813  0.00  0.00     0.028 C 
ATOM      5  C   LIG d   1       1.719  90.340 117.866  0.00  0.00    -0.047 C 
ATOM      6  C   LIG d   1       2.269  89.545 116.659  0.00  0.00     0.091 C 
ENDROOT
BRANCH   1   7
ATOM      7  O   LIG d   1       1.847  87.555 115.293  0.00  0.00    -0.368 OA
BRANCH   7   8
ATOM      8  C   LIG d   1       2.304  86.182 115.230  0.00  0.00     0.119 C 
BRANCH   8   9
ATOM      9  C   LIG d   1       3.326  85.982 116.366  0.00  0.00     0.028 C 
ATOM     10  C   LIG d   1       4.763  85.826 115.842  0.00  0.00     0.006 C 
ENDBRANCH   8   9
BRANCH   8  11
ATOM     11  C   LIG d   1       3.078  85.911 113.937  0.00  0.00     0.028 C 
ATOM     12  C   LIG d   1       2.827  86.976 112.858  0.00  0.00     0.006 C 
ENDBRANCH   8  11
ENDBRANCH   7   8
ENDBRANCH   1   7
BRANCH   6  13
ATOM     13  N   LIG d   1       3.751  89.435 116.680  0.00  0.00    -0.311 N 
ATOM     14  C   LIG d   1       4.512  89.584 115.598  0.00  0.00     0.210 C 
ATOM     15  C   LIG d   1       6.016  89.411 115.836  0.00  0.00     0.109 C 
ATOM     16  O   LIG d   1       4.088  89.876 114.470  0.00  0.00    -0.276 OA
ATOM     17  H   LIG d   1       4.180  89.231 117.561  0.00  0.00     0.149 HD
ENDBRANCH   6  13
BRANCH   5  18
ATOM     18  N   LIG d   1       2.155  91.750 117.876  0.00  0.00     0.381 N 
ATOM     19  H   LIG d   1       2.398  92.036 116.948  0.00  0.00    -0.090 HD
ATOM     20  H   LIG d   1       2.971  91.834 118.455  0.00  0.00    -0.090 HD
ATOM     21  H   LIG d   1       1.426  92.329 118.230  0.00  0.00    -0.090 HD
ENDBRANCH   5  18
BRANCH   3  22
ATOM     22  C   LIG d   1      -1.597  88.793 118.219  0.00  0.00     0.382 C 
ATOM     23  O   LIG d   1      -1.753  87.832 119.010  0.00  0.00    -0.241 OA
ATOM     24  O   LIG d   1      -2.579  89.488 117.897  0.00  0.00    -0.241 OA
ENDBRANCH   3  22
TORSDOF 7
ENDMDL
MODEL 5
REMARK VINA RESULT:      -4.7      4.648      7.402
REMARK  7 active torsions:
REMARK  status: ('A' for Active; 'I' for Inactive)
REMARK    1  A    between atoms: C_2  and  C_3 
REMARK    2  A    between atoms: C_3  and  O_6 
REMARK    3  A    between atoms: C_3  and  C_4 
REMARK    4  A    between atoms: C_7  and  O_6 
REMARK    5  A    between atoms: C_9  and  C_10 
REMARK    6  A    between atoms: N_15  and  C_14 
REMARK    7  A    between atoms: N_20  and  C_19 
REMARK       I    between atoms: C_22  and  N_20 
ROOT
ATOM      1  C   LIG d   1       0.834  89.191 117.449  0.00  0.00     0.161 C 
ATOM      2  C   LIG d   1      -0.566  89.100 117.505  0.00  0.00     0.016 C 
ATOM      3  C   LIG d   1      -1.391  90.111 118.050  0.00  0.00     0.038 C 
ATOM      4  C   LIG d   1      -0.877  91.356 118.442  0.00  0.00     0.028 C 
ATOM      5  C   LIG d   1       0.585  91.300 118.872  0.00  0.00    -0.047 C 
ATOM      6  C   LIG d   1       1.405  90.589 117.770  0.00  0.00     0.091 C 
ENDROOT
BRANCH   1   7
ATOM      7  O   LIG d   1       1.302  88.743 116.162  0.00  0.00    -0.368 OA
BRANCH   7   8
ATOM      8  C   LIG d   1       2.267  87.662 116.176  0.00  0.00     0.119 C 
BRANCH   8   9
ATOM      9  C   LIG d   1       3.118  87.785 114.897  0.00  0.00     0.028 C 
ATOM     10  C   LIG d   1       4.021  89.030 114.910  0.00  0.00     0.006 C 
ENDBRANCH   8   9
BRANCH   8  11
ATOM     11  C   LIG d   1       1.578  86.298 116.075  0.00  0.00     0.028 C 
ATOM     12  C   LIG d   1       1.580  85.735 114.645  0.00  0.00     0.006 C 
ENDBRANCH   8  11
ENDBRANCH   7   8
ENDBRANCH   1   7
BRANCH   6  13
ATOM     13  N   LIG d   1       2.832  90.416 118.148  0.00  0.00    -0.311 N 
ATOM     14  C   LIG d   1       3.785  91.290 117.829  0.00  0.00     0.210 C 
ATOM     15  C   LIG d   1       5.193  90.910 118.299  0.00  0.00     0.109 C 
ATOM     16  O   LIG d   1       3.594  92.359 117.230  0.00  0.00    -0.276 OA
ATOM     17  H   LIG d   1       3.071  89.591 118.663  0.00  0.00     0.149 HD
ENDBRANCH   6  13
BRANCH   5  18
ATOM     18  N   LIG d   1       1.030  92.684 119.121  0.00  0.00     0.381 N 
ATOM     19  H   LIG d   1       1.486  92.738 120.010  0.00  0.00    -0.090 HD
ATOM     20  H   LIG d   1       0.226  93.285 119.142  0.00  0.00    -0.090 HD
ATOM     21  H   LIG d   1       1.654  92.976 118.401  0.00  0.00    -0.090 HD
ENDBRANCH   5  18
BRANCH   3  22
ATOM     22  C   LIG d   1      -2.742  89.866 118.245  0.00  0.00     0.382 C 
ATOM     23  O   LIG d   1      -3.474  90.752 118.747  0.00  0.00    -0.241 OA
ATOM     24  O   LIG d   1      -3.228  88.753 117.966  0.00  0.00    -0.241 OA
ENDBRANCH   3  22
TORSDOF 7
ENDMDL
MODEL 6
REMARK VINA RESULT:      -4.6      6.877     10.011
REMARK  7 active torsions:
REMARK  status: ('A' for Active; 'I' for Inactive)
REMARK    1  A    between atoms: C_2  and  C_3 
REMARK    2  A    between atoms: C_3  and  O_6 
REMARK    3  A    between atoms: C_3  and  C_4 
REMARK    4  A    between atoms: C_7  and  O_6 
REMARK    5  A    between atoms: C_9  and  C_10 
REMARK    6  A    between atoms: N_15  and  C_14 
REMARK    7  A    between atoms: N_20  and  C_19 
REMARK       I    between atoms: C_22  and  N_20 
ROOT
ATOM      1  C   LIG d   1       3.171  89.221 116.581  0.00  0.00     0.161 C 
ATOM      2  C   LIG d   1       3.225  88.797 115.243  0.00  0.00     0.016 C 
ATOM      3  C   LIG d   1       4.392  88.875 114.448  0.00  0.00     0.038 C 
ATOM      4  C   LIG d   1       5.633  89.244 114.987  0.00  0.00     0.028 C 
ATOM      5  C   LIG d   1       5.517  90.160 116.201  0.00  0.00    -0.047 C 
ATOM      6  C   LIG d   1       4.544  89.523 117.219  0.00  0.00     0.091 C 
ENDROOT
BRANCH   1   7
ATOM      7  O   LIG d   1       2.454  88.253 117.372  0.00  0.00    -0.368 OA
BRANCH   7   8
ATOM      8  C   LIG d   1       1.228  88.717 117.989  0.00  0.00     0.119 C 
BRANCH   8   9
ATOM      9  C   LIG d   1       0.139  87.665 117.703  0.00  0.00     0.028 C 
ATOM     10  C   LIG d   1      -0.688  87.320 118.953  0.00  0.00     0.006 C 
ENDBRANCH   8   9
BRANCH   8  11
ATOM     11  C   LIG d   1       0.727  90.007 117.333  0.00  0.00     0.028 C 
ATOM     12  C   LIG d   1       0.297  91.068 118.357  0.00  0.00     0.006 C 
ENDBRANCH   8  11
ENDBRANCH   7   8
ENDBRANCH   1   7
BRANCH   6  13
ATOM     13  N   LIG d   1       4.308  90.394 118.400  0.00  0.00    -0.311 N 
ATOM     14  C   LIG d   1       3.925  91.666 118.308  0.00  0.00     0.210 C 
ATOM     15  C   LIG d   1       3.758  92.390 119.648  0.00  0.00     0.109 C 
ATOM     16  O   LIG d   1       3.675  92.254 117.245  0.00  0.00    -0.276 OA
ATOM     17  H   LIG d   1       4.458  89.988 119.303  0.00  0.00     0.149 HD
ENDBRANCH   6  13
BRANCH   5  18
ATOM     18  N   LIG d   1       6.875  90.354 116.744  0.00  0.00     0.381 N 
ATOM     19  H   LIG d   1       7.555  90.129 116.045  0.00  0.00    -0.090 HD
ATOM     20  H   LIG d   1       7.006  89.732 117.523  0.00  0.00    -0.090 HD
ATOM     21  H   LIG d   1       6.993  91.298 117.040  0.00  0.00    -0.090 HD
ENDBRANCH   5  18
BRANCH   3  22
ATOM     22  C   LIG d   1       4.314  88.619 113.087  0.00  0.00     0.382 C 
ATOM     23  O   LIG d   1       3.197  88.585 112.518  0.00  0.00    -0.241 OA
ATOM     24  O   LIG d   1       5.345  88.377 112.431  0.00  0.00    -0.241 OA
ENDBRANCH   3  22
TORSDOF 7
ENDMDL
MODEL 7
REMARK VINA RESULT:      -4.5      7.294     10.532
REMARK  7 active torsions:
REMARK  status: ('A' for Active; 'I' for Inactive)
REMARK    1  A    between atoms: C_2  and  C_3 
REMARK    2  A    between atoms: C_3  and  O_6 
REMARK    3  A    between atoms: C_3  and  C_4 
REMARK    4  A    between atoms: C_7  and  O_6 
REMARK    5  A    between atoms: C_9  and  C_10 
REMARK    6  A    between atoms: N_15  and  C_14 
REMARK    7  A    between atoms: N_20  and  C_19 
REMARK       I    between atoms: C_22  and  N_20 
ROOT
ATOM      1  C   LIG d   1       3.638  87.215 115.983  0.00  0.00     0.161 C 
ATOM      2  C   LIG d   1       2.288  87.594 116.078  0.00  0.00     0.016 C 
ATOM      3  C   LIG d   1       1.809  88.537 117.017  0.00  0.00     0.038 C 
ATOM      4  C   LIG d   1       2.677  89.282 117.828  0.00  0.00     0.028 C 
ATOM      5  C   LIG d   1       3.994  88.571 118.120  0.00  0.00    -0.047 C 
ATOM      6  C   LIG d   1       4.616  88.099 116.785  0.00  0.00     0.091 C 
ENDROOT
BRANCH   1   7
ATOM      7  O   LIG d   1       4.034  87.160 114.598  0.00  0.00    -0.368 OA
BRANCH   7   8
ATOM      8  C   LIG d   1       3.566  88.244 113.758  0.00  0.00     0.119 C 
BRANCH   8   9
ATOM      9  C   LIG d   1       3.086  87.626 112.430  0.00  0.00     0.028 C 
ATOM     10  C   LIG d   1       2.808  86.118 112.551  0.00  0.00     0.006 C 
ENDBRANCH   8   9
BRANCH   8  11
ATOM     11  C   LIG d   1       4.711  89.187 113.376  0.00  0.00     0.028 C 
ATOM     12  C   LIG d   1       5.948  88.440 112.851  0.00  0.00     0.006 C 
ENDBRANCH   8  11
ENDBRANCH   7   8
ENDBRANCH   1   7
BRANCH   6  13
ATOM     13  N   LIG d   1       5.865  87.320 116.986  0.00  0.00    -0.311 N 
ATOM     14  C   LIG d   1       7.064  87.740 116.584  0.00  0.00     0.210 C 
ATOM     15  C   LIG d   1       8.217  86.774 116.872  0.00  0.00     0.109 C 
ATOM     16  O   LIG d   1       7.285  88.835 116.046  0.00  0.00    -0.276 OA
ATOM     17  H   LIG d   1       5.781  86.433 117.443  0.00  0.00     0.149 HD
ENDBRANCH   6  13
BRANCH   5  18
ATOM     18  N   LIG d   1       4.856  89.513 118.858  0.00  0.00     0.381 N 
ATOM     19  H   LIG d   1       4.338  90.338 119.086  0.00  0.00    -0.090 HD
ATOM     20  H   LIG d   1       5.627  89.778 118.270  0.00  0.00    -0.090 HD
ATOM     21  H   LIG d   1       5.195  89.085 119.691  0.00  0.00    -0.090 HD
ENDBRANCH   5  18
BRANCH   3  22
ATOM     22  C   LIG d   1       0.443  88.713 117.177  0.00  0.00     0.382 C 
ATOM     23  O   LIG d   1      -0.268  87.763 117.586  0.00  0.00    -0.241 OA
ATOM     24  O   LIG d   1      -0.094  89.796 116.876  0.00  0.00    -0.241 OA
ENDBRANCH   3  22
TORSDOF 7
ENDMDL
MODEL 8
REMARK VINA RESULT:      -4.5      2.089      5.059
REMARK  7 active torsions:
REMARK  status: ('A' for Active; 'I' for Inactive)
REMARK    1  A    between atoms: C_2  and  C_3 
REMARK    2  A    between atoms: C_3  and  O_6 
REMARK    3  A    between atoms: C_3  and  C_4 
REMARK    4  A    between atoms: C_7  and  O_6 
REMARK    5  A    between atoms: C_9  and  C_10 
REMARK    6  A    between atoms: N_15  and  C_14 
REMARK    7  A    between atoms: N_20  and  C_19 
REMARK       I    between atoms: C_22  and  N_20 
ROOT
ATOM      1  C   LIG d   1      -5.512  91.508 117.526  0.00  0.00     0.161 C 
ATOM      2  C   LIG d   1      -4.443  90.604 117.641  0.00  0.00     0.016 C 
ATOM      3  C   LIG d   1      -3.308  90.840 118.450  0.00  0.00     0.038 C 
ATOM      4  C   LIG d   1      -3.233  91.936 119.322  0.00  0.00     0.028 C 
ATOM      5  C   LIG d   1      -4.061  93.132 118.863  0.00  0.00    -0.047 C 
ATOM      6  C   LIG d   1      -5.500  92.658 118.555  0.00  0.00     0.091 C 
ENDROOT
BRANCH   1   7
ATOM      7  O   LIG d   1      -6.763  90.796 117.586  0.00  0.00    -0.368 OA
BRANCH   7   8
ATOM      8  C   LIG d   1      -7.654  90.976 116.457  0.00  0.00     0.119 C 
BRANCH   8   9
ATOM      9  C   LIG d   1      -7.796  89.611 115.757  0.00  0.00     0.028 C 
ATOM     10  C   LIG d   1      -9.250  89.109 115.738  0.00  0.00     0.006 C 
ENDBRANCH   8   9
BRANCH   8  11
ATOM     11  C   LIG d   1      -7.042  91.908 115.408  0.00  0.00     0.028 C 
ATOM     12  C   LIG d   1      -7.389  91.495 113.968  0.00  0.00     0.006 C 
ENDBRANCH   8  11
ENDBRANCH   7   8
ENDBRANCH   1   7
BRANCH   6  13
ATOM     13  N   LIG d   1      -6.354  93.750 118.020  0.00  0.00    -0.311 N 
ATOM     14  C   LIG d   1      -7.297  94.361 118.736  0.00  0.00     0.210 C 
ATOM     15  C   LIG d   1      -8.076  95.446 117.986  0.00  0.00     0.109 C 
ATOM     16  O   LIG d   1      -7.539  94.130 119.930  0.00  0.00    -0.276 OA
ATOM     17  H   LIG d   1      -6.204  94.022 117.068  0.00  0.00     0.149 HD
ENDBRANCH   6  13
BRANCH   5  18
ATOM     18  N   LIG d   1      -4.004  94.149 119.930  0.00  0.00     0.381 N 
ATOM     19  H   LIG d   1      -4.588  93.873 120.693  0.00  0.00    -0.090 HD
ATOM     20  H   LIG d   1      -4.349  95.021 119.567  0.00  0.00    -0.090 HD
ATOM     21  H   LIG d   1      -3.065  94.261 120.245  0.00  0.00    -0.090 HD
ENDBRANCH   5  18
BRANCH   3  22
ATOM     22  C   LIG d   1      -2.213  89.994 118.361  0.00  0.00     0.382 C 
ATOM     23  O   LIG d   1      -1.087  90.381 118.758  0.00  0.00    -0.241 OA
ATOM     24  O   LIG d   1      -2.327  88.865 117.847  0.00  0.00    -0.241 OA
ENDBRANCH   3  22
TORSDOF 7
ENDMDL
MODEL 9
REMARK VINA RESULT:      -4.5      7.219      9.517
REMARK  7 active torsions:
REMARK  status: ('A' for Active; 'I' for Inactive)
REMARK    1  A    between atoms: C_2  and  C_3 
REMARK    2  A    between atoms: C_3  and  O_6 
REMARK    3  A    between atoms: C_3  and  C_4 
REMARK    4  A    between atoms: C_7  and  O_6 
REMARK    5  A    between atoms: C_9  and  C_10 
REMARK    6  A    between atoms: N_15  and  C_14 
REMARK    7  A    between atoms: N_20  and  C_19 
REMARK       I    between atoms: C_22  and  N_20 
ROOT
ATOM      1  C   LIG d   1       3.871  88.741 117.072  0.00  0.00     0.161 C 
ATOM      2  C   LIG d   1       4.406  89.269 115.885  0.00  0.00     0.016 C 
ATOM      3  C   LIG d   1       4.042  88.814 114.597  0.00  0.00     0.038 C 
ATOM      4  C   LIG d   1       2.998  87.898 114.402  0.00  0.00     0.028 C 
ATOM      5  C   LIG d   1       2.778  86.968 115.591  0.00  0.00    -0.047 C 
ATOM      6  C   LIG d   1       2.649  87.818 116.876  0.00  0.00     0.091 C 
ENDROOT
BRANCH   1   7
ATOM      7  O   LIG d   1       3.549  89.812 117.981  0.00  0.00    -0.368 OA
BRANCH   7   8
ATOM      8  C   LIG d   1       2.754  90.894 117.436  0.00  0.00     0.119 C 
BRANCH   8   9
ATOM      9  C   LIG d   1       3.267  92.205 118.062  0.00  0.00     0.028 C 
ATOM     10  C   LIG d   1       4.664  92.050 118.687  0.00  0.00     0.006 C 
ENDBRANCH   8   9
BRANCH   8  11
ATOM     11  C   LIG d   1       1.290  90.783 117.870  0.00  0.00     0.028 C 
ATOM     12  C   LIG d   1       1.133  90.291 119.317  0.00  0.00     0.006 C 
ENDBRANCH   8  11
ENDBRANCH   7   8
ENDBRANCH   1   7
BRANCH   6  13
ATOM     13  N   LIG d   1       2.516  86.983 118.097  0.00  0.00    -0.311 N 
ATOM     14  C   LIG d   1       1.346  86.691 118.662  0.00  0.00     0.210 C 
ATOM     15  C   LIG d   1       1.434  85.832 119.927  0.00  0.00     0.109 C 
ATOM     16  O   LIG d   1       0.240  87.036 118.217  0.00  0.00    -0.276 OA
ATOM     17  H   LIG d   1       3.361  86.635 118.507  0.00  0.00     0.149 HD
ENDBRANCH   6  13
BRANCH   5  18
ATOM     18  N   LIG d   1       1.576  86.161 115.309  0.00  0.00     0.381 N 
ATOM     19  H   LIG d   1       1.633  85.778 114.387  0.00  0.00    -0.090 HD
ATOM     20  H   LIG d   1       0.767  86.756 115.353  0.00  0.00    -0.090 HD
ATOM     21  H   LIG d   1       1.494  85.427 115.977  0.00  0.00    -0.090 HD
ENDBRANCH   5  18
BRANCH   3  22
ATOM     22  C   LIG d   1       4.753  89.248 113.488  0.00  0.00     0.382 C 
ATOM     23  O   LIG d   1       4.220  90.037 112.671  0.00  0.00    -0.241 OA
ATOM     24  O   LIG d   1       5.904  88.825 113.271  0.00  0.00    -0.241 OA
ENDBRANCH   3  22
TORSDOF 7
ENDMDL
