MODEL 1
REMARK VINA RESULT:      -4.9      0.000      0.000
REMARK  7 active torsions:
REMARK  status: ('A' for Active; 'I' for Inactive)
REMARK    1  A    between atoms: C_2  and  C_3 
REMARK    2  A    between atoms: C_3  and  O_6 
REMARK    3  A    between atoms: C_3  and  C_4 
REMARK    4  A    between atoms: C_7  and  O_6 
REMARK    5  A    between atoms: C_9  and  C_10 
REMARK    6  A    between atoms: N_15  and  C_14 
REMARK    7  A    between atoms: N_20  and  C_19 
REMARK       I    between atoms: C_22  and  N_20 
ROOT
ATOM      1  C   LIG d   1       1.115  88.736 116.786  0.00  0.00     0.161 C 
ATOM      2  C   LIG d   1      -0.277  88.562 116.846  0.00  0.00     0.016 C 
ATOM      3  C   LIG d   1      -1.162  89.537 117.360  0.00  0.00     0.038 C 
ATOM      4  C   LIG d   1      -0.725  90.823 117.713  0.00  0.00     0.028 C 
ATOM      5  C   LIG d   1       0.738  90.869 118.142  0.00  0.00    -0.047 C 
ATOM      6  C   LIG d   1       1.599  90.175 117.063  0.00  0.00     0.091 C 
ENDROOT
BRANCH   1   7
ATOM      7  O   LIG d   1       1.611  88.277 115.513  0.00  0.00    -0.368 OA
BRANCH   7   8
ATOM      8  C   LIG d   1       2.649  87.267 115.560  0.00  0.00     0.119 C 
BRANCH   8   9
ATOM      9  C   LIG d   1       3.675  87.608 114.462  0.00  0.00     0.028 C 
ATOM     10  C   LIG d   1       3.557  89.063 113.979  0.00  0.00     0.006 C 
ENDBRANCH   8   9
BRANCH   8  11
ATOM     11  C   LIG d   1       2.100  85.886 115.188  0.00  0.00     0.028 C 
ATOM     12  C   LIG d   1       1.726  85.774 113.702  0.00  0.00     0.006 C 
ENDBRANCH   8  11
ENDBRANCH   7   8
ENDBRANCH   1   7
BRANCH   6  13
ATOM     13  N   LIG d   1       3.034  90.102 117.444  0.00  0.00    -0.311 N 
ATOM     14  C   LIG d   1       3.911  91.072 117.190  0.00  0.00     0.210 C 
ATOM     15  C   LIG d   1       5.343  90.785 117.650  0.00  0.00     0.109 C 
ATOM     16  O   LIG d   1       3.631  92.156 116.658  0.00  0.00    -0.276 OA
ATOM     17  H   LIG d   1       3.340  89.269 117.908  0.00  0.00     0.149 HD
ENDBRANCH   6  13
BRANCH   5  18
ATOM     18  N   LIG d   1       1.097  92.285 118.347  0.00  0.00     0.381 N 
ATOM     19  H   LIG d   1       0.397  92.735 118.902  0.00  0.00    -0.090 HD
ATOM     20  H   LIG d   1       1.135  92.744 117.454  0.00  0.00    -0.090 HD
ATOM     21  H   LIG d   1       1.983  92.349 118.800  0.00  0.00    -0.090 HD
ENDBRANCH   5  18
BRANCH   3  22
ATOM     22  C   LIG d   1      -2.496  89.216 117.564  0.00  0.00     0.382 C 
ATOM     23  O   LIG d   1      -3.355  89.536 116.708  0.00  0.00    -0.241 OA
ATOM     24  O   LIG d   1      -2.856  88.650 118.614  0.00  0.00    -0.241 OA
ENDBRANCH   3  22
TORSDOF 7
ENDMDL
MODEL 2
REMARK VINA RESULT:      -4.9      1.040      1.377
REMARK  7 active torsions:
REMARK  status: ('A' for Active; 'I' for Inactive)
REMARK    1  A    between atoms: C_2  and  C_3 
REMARK    2  A    between atoms: C_3  and  O_6 
REMARK    3  A    between atoms: C_3  and  C_4 
REMARK    4  A    between atoms: C_7  and  O_6 
REMARK    5  A    between atoms: C_9  and  C_10 
REMARK    6  A    between atoms: N_15  and  C_14 
REMARK    7  A    between atoms: N_20  and  C_19 
REMARK       I    between atoms: C_22  and  N_20 
ROOT
ATOM      1  C   LIG d   1       0.987  88.610 116.745  0.00  0.00     0.161 C 
ATOM      2  C   LIG d   1      -0.408  88.505 116.870  0.00  0.00     0.016 C 
ATOM      3  C   LIG d   1      -1.226  89.550 117.358  0.00  0.00     0.038 C 
ATOM      4  C   LIG d   1      -0.718  90.832 117.612  0.00  0.00     0.028 C 
ATOM      5  C   LIG d   1       0.762  90.835 117.980  0.00  0.00    -0.047 C 
ATOM      6  C   LIG d   1       1.546  90.039 116.912  0.00  0.00     0.091 C 
ENDROOT
BRANCH   1   7
ATOM      7  O   LIG d   1       1.408  88.052 115.484  0.00  0.00    -0.368 OA
BRANCH   7   8
ATOM      8  C   LIG d   1       1.703  86.634 115.481  0.00  0.00     0.119 C 
BRANCH   8   9
ATOM      9  C   LIG d   1       2.867  86.401 116.464  0.00  0.00     0.028 C 
ATOM     10  C   LIG d   1       4.237  86.426 115.766  0.00  0.00     0.006 C 
ENDBRANCH   8   9
BRANCH   8  11
ATOM     11  C   LIG d   1       2.227  86.176 114.116  0.00  0.00     0.028 C 
ATOM     12  C   LIG d   1       1.166  85.432 113.290  0.00  0.00     0.006 C 
ENDBRANCH   8  11
ENDBRANCH   7   8
ENDBRANCH   1   7
BRANCH   6  13
ATOM     13  N   LIG d   1       2.991  89.921 117.240  0.00  0.00    -0.311 N 
ATOM     14  C   LIG d   1       3.962  90.099 116.346  0.00  0.00     0.210 C 
ATOM     15  C   LIG d   1       5.382  89.911 116.889  0.00  0.00     0.109 C 
ATOM     16  O   LIG d   1       3.784  90.426 115.163  0.00  0.00    -0.276 OA
ATOM     17  H   LIG d   1       3.227  89.689 118.185  0.00  0.00     0.149 HD
ENDBRANCH   6  13
BRANCH   5  18
ATOM     18  N   LIG d   1       1.193  92.243 118.083  0.00  0.00     0.381 N 
ATOM     19  H   LIG d   1       1.715  92.497 117.268  0.00  0.00    -0.090 HD
ATOM     20  H   LIG d   1       1.790  92.342 118.884  0.00  0.00    -0.090 HD
ATOM     21  H   LIG d   1       0.398  92.836 118.176  0.00  0.00    -0.090 HD
ENDBRANCH   5  18
BRANCH   3  22
ATOM     22  C   LIG d   1      -2.563  89.304 117.634  0.00  0.00     0.382 C 
ATOM     23  O   LIG d   1      -2.887  88.723 118.697  0.00  0.00    -0.241 OA
ATOM     24  O   LIG d   1      -3.445  89.617 116.812  0.00  0.00    -0.241 OA
ENDBRANCH   3  22
TORSDOF 7
ENDMDL
MODEL 3
REMARK VINA RESULT:      -4.4      1.665      4.847
REMARK  7 active torsions:
REMARK  status: ('A' for Active; 'I' for Inactive)
REMARK    1  A    between atoms: C_2  and  C_3 
REMARK    2  A    between atoms: C_3  and  O_6 
REMARK    3  A    between atoms: C_3  and  C_4 
REMARK    4  A    between atoms: C_7  and  O_6 
REMARK    5  A    between atoms: C_9  and  C_10 
REMARK    6  A    between atoms: N_15  and  C_14 
REMARK    7  A    between atoms: N_20  and  C_19 
REMARK       I    between atoms: C_22  and  N_20 
ROOT
ATOM      1  C   LIG d   1       2.070  90.323 116.101  0.00  0.00     0.161 C 
ATOM      2  C   LIG d   1       3.408  90.637 116.394  0.00  0.00     0.016 C 
ATOM      3  C   LIG d   1       3.934  90.652 117.707  0.00  0.00     0.038 C 
ATOM      4  C   LIG d   1       3.191  90.204 118.809  0.00  0.00     0.028 C 
ATOM      5  C   LIG d   1       1.685  90.360 118.627  0.00  0.00    -0.047 C 
ATOM      6  C   LIG d   1       1.274  89.724 117.279  0.00  0.00     0.091 C 
ENDROOT
BRANCH   1   7
ATOM      7  O   LIG d   1       2.014  89.444 114.960  0.00  0.00    -0.368 OA
BRANCH   7   8
ATOM      8  C   LIG d   1       3.125  88.528 114.805  0.00  0.00     0.119 C 
BRANCH   8   9
ATOM      9  C   LIG d   1       3.579  88.596 113.334  0.00  0.00     0.028 C 
ATOM     10  C   LIG d   1       5.041  89.053 113.191  0.00  0.00     0.006 C 
ENDBRANCH   8   9
BRANCH   8  11
ATOM     11  C   LIG d   1       2.687  87.077 115.027  0.00  0.00     0.028 C 
ATOM     12  C   LIG d   1       2.517  86.298 113.714  0.00  0.00     0.006 C 
ENDBRANCH   8  11
ENDBRANCH   7   8
ENDBRANCH   1   7
BRANCH   6  13
ATOM     13  N   LIG d   1      -0.171  89.906 116.984  0.00  0.00    -0.311 N 
ATOM     14  C   LIG d   1      -1.115  89.058 117.389  0.00  0.00     0.210 C 
ATOM     15  C   LIG d   1      -2.540  89.423 116.959  0.00  0.00     0.109 C 
ATOM     16  O   LIG d   1      -0.912  88.056 118.091  0.00  0.00    -0.276 OA
ATOM     17  H   LIG d   1      -0.429  90.710 116.446  0.00  0.00     0.149 HD
ENDBRANCH   6  13
BRANCH   5  18
ATOM     18  N   LIG d   1       1.028  89.729 119.788  0.00  0.00     0.381 N 
ATOM     19  H   LIG d   1       1.274  88.760 119.831  0.00  0.00    -0.090 HD
ATOM     20  H   LIG d   1       0.032  89.797 119.675  0.00  0.00    -0.090 HD
ATOM     21  H   LIG d   1       1.307  90.188 120.628  0.00  0.00    -0.090 HD
ENDBRANCH   5  18
BRANCH   3  22
ATOM     22  C   LIG d   1       5.206  91.157 117.931  0.00  0.00     0.382 C 
ATOM     23  O   LIG d   1       5.359  92.167 118.661  0.00  0.00    -0.241 OA
ATOM     24  O   LIG d   1       6.196  90.644 117.378  0.00  0.00    -0.241 OA
ENDBRANCH   3  22
TORSDOF 7
ENDMDL
MODEL 4
REMARK VINA RESULT:      -4.2      2.036      4.207
REMARK  7 active torsions:
REMARK  status: ('A' for Active; 'I' for Inactive)
REMARK    1  A    between atoms: C_2  and  C_3 
REMARK    2  A    between atoms: C_3  and  O_6 
REMARK    3  A    between atoms: C_3  and  C_4 
REMARK    4  A    between atoms: C_7  and  O_6 
REMARK    5  A    between atoms: C_9  and  C_10 
REMARK    6  A    between atoms: N_15  and  C_14 
REMARK    7  A    between atoms: N_20  and  C_19 
REMARK       I    between atoms: C_22  and  N_20 
ROOT
ATOM      1  C   LIG d   1       1.483  90.101 116.035  0.00  0.00     0.161 C 
ATOM      2  C   LIG d   1       0.339  90.030 116.847  0.00  0.00     0.016 C 
ATOM      3  C   LIG d   1      -0.198  88.815 117.330  0.00  0.00     0.038 C 
ATOM      4  C   LIG d   1       0.464  87.591 117.156  0.00  0.00     0.028 C 
ATOM      5  C   LIG d   1       1.351  87.552 115.916  0.00  0.00    -0.047 C 
ATOM      6  C   LIG d   1       2.283  88.786 115.927  0.00  0.00     0.091 C 
ENDROOT
BRANCH   1   7
ATOM      7  O   LIG d   1       2.338  91.171 116.486  0.00  0.00    -0.368 OA
BRANCH   7   8
ATOM      8  C   LIG d   1       3.180  90.876 117.627  0.00  0.00     0.119 C 
BRANCH   8   9
ATOM      9  C   LIG d   1       2.866  91.919 118.717  0.00  0.00     0.028 C 
ATOM     10  C   LIG d   1       1.992  91.346 119.844  0.00  0.00     0.006 C 
ENDBRANCH   8   9
BRANCH   8  11
ATOM     11  C   LIG d   1       4.661  91.073 117.292  0.00  0.00     0.028 C 
ATOM     12  C   LIG d   1       5.579  90.104 118.055  0.00  0.00     0.006 C 
ENDBRANCH   8  11
ENDBRANCH   7   8
ENDBRANCH   1   7
BRANCH   6  13
ATOM     13  N   LIG d   1       3.125  88.870 114.706  0.00  0.00    -0.311 N 
ATOM     14  C   LIG d   1       4.357  88.368 114.629  0.00  0.00     0.210 C 
ATOM     15  C   LIG d   1       5.059  88.582 113.284  0.00  0.00     0.109 C 
ATOM     16  O   LIG d   1       4.922  87.738 115.535  0.00  0.00    -0.276 OA
ATOM     17  H   LIG d   1       2.733  89.338 113.912  0.00  0.00     0.149 HD
ENDBRANCH   6  13
BRANCH   5  18
ATOM     18  N   LIG d   1       2.085  86.273 115.933  0.00  0.00     0.381 N 
ATOM     19  H   LIG d   1       2.869  86.324 115.313  0.00  0.00    -0.090 HD
ATOM     20  H   LIG d   1       1.475  85.543 115.611  0.00  0.00    -0.090 HD
ATOM     21  H   LIG d   1       2.397  86.071 116.857  0.00  0.00    -0.090 HD
ENDBRANCH   5  18
BRANCH   3  22
ATOM     22  C   LIG d   1      -1.433  88.812 117.961  0.00  0.00     0.382 C 
ATOM     23  O   LIG d   1      -2.481  88.665 117.288  0.00  0.00    -0.241 OA
ATOM     24  O   LIG d   1      -1.514  89.000 119.190  0.00  0.00    -0.241 OA
ENDBRANCH   3  22
TORSDOF 7
ENDMDL
MODEL 5
REMARK VINA RESULT:      -4.0      2.229      4.021
REMARK  7 active torsions:
REMARK  status: ('A' for Active; 'I' for Inactive)
REMARK    1  A    between atoms: C_2  and  C_3 
REMARK    2  A    between atoms: C_3  and  O_6 
REMARK    3  A    between atoms: C_3  and  C_4 
REMARK    4  A    between atoms: C_7  and  O_6 
REMARK    5  A    between atoms: C_9  and  C_10 
REMARK    6  A    between atoms: N_15  and  C_14 
REMARK    7  A    between atoms: N_20  and  C_19 
REMARK       I    between atoms: C_22  and  N_20 
ROOT
ATOM      1  C   LIG d   1       1.299  89.848 116.148  0.00  0.00     0.161 C 
ATOM      2  C   LIG d   1       0.497  90.729 116.893  0.00  0.00     0.016 C 
ATOM      3  C   LIG d   1      -0.228  90.339 118.043  0.00  0.00     0.038 C 
ATOM      4  C   LIG d   1      -0.078  89.068 118.617  0.00  0.00     0.028 C 
ATOM      5  C   LIG d   1       0.327  87.994 117.613  0.00  0.00    -0.047 C 
ATOM      6  C   LIG d   1       1.561  88.486 116.823  0.00  0.00     0.091 C 
ENDROOT
BRANCH   1   7
ATOM      7  O   LIG d   1       2.545  90.488 115.811  0.00  0.00    -0.368 OA
BRANCH   7   8
ATOM      8  C   LIG d   1       3.589  90.419 116.812  0.00  0.00     0.119 C 
BRANCH   8   9
ATOM      9  C   LIG d   1       3.813  91.846 117.349  0.00  0.00     0.028 C 
ATOM     10  C   LIG d   1       3.418  91.985 118.829  0.00  0.00     0.006 C 
ENDBRANCH   8   9
BRANCH   8  11
ATOM     11  C   LIG d   1       4.928  90.004 116.194  0.00  0.00     0.028 C 
ATOM     12  C   LIG d   1       4.794  89.551 114.731  0.00  0.00     0.006 C 
ENDBRANCH   8  11
ENDBRANCH   7   8
ENDBRANCH   1   7
BRANCH   6  13
ATOM     13  N   LIG d   1       1.973  87.530 115.762  0.00  0.00    -0.311 N 
ATOM     14  C   LIG d   1       2.936  86.624 115.924  0.00  0.00     0.210 C 
ATOM     15  C   LIG d   1       3.216  85.751 114.697  0.00  0.00     0.109 C 
ATOM     16  O   LIG d   1       3.563  86.440 116.978  0.00  0.00    -0.276 OA
ATOM     17  H   LIG d   1       1.495  87.589 114.885  0.00  0.00     0.149 HD
ENDBRANCH   6  13
BRANCH   5  18
ATOM     18  N   LIG d   1       0.581  86.752 118.368  0.00  0.00     0.381 N 
ATOM     19  H   LIG d   1       1.559  86.667 118.562  0.00  0.00    -0.090 HD
ATOM     20  H   LIG d   1       0.302  85.967 117.806  0.00  0.00    -0.090 HD
ATOM     21  H   LIG d   1       0.065  86.759 119.220  0.00  0.00    -0.090 HD
ENDBRANCH   5  18
BRANCH   3  22
ATOM     22  C   LIG d   1      -1.144  91.213 118.607  0.00  0.00     0.382 C 
ATOM     23  O   LIG d   1      -1.627  90.970 119.740  0.00  0.00    -0.241 OA
ATOM     24  O   LIG d   1      -1.527  92.219 117.980  0.00  0.00    -0.241 OA
ENDBRANCH   3  22
TORSDOF 7
ENDMDL
MODEL 6
REMARK VINA RESULT:      -4.0      2.168      5.036
REMARK  7 active torsions:
REMARK  status: ('A' for Active; 'I' for Inactive)
REMARK    1  A    between atoms: C_2  and  C_3 
REMARK    2  A    between atoms: C_3  and  O_6 
REMARK    3  A    between atoms: C_3  and  C_4 
REMARK    4  A    between atoms: C_7  and  O_6 
REMARK    5  A    between atoms: C_9  and  C_10 
REMARK    6  A    between atoms: N_15  and  C_14 
REMARK    7  A    between atoms: N_20  and  C_19 
REMARK       I    between atoms: C_22  and  N_20 
ROOT
ATOM      1  C   LIG d   1       2.177  88.251 116.735  0.00  0.00     0.161 C 
ATOM      2  C   LIG d   1       1.727  87.359 115.749  0.00  0.00     0.016 C 
ATOM      3  C   LIG d   1       2.580  86.754 114.798  0.00  0.00     0.038 C 
ATOM      4  C   LIG d   1       3.976  86.885 114.865  0.00  0.00     0.028 C 
ATOM      5  C   LIG d   1       4.431  88.177 115.533  0.00  0.00    -0.047 C 
ATOM      6  C   LIG d   1       3.711  88.320 116.893  0.00  0.00     0.091 C 
ENDROOT
BRANCH   1   7
ATOM      7  O   LIG d   1       1.557  87.938 117.998  0.00  0.00    -0.368 OA
BRANCH   7   8
ATOM      8  C   LIG d   1       0.517  88.846 118.439  0.00  0.00     0.119 C 
BRANCH   8   9
ATOM      9  C   LIG d   1      -0.820  88.084 118.375  0.00  0.00     0.028 C 
ATOM     10  C   LIG d   1      -1.811  88.719 117.385  0.00  0.00     0.006 C 
ENDBRANCH   8   9
BRANCH   8  11
ATOM     11  C   LIG d   1       0.360  90.025 117.474  0.00  0.00     0.028 C 
ATOM     12  C   LIG d   1       0.550  91.386 118.160  0.00  0.00     0.006 C 
ENDBRANCH   8  11
ENDBRANCH   7   8
ENDBRANCH   1   7
BRANCH   6  13
ATOM     13  N   LIG d   1       4.036  89.599 117.576  0.00  0.00    -0.311 N 
ATOM     14  C   LIG d   1       3.912  90.792 116.995  0.00  0.00     0.210 C 
ATOM     15  C   LIG d   1       4.320  91.982 117.869  0.00  0.00     0.109 C 
ATOM     16  O   LIG d   1       3.473  90.979 115.851  0.00  0.00    -0.276 OA
ATOM     17  H   LIG d   1       4.370  89.542 118.518  0.00  0.00     0.149 HD
ENDBRANCH   6  13
BRANCH   5  18
ATOM     18  N   LIG d   1       5.900  88.120 115.660  0.00  0.00     0.381 N 
ATOM     19  H   LIG d   1       6.315  88.855 115.122  0.00  0.00    -0.090 HD
ATOM     20  H   LIG d   1       6.223  87.241 115.296  0.00  0.00    -0.090 HD
ATOM     21  H   LIG d   1       6.163  88.209 116.616  0.00  0.00    -0.090 HD
ENDBRANCH   5  18
BRANCH   3  22
ATOM     22  C   LIG d   1       2.036  86.040 113.741  0.00  0.00     0.382 C 
ATOM     23  O   LIG d   1       2.788  85.431 112.942  0.00  0.00    -0.241 OA
ATOM     24  O   LIG d   1       0.805  86.033 113.551  0.00  0.00    -0.241 OA
ENDBRANCH   3  22
TORSDOF 7
ENDMDL
MODEL 7
REMARK VINA RESULT:      -4.0      4.168      6.698
REMARK  7 active torsions:
REMARK  status: ('A' for Active; 'I' for Inactive)
REMARK    1  A    between atoms: C_2  and  C_3 
REMARK    2  A    between atoms: C_3  and  O_6 
REMARK    3  A    between atoms: C_3  and  C_4 
REMARK    4  A    between atoms: C_7  and  O_6 
REMARK    5  A    between atoms: C_9  and  C_10 
REMARK    6  A    between atoms: N_15  and  C_14 
REMARK    7  A    between atoms: N_20  and  C_19 
REMARK       I    between atoms: C_22  and  N_20 
ROOT
ATOM      1  C   LIG d   1       5.221  89.722 117.111  0.00  0.00     0.161 C 
ATOM      2  C   LIG d   1       4.783  89.951 115.796  0.00  0.00     0.016 C 
ATOM      3  C   LIG d   1       4.900  88.996 114.759  0.00  0.00     0.038 C 
ATOM      4  C   LIG d   1       5.329  87.683 115.006  0.00  0.00     0.028 C 
ATOM      5  C   LIG d   1       6.254  87.564 116.212  0.00  0.00    -0.047 C 
ATOM      6  C   LIG d   1       5.590  88.257 117.424  0.00  0.00     0.091 C 
ENDROOT
BRANCH   1   7
ATOM      7  O   LIG d   1       4.234  90.201 118.045  0.00  0.00    -0.368 OA
BRANCH   7   8
ATOM      8  C   LIG d   1       4.703  91.141 119.043  0.00  0.00     0.119 C 
BRANCH   8   9
ATOM      9  C   LIG d   1       3.660  92.271 119.141  0.00  0.00     0.028 C 
ATOM     10  C   LIG d   1       2.328  91.900 118.467  0.00  0.00     0.006 C 
ENDBRANCH   8   9
BRANCH   8  11
ATOM     11  C   LIG d   1       6.000  91.824 118.598  0.00  0.00     0.028 C 
ATOM     12  C   LIG d   1       6.920  92.180 119.776  0.00  0.00     0.006 C 
ENDBRANCH   8  11
ENDBRANCH   7   8
ENDBRANCH   1   7
BRANCH   6  13
ATOM     13  N   LIG d   1       6.465  88.260 118.625  0.00  0.00    -0.311 N 
ATOM     14  C   LIG d   1       7.773  88.508 118.579  0.00  0.00     0.210 C 
ATOM     15  C   LIG d   1       8.492  88.442 119.930  0.00  0.00     0.109 C 
ATOM     16  O   LIG d   1       8.399  88.810 117.552  0.00  0.00    -0.276 OA
ATOM     17  H   LIG d   1       6.033  88.056 119.505  0.00  0.00     0.149 HD
ENDBRANCH   6  13
BRANCH   5  18
ATOM     18  N   LIG d   1       6.513  86.130 116.436  0.00  0.00     0.381 N 
ATOM     19  H   LIG d   1       6.436  85.920 117.411  0.00  0.00    -0.090 HD
ATOM     20  H   LIG d   1       7.449  85.918 116.140  0.00  0.00    -0.090 HD
ATOM     21  H   LIG d   1       5.861  85.581 115.919  0.00  0.00    -0.090 HD
ENDBRANCH   5  18
BRANCH   3  22
ATOM     22  C   LIG d   1       4.624  89.364 113.452  0.00  0.00     0.382 C 
ATOM     23  O   LIG d   1       3.572  89.994 113.186  0.00  0.00    -0.241 OA
ATOM     24  O   LIG d   1       5.392  89.037 112.527  0.00  0.00    -0.241 OA
ENDBRANCH   3  22
TORSDOF 7
ENDMDL
MODEL 8
REMARK VINA RESULT:      -3.9      2.654      4.313
REMARK  7 active torsions:
REMARK  status: ('A' for Active; 'I' for Inactive)
REMARK    1  A    between atoms: C_2  and  C_3 
REMARK    2  A    between atoms: C_3  and  O_6 
REMARK    3  A    between atoms: C_3  and  C_4 
REMARK    4  A    between atoms: C_7  and  O_6 
REMARK    5  A    between atoms: C_9  and  C_10 
REMARK    6  A    between atoms: N_15  and  C_14 
REMARK    7  A    between atoms: N_20  and  C_19 
REMARK       I    between atoms: C_22  and  N_20 
ROOT
ATOM      1  C   LIG d   1       2.994  89.563 116.710  0.00  0.00     0.161 C 
ATOM      2  C   LIG d   1       2.851  90.659 117.577  0.00  0.00     0.016 C 
ATOM      3  C   LIG d   1       1.613  91.055 118.132  0.00  0.00     0.038 C 
ATOM      4  C   LIG d   1       0.450  90.286 117.976  0.00  0.00     0.028 C 
ATOM      5  C   LIG d   1       0.442  89.454 116.698  0.00  0.00    -0.047 C 
ATOM      6  C   LIG d   1       1.757  88.646 116.617  0.00  0.00     0.091 C 
ENDROOT
BRANCH   1   7
ATOM      7  O   LIG d   1       4.159  88.798 117.078  0.00  0.00    -0.368 OA
BRANCH   7   8
ATOM      8  C   LIG d   1       5.288  88.881 116.174  0.00  0.00     0.119 C 
BRANCH   8   9
ATOM      9  C   LIG d   1       4.808  89.599 114.898  0.00  0.00     0.028 C 
ATOM     10  C   LIG d   1       4.999  88.742 113.636  0.00  0.00     0.006 C 
ENDBRANCH   8   9
BRANCH   8  11
ATOM     11  C   LIG d   1       5.737  87.492 115.713  0.00  0.00     0.028 C 
ATOM     12  C   LIG d   1       7.006  87.006 116.432  0.00  0.00     0.006 C 
ENDBRANCH   8  11
ENDBRANCH   7   8
ENDBRANCH   1   7
BRANCH   6  13
ATOM     13  N   LIG d   1       1.867  87.869 115.355  0.00  0.00    -0.311 N 
ATOM     14  C   LIG d   1       2.143  86.566 115.318  0.00  0.00     0.210 C 
ATOM     15  C   LIG d   1       2.231  85.963 113.913  0.00  0.00     0.109 C 
ATOM     16  O   LIG d   1       2.291  85.846 116.317  0.00  0.00    -0.276 OA
ATOM     17  H   LIG d   1       1.731  88.368 114.498  0.00  0.00     0.149 HD
ENDBRANCH   6  13
BRANCH   5  18
ATOM     18  N   LIG d   1      -0.760  88.599 116.731  0.00  0.00     0.381 N 
ATOM     19  H   LIG d   1      -0.496  87.639 116.635  0.00  0.00    -0.090 HD
ATOM     20  H   LIG d   1      -1.353  88.842 115.957  0.00  0.00    -0.090 HD
ATOM     21  H   LIG d   1      -1.250  88.733 117.588  0.00  0.00    -0.090 HD
ENDBRANCH   5  18
BRANCH   3  22
ATOM     22  C   LIG d   1       1.521  92.256 118.820  0.00  0.00     0.382 C 
ATOM     23  O   LIG d   1       2.465  92.630 119.557  0.00  0.00    -0.241 OA
ATOM     24  O   LIG d   1       0.488  92.948 118.748  0.00  0.00    -0.241 OA
ENDBRANCH   3  22
TORSDOF 7
ENDMDL
MODEL 9
REMARK VINA RESULT:      -3.9      2.262      4.871
REMARK  7 active torsions:
REMARK  status: ('A' for Active; 'I' for Inactive)
REMARK    1  A    between atoms: C_2  and  C_3 
REMARK    2  A    between atoms: C_3  and  O_6 
REMARK    3  A    between atoms: C_3  and  C_4 
REMARK    4  A    between atoms: C_7  and  O_6 
REMARK    5  A    between atoms: C_9  and  C_10 
REMARK    6  A    between atoms: N_15  and  C_14 
REMARK    7  A    between atoms: N_20  and  C_19 
REMARK       I    between atoms: C_22  and  N_20 
ROOT
ATOM      1  C   LIG d   1       0.458  89.572 117.200  0.00  0.00     0.161 C 
ATOM      2  C   LIG d   1       1.077  88.562 116.445  0.00  0.00     0.016 C 
ATOM      3  C   LIG d   1       2.394  88.663 115.941  0.00  0.00     0.038 C 
ATOM      4  C   LIG d   1       3.241  89.726 116.289  0.00  0.00     0.028 C 
ATOM      5  C   LIG d   1       2.493  91.009 116.632  0.00  0.00    -0.047 C 
ATOM      6  C   LIG d   1       1.405  90.690 117.683  0.00  0.00     0.091 C 
ENDROOT
BRANCH   1   7
ATOM      7  O   LIG d   1      -0.240  88.988 118.318  0.00  0.00    -0.368 OA
BRANCH   7   8
ATOM      8  C   LIG d   1       0.270  87.718 118.794  0.00  0.00     0.119 C 
BRANCH   8   9
ATOM      9  C   LIG d   1      -0.910  86.953 119.425  0.00  0.00     0.028 C 
ATOM     10  C   LIG d   1      -2.163  87.832 119.580  0.00  0.00     0.006 C 
ENDBRANCH   8   9
BRANCH   8  11
ATOM     11  C   LIG d   1       1.279  87.913 119.929  0.00  0.00     0.028 C 
ATOM     12  C   LIG d   1       2.676  87.374 119.584  0.00  0.00     0.006 C 
ENDBRANCH   8  11
ENDBRANCH   7   8
ENDBRANCH   1   7
BRANCH   6  13
ATOM     13  N   LIG d   1       0.570  91.875 118.012  0.00  0.00    -0.311 N 
ATOM     14  C   LIG d   1       0.841  92.706 119.017  0.00  0.00     0.210 C 
ATOM     15  C   LIG d   1      -0.159  93.853 119.195  0.00  0.00     0.109 C 
ATOM     16  O   LIG d   1       1.833  92.622 119.756  0.00  0.00    -0.276 OA
ATOM     17  H   LIG d   1      -0.237  92.036 117.443  0.00  0.00     0.149 HD
ENDBRANCH   6  13
BRANCH   5  18
ATOM     18  N   LIG d   1       3.486  91.991 117.108  0.00  0.00     0.381 N 
ATOM     19  H   LIG d   1       3.816  92.539 116.339  0.00  0.00    -0.090 HD
ATOM     20  H   LIG d   1       4.267  91.497 117.502  0.00  0.00    -0.090 HD
ATOM     21  H   LIG d   1       3.077  92.584 117.796  0.00  0.00    -0.090 HD
ENDBRANCH   5  18
BRANCH   3  22
ATOM     22  C   LIG d   1       2.863  87.713 115.047  0.00  0.00     0.382 C 
ATOM     23  O   LIG d   1       2.756  87.907 113.812  0.00  0.00    -0.241 OA
ATOM     24  O   LIG d   1       3.352  86.644 115.459  0.00  0.00    -0.241 OA
ENDBRANCH   3  22
TORSDOF 7
ENDMDL
