MODEL 1
REMARK VINA RESULT:      -5.3      0.000      0.000
REMARK  7 active torsions:
REMARK  status: ('A' for Active; 'I' for Inactive)
REMARK    1  A    between atoms: C_2  and  C_3 
REMARK    2  A    between atoms: C_3  and  O_6 
REMARK    3  A    between atoms: C_3  and  C_4 
REMARK    4  A    between atoms: C_7  and  O_6 
REMARK    5  A    between atoms: C_9  and  C_10 
REMARK    6  A    between atoms: N_15  and  C_14 
REMARK    7  A    between atoms: N_20  and  C_19 
REMARK       I    between atoms: C_22  and  N_20 
ROOT
ATOM      1  C   LIG d   1       3.477  89.471 116.024  0.00  0.00     0.161 C 
ATOM      2  C   LIG d   1       2.519  88.832 115.220  0.00  0.00     0.016 C 
ATOM      3  C   LIG d   1       2.714  88.558 113.846  0.00  0.00     0.038 C 
ATOM      4  C   LIG d   1       3.949  88.769 113.216  0.00  0.00     0.028 C 
ATOM      5  C   LIG d   1       4.777  89.875 113.862  0.00  0.00    -0.047 C 
ATOM      6  C   LIG d   1       4.873  89.608 115.382  0.00  0.00     0.091 C 
ENDROOT
BRANCH   1   7
ATOM      7  O   LIG d   1       3.574  88.797 117.295  0.00  0.00    -0.368 OA
BRANCH   7   8
ATOM      8  C   LIG d   1       3.043  89.512 118.437  0.00  0.00     0.119 C 
BRANCH   8   9
ATOM      9  C   LIG d   1       1.705  88.849 118.817  0.00  0.00     0.028 C 
ATOM     10  C   LIG d   1       0.496  89.749 118.512  0.00  0.00     0.006 C 
ENDBRANCH   8   9
BRANCH   8  11
ATOM     11  C   LIG d   1       2.690  90.958 118.075  0.00  0.00     0.028 C 
ATOM     12  C   LIG d   1       3.500  91.988 118.878  0.00  0.00     0.006 C 
ENDBRANCH   8  11
ENDBRANCH   7   8
ENDBRANCH   1   7
BRANCH   6  13
ATOM     13  N   LIG d   1       5.595  90.688 116.102  0.00  0.00    -0.311 N 
ATOM     14  C   LIG d   1       6.540  90.458 117.012  0.00  0.00     0.210 C 
ATOM     15  C   LIG d   1       7.144  91.713 117.650  0.00  0.00     0.109 C 
ATOM     16  O   LIG d   1       6.958  89.334 117.329  0.00  0.00    -0.276 OA
ATOM     17  H   LIG d   1       5.341  91.632 115.884  0.00  0.00     0.149 HD
ENDBRANCH   6  13
BRANCH   5  18
ATOM     18  N   LIG d   1       6.092  89.895 113.194  0.00  0.00     0.381 N 
ATOM     19  H   LIG d   1       6.450  90.829 113.178  0.00  0.00    -0.090 HD
ATOM     20  H   LIG d   1       5.980  89.584 112.246  0.00  0.00    -0.090 HD
ATOM     21  H   LIG d   1       6.728  89.297 113.675  0.00  0.00    -0.090 HD
ENDBRANCH   5  18
BRANCH   3  22
ATOM     22  C   LIG d   1       1.653  88.103 113.079  0.00  0.00     0.382 C 
ATOM     23  O   LIG d   1       0.663  88.846 112.874  0.00  0.00    -0.241 OA
ATOM     24  O   LIG d   1       1.653  86.943 112.625  0.00  0.00    -0.241 OA
ENDBRANCH   3  22
TORSDOF 7
ENDMDL
MODEL 2
REMARK VINA RESULT:      -5.3      1.360      2.242
REMARK  7 active torsions:
REMARK  status: ('A' for Active; 'I' for Inactive)
REMARK    1  A    between atoms: C_2  and  C_3 
REMARK    2  A    between atoms: C_3  and  O_6 
REMARK    3  A    between atoms: C_3  and  C_4 
REMARK    4  A    between atoms: C_7  and  O_6 
REMARK    5  A    between atoms: C_9  and  C_10 
REMARK    6  A    between atoms: N_15  and  C_14 
REMARK    7  A    between atoms: N_20  and  C_19 
REMARK       I    between atoms: C_22  and  N_20 
ROOT
ATOM      1  C   LIG d   1       3.456  89.448 115.991  0.00  0.00     0.161 C 
ATOM      2  C   LIG d   1       2.512  88.801 115.176  0.00  0.00     0.016 C 
ATOM      3  C   LIG d   1       2.720  88.538 113.802  0.00  0.00     0.038 C 
ATOM      4  C   LIG d   1       3.956  88.772 113.182  0.00  0.00     0.028 C 
ATOM      5  C   LIG d   1       4.763  89.886 113.839  0.00  0.00    -0.047 C 
ATOM      6  C   LIG d   1       4.854  89.611 115.358  0.00  0.00     0.091 C 
ENDROOT
BRANCH   1   7
ATOM      7  O   LIG d   1       3.556  88.769 117.258  0.00  0.00    -0.368 OA
BRANCH   7   8
ATOM      8  C   LIG d   1       3.202  87.364 117.257  0.00  0.00     0.119 C 
BRANCH   8   9
ATOM      9  C   LIG d   1       2.677  87.018 118.664  0.00  0.00     0.028 C 
ATOM     10  C   LIG d   1       1.670  88.056 119.186  0.00  0.00     0.006 C 
ENDBRANCH   8   9
BRANCH   8  11
ATOM     11  C   LIG d   1       4.436  86.479 117.056  0.00  0.00     0.028 C 
ATOM     12  C   LIG d   1       4.265  85.469 115.910  0.00  0.00     0.006 C 
ENDBRANCH   8  11
ENDBRANCH   7   8
ENDBRANCH   1   7
BRANCH   6  13
ATOM     13  N   LIG d   1       5.555  90.697 116.090  0.00  0.00    -0.311 N 
ATOM     14  C   LIG d   1       6.546  90.479 116.953  0.00  0.00     0.210 C 
ATOM     15  C   LIG d   1       7.118  91.738 117.613  0.00  0.00     0.109 C 
ATOM     16  O   LIG d   1       7.027  89.365 117.210  0.00  0.00    -0.276 OA
ATOM     17  H   LIG d   1       5.249  91.635 115.917  0.00  0.00     0.149 HD
ENDBRANCH   6  13
BRANCH   5  18
ATOM     18  N   LIG d   1       6.082  89.930 113.180  0.00  0.00     0.381 N 
ATOM     19  H   LIG d   1       6.782  90.200 113.841  0.00  0.00    -0.090 HD
ATOM     20  H   LIG d   1       6.057  90.618 112.448  0.00  0.00    -0.090 HD
ATOM     21  H   LIG d   1       6.302  89.037 112.798  0.00  0.00    -0.090 HD
ENDBRANCH   5  18
BRANCH   3  22
ATOM     22  C   LIG d   1       1.670  88.072 113.026  0.00  0.00     0.382 C 
ATOM     23  O   LIG d   1       1.735  86.933 112.503  0.00  0.00    -0.241 OA
ATOM     24  O   LIG d   1       0.680  88.793 112.804  0.00  0.00    -0.241 OA
ENDBRANCH   3  22
TORSDOF 7
ENDMDL
MODEL 3
REMARK VINA RESULT:      -5.1      0.551      1.684
REMARK  7 active torsions:
REMARK  status: ('A' for Active; 'I' for Inactive)
REMARK    1  A    between atoms: C_2  and  C_3 
REMARK    2  A    between atoms: C_3  and  O_6 
REMARK    3  A    between atoms: C_3  and  C_4 
REMARK    4  A    between atoms: C_7  and  O_6 
REMARK    5  A    between atoms: C_9  and  C_10 
REMARK    6  A    between atoms: N_15  and  C_14 
REMARK    7  A    between atoms: N_20  and  C_19 
REMARK       I    between atoms: C_22  and  N_20 
ROOT
ATOM      1  C   LIG d   1       3.410  89.430 116.019  0.00  0.00     0.161 C 
ATOM      2  C   LIG d   1       2.479  88.771 115.198  0.00  0.00     0.016 C 
ATOM      3  C   LIG d   1       2.702  88.505 113.828  0.00  0.00     0.038 C 
ATOM      4  C   LIG d   1       3.941  88.748 113.216  0.00  0.00     0.028 C 
ATOM      5  C   LIG d   1       4.731  89.872 113.877  0.00  0.00    -0.047 C 
ATOM      6  C   LIG d   1       4.812  89.604 115.397  0.00  0.00     0.091 C 
ENDROOT
BRANCH   1   7
ATOM      7  O   LIG d   1       3.505  88.756 117.289  0.00  0.00    -0.368 OA
BRANCH   7   8
ATOM      8  C   LIG d   1       2.830  89.394 118.401  0.00  0.00     0.119 C 
BRANCH   8   9
ATOM      9  C   LIG d   1       3.888  89.673 119.486  0.00  0.00     0.028 C 
ATOM     10  C   LIG d   1       3.995  91.168 119.831  0.00  0.00     0.006 C 
ENDBRANCH   8   9
BRANCH   8  11
ATOM     11  C   LIG d   1       1.818  88.448 119.055  0.00  0.00     0.028 C 
ATOM     12  C   LIG d   1       0.513  89.156 119.454  0.00  0.00     0.006 C 
ENDBRANCH   8  11
ENDBRANCH   7   8
ENDBRANCH   1   7
BRANCH   6  13
ATOM     13  N   LIG d   1       5.497  90.699 116.131  0.00  0.00    -0.311 N 
ATOM     14  C   LIG d   1       6.531  90.501 116.946  0.00  0.00     0.210 C 
ATOM     15  C   LIG d   1       7.076  91.765 117.619  0.00  0.00     0.109 C 
ATOM     16  O   LIG d   1       7.069  89.402 117.152  0.00  0.00    -0.276 OA
ATOM     17  H   LIG d   1       5.145  91.627 115.998  0.00  0.00     0.149 HD
ENDBRANCH   6  13
BRANCH   5  18
ATOM     18  N   LIG d   1       6.055  89.926 113.229  0.00  0.00     0.381 N 
ATOM     19  H   LIG d   1       6.770  89.726 113.900  0.00  0.00    -0.090 HD
ATOM     20  H   LIG d   1       6.207  90.854 112.874  0.00  0.00    -0.090 HD
ATOM     21  H   LIG d   1       6.097  89.267 112.482  0.00  0.00    -0.090 HD
ENDBRANCH   5  18
BRANCH   3  22
ATOM     22  C   LIG d   1       1.663  88.026 113.043  0.00  0.00     0.382 C 
ATOM     23  O   LIG d   1       1.729  86.874 112.551  0.00  0.00    -0.241 OA
ATOM     24  O   LIG d   1       0.681  88.748 112.786  0.00  0.00    -0.241 OA
ENDBRANCH   3  22
TORSDOF 7
ENDMDL
MODEL 4
REMARK VINA RESULT:      -4.8      1.579      2.181
REMARK  7 active torsions:
REMARK  status: ('A' for Active; 'I' for Inactive)
REMARK    1  A    between atoms: C_2  and  C_3 
REMARK    2  A    between atoms: C_3  and  O_6 
REMARK    3  A    between atoms: C_3  and  C_4 
REMARK    4  A    between atoms: C_7  and  O_6 
REMARK    5  A    between atoms: C_9  and  C_10 
REMARK    6  A    between atoms: N_15  and  C_14 
REMARK    7  A    between atoms: N_20  and  C_19 
REMARK       I    between atoms: C_22  and  N_20 
ROOT
ATOM      1  C   LIG d   1       2.357  90.881 116.570  0.00  0.00     0.161 C 
ATOM      2  C   LIG d   1       1.776  89.953 115.689  0.00  0.00     0.016 C 
ATOM      3  C   LIG d   1       2.527  89.129 114.821  0.00  0.00     0.038 C 
ATOM      4  C   LIG d   1       3.927  89.069 114.882  0.00  0.00     0.028 C 
ATOM      5  C   LIG d   1       4.567  90.352 115.401  0.00  0.00    -0.047 C 
ATOM      6  C   LIG d   1       3.886  90.750 116.731  0.00  0.00     0.091 C 
ENDROOT
BRANCH   1   7
ATOM      7  O   LIG d   1       1.709  90.805 117.856  0.00  0.00    -0.368 OA
BRANCH   7   8
ATOM      8  C   LIG d   1       1.033  89.560 118.157  0.00  0.00     0.119 C 
BRANCH   8   9
ATOM      9  C   LIG d   1      -0.282  89.910 118.880  0.00  0.00     0.028 C 
ATOM     10  C   LIG d   1      -1.367  90.415 117.913  0.00  0.00     0.006 C 
ENDBRANCH   8   9
BRANCH   8  11
ATOM     11  C   LIG d   1       1.833  88.718 119.155  0.00  0.00     0.028 C 
ATOM     12  C   LIG d   1       2.645  87.603 118.478  0.00  0.00     0.006 C 
ENDBRANCH   8  11
ENDBRANCH   7   8
ENDBRANCH   1   7
BRANCH   6  13
ATOM     13  N   LIG d   1       4.394  92.041 117.264  0.00  0.00    -0.311 N 
ATOM     14  C   LIG d   1       5.363  92.127 118.173  0.00  0.00     0.210 C 
ATOM     15  C   LIG d   1       5.722  93.554 118.601  0.00  0.00     0.109 C 
ATOM     16  O   LIG d   1       5.982  91.160 118.642  0.00  0.00    -0.276 OA
ATOM     17  H   LIG d   1       3.969  92.877 116.915  0.00  0.00     0.149 HD
ENDBRANCH   6  13
BRANCH   5  18
ATOM     18  N   LIG d   1       6.013  90.103 115.544  0.00  0.00     0.381 N 
ATOM     19  H   LIG d   1       6.177  89.495 116.322  0.00  0.00    -0.090 HD
ATOM     20  H   LIG d   1       6.477  90.976 115.723  0.00  0.00    -0.090 HD
ATOM     21  H   LIG d   1       6.373  89.693 114.711  0.00  0.00    -0.090 HD
ENDBRANCH   5  18
BRANCH   3  22
ATOM     22  C   LIG d   1       1.878  88.382 113.849  0.00  0.00     0.382 C 
ATOM     23  O   LIG d   1       0.946  88.894 113.184  0.00  0.00    -0.241 OA
ATOM     24  O   LIG d   1       2.183  87.189 113.660  0.00  0.00    -0.241 OA
ENDBRANCH   3  22
TORSDOF 7
ENDMDL
MODEL 5
REMARK VINA RESULT:      -4.8      1.675      2.531
REMARK  7 active torsions:
REMARK  status: ('A' for Active; 'I' for Inactive)
REMARK    1  A    between atoms: C_2  and  C_3 
REMARK    2  A    between atoms: C_3  and  O_6 
REMARK    3  A    between atoms: C_3  and  C_4 
REMARK    4  A    between atoms: C_7  and  O_6 
REMARK    5  A    between atoms: C_9  and  C_10 
REMARK    6  A    between atoms: N_15  and  C_14 
REMARK    7  A    between atoms: N_20  and  C_19 
REMARK       I    between atoms: C_22  and  N_20 
ROOT
ATOM      1  C   LIG d   1       2.288  90.528 116.478  0.00  0.00     0.161 C 
ATOM      2  C   LIG d   1       1.719  89.624 115.565  0.00  0.00     0.016 C 
ATOM      3  C   LIG d   1       2.468  88.931 114.587  0.00  0.00     0.038 C 
ATOM      4  C   LIG d   1       3.870  88.981 114.554  0.00  0.00     0.028 C 
ATOM      5  C   LIG d   1       4.444  90.270 115.132  0.00  0.00    -0.047 C 
ATOM      6  C   LIG d   1       3.830  90.510 116.530  0.00  0.00     0.091 C 
ENDROOT
BRANCH   1   7
ATOM      7  O   LIG d   1       1.740  90.304 117.793  0.00  0.00    -0.368 OA
BRANCH   7   8
ATOM      8  C   LIG d   1       0.623  91.146 118.169  0.00  0.00     0.119 C 
BRANCH   8   9
ATOM      9  C   LIG d   1       1.122  92.118 119.256  0.00  0.00     0.028 C 
ATOM     10  C   LIG d   1       1.451  93.511 118.692  0.00  0.00     0.006 C 
ENDBRANCH   8   9
BRANCH   8  11
ATOM     11  C   LIG d   1      -0.490  90.331 118.834  0.00  0.00     0.028 C 
ATOM     12  C   LIG d   1      -1.815  90.385 118.055  0.00  0.00     0.006 C 
ENDBRANCH   8  11
ENDBRANCH   7   8
ENDBRANCH   1   7
BRANCH   6  13
ATOM     13  N   LIG d   1       4.274  91.795 117.131  0.00  0.00    -0.311 N 
ATOM     14  C   LIG d   1       5.279  91.888 118.001  0.00  0.00     0.210 C 
ATOM     15  C   LIG d   1       5.560  93.304 118.513  0.00  0.00     0.109 C 
ATOM     16  O   LIG d   1       5.984  90.938 118.371  0.00  0.00    -0.276 OA
ATOM     17  H   LIG d   1       3.777  92.621 116.862  0.00  0.00     0.149 HD
ENDBRANCH   6  13
BRANCH   5  18
ATOM     18  N   LIG d   1       5.912  90.129 115.162  0.00  0.00     0.381 N 
ATOM     19  H   LIG d   1       6.305  90.499 114.319  0.00  0.00    -0.090 HD
ATOM     20  H   LIG d   1       6.144  89.153 115.216  0.00  0.00    -0.090 HD
ATOM     21  H   LIG d   1       6.285  90.611 115.950  0.00  0.00    -0.090 HD
ENDBRANCH   5  18
BRANCH   3  22
ATOM     22  C   LIG d   1       1.811  88.209 113.603  0.00  0.00     0.382 C 
ATOM     23  O   LIG d   1       2.198  87.051 113.311  0.00  0.00    -0.241 OA
ATOM     24  O   LIG d   1       0.865  88.716 112.972  0.00  0.00    -0.241 OA
ENDBRANCH   3  22
TORSDOF 7
ENDMDL
MODEL 6
REMARK VINA RESULT:      -4.6      1.708      4.982
REMARK  7 active torsions:
REMARK  status: ('A' for Active; 'I' for Inactive)
REMARK    1  A    between atoms: C_2  and  C_3 
REMARK    2  A    between atoms: C_3  and  O_6 
REMARK    3  A    between atoms: C_3  and  C_4 
REMARK    4  A    between atoms: C_7  and  O_6 
REMARK    5  A    between atoms: C_9  and  C_10 
REMARK    6  A    between atoms: N_15  and  C_14 
REMARK    7  A    between atoms: N_20  and  C_19 
REMARK       I    between atoms: C_22  and  N_20 
ROOT
ATOM      1  C   LIG d   1       3.999  89.081 116.811  0.00  0.00     0.161 C 
ATOM      2  C   LIG d   1       4.849  89.818 117.653  0.00  0.00     0.016 C 
ATOM      3  C   LIG d   1       5.968  90.545 117.185  0.00  0.00     0.038 C 
ATOM      4  C   LIG d   1       6.227  90.707 115.816  0.00  0.00     0.028 C 
ATOM      5  C   LIG d   1       5.690  89.567 114.958  0.00  0.00    -0.047 C 
ATOM      6  C   LIG d   1       4.201  89.338 115.303  0.00  0.00     0.091 C 
ENDROOT
BRANCH   1   7
ATOM      7  O   LIG d   1       2.625  89.314 117.179  0.00  0.00    -0.368 OA
BRANCH   7   8
ATOM      8  C   LIG d   1       1.977  90.443 116.543  0.00  0.00     0.119 C 
BRANCH   8   9
ATOM      9  C   LIG d   1       1.805  91.540 117.611  0.00  0.00     0.028 C 
ATOM     10  C   LIG d   1       2.831  92.675 117.457  0.00  0.00     0.006 C 
ENDBRANCH   8   9
BRANCH   8  11
ATOM     11  C   LIG d   1       0.557  90.089 116.093  0.00  0.00     0.028 C 
ATOM     12  C   LIG d   1      -0.496  90.353 117.181  0.00  0.00     0.006 C 
ENDBRANCH   8  11
ENDBRANCH   7   8
ENDBRANCH   1   7
BRANCH   6  13
ATOM     13  N   LIG d   1       3.620  88.183 114.569  0.00  0.00    -0.311 N 
ATOM     14  C   LIG d   1       3.017  88.295 113.387  0.00  0.00     0.210 C 
ATOM     15  C   LIG d   1       2.471  86.983 112.813  0.00  0.00     0.109 C 
ATOM     16  O   LIG d   1       2.910  89.350 112.744  0.00  0.00    -0.276 OA
ATOM     17  H   LIG d   1       3.690  87.284 115.004  0.00  0.00     0.149 HD
ENDBRANCH   6  13
BRANCH   5  18
ATOM     18  N   LIG d   1       5.907  89.931 113.545  0.00  0.00     0.381 N 
ATOM     19  H   LIG d   1       6.468  90.758 113.491  0.00  0.00    -0.090 HD
ATOM     20  H   LIG d   1       5.018  90.124 113.119  0.00  0.00    -0.090 HD
ATOM     21  H   LIG d   1       6.359  89.183 113.066  0.00  0.00    -0.090 HD
ENDBRANCH   5  18
BRANCH   3  22
ATOM     22  C   LIG d   1       6.865  91.085 118.094  0.00  0.00     0.382 C 
ATOM     23  O   LIG d   1       7.753  91.880 117.702  0.00  0.00    -0.241 OA
ATOM     24  O   LIG d   1       6.827  90.752 119.294  0.00  0.00    -0.241 OA
ENDBRANCH   3  22
TORSDOF 7
ENDMDL
MODEL 7
REMARK VINA RESULT:      -4.5      2.361      5.081
REMARK  7 active torsions:
REMARK  status: ('A' for Active; 'I' for Inactive)
REMARK    1  A    between atoms: C_2  and  C_3 
REMARK    2  A    between atoms: C_3  and  O_6 
REMARK    3  A    between atoms: C_3  and  C_4 
REMARK    4  A    between atoms: C_7  and  O_6 
REMARK    5  A    between atoms: C_9  and  C_10 
REMARK    6  A    between atoms: N_15  and  C_14 
REMARK    7  A    between atoms: N_20  and  C_19 
REMARK       I    between atoms: C_22  and  N_20 
ROOT
ATOM      1  C   LIG d   1       2.861  90.253 116.397  0.00  0.00     0.161 C 
ATOM      2  C   LIG d   1       1.649  90.906 116.676  0.00  0.00     0.016 C 
ATOM      3  C   LIG d   1       1.501  91.868 117.702  0.00  0.00     0.038 C 
ATOM      4  C   LIG d   1       2.600  92.355 118.426  0.00  0.00     0.028 C 
ATOM      5  C   LIG d   1       3.751  91.360 118.521  0.00  0.00    -0.047 C 
ATOM      6  C   LIG d   1       4.096  90.853 117.102  0.00  0.00     0.091 C 
ENDROOT
BRANCH   1   7
ATOM      7  O   LIG d   1       3.072  90.203 114.972  0.00  0.00    -0.368 OA
BRANCH   7   8
ATOM      8  C   LIG d   1       3.123  88.882 114.381  0.00  0.00     0.119 C 
BRANCH   8   9
ATOM      9  C   LIG d   1       4.050  88.959 113.153  0.00  0.00     0.028 C 
ATOM     10  C   LIG d   1       5.376  89.675 113.462  0.00  0.00     0.006 C 
ENDBRANCH   8   9
BRANCH   8  11
ATOM     11  C   LIG d   1       1.756  88.465 113.832  0.00  0.00     0.028 C 
ATOM     12  C   LIG d   1       1.851  87.762 112.468  0.00  0.00     0.006 C 
ENDBRANCH   8  11
ENDBRANCH   7   8
ENDBRANCH   1   7
BRANCH   6  13
ATOM     13  N   LIG d   1       5.156  89.812 117.114  0.00  0.00    -0.311 N 
ATOM     14  C   LIG d   1       6.449  90.081 116.939  0.00  0.00     0.210 C 
ATOM     15  C   LIG d   1       7.373  88.859 116.967  0.00  0.00     0.109 C 
ATOM     16  O   LIG d   1       6.922  91.218 116.795  0.00  0.00    -0.276 OA
ATOM     17  H   LIG d   1       4.864  88.865 117.256  0.00  0.00     0.149 HD
ENDBRANCH   6  13
BRANCH   5  18
ATOM     18  N   LIG d   1       4.879  92.046 119.180  0.00  0.00     0.381 N 
ATOM     19  H   LIG d   1       5.297  92.697 118.545  0.00  0.00    -0.090 HD
ATOM     20  H   LIG d   1       5.572  91.363 119.432  0.00  0.00    -0.090 HD
ATOM     21  H   LIG d   1       4.560  92.523 119.994  0.00  0.00    -0.090 HD
ENDBRANCH   5  18
BRANCH   3  22
ATOM     22  C   LIG d   1       0.236  92.323 118.041  0.00  0.00     0.382 C 
ATOM     23  O   LIG d   1       0.096  93.154 118.970  0.00  0.00    -0.241 OA
ATOM     24  O   LIG d   1      -0.772  91.879 117.458  0.00  0.00    -0.241 OA
ENDBRANCH   3  22
TORSDOF 7
ENDMDL
MODEL 8
REMARK VINA RESULT:      -4.5      3.431      5.414
REMARK  7 active torsions:
REMARK  status: ('A' for Active; 'I' for Inactive)
REMARK    1  A    between atoms: C_2  and  C_3 
REMARK    2  A    between atoms: C_3  and  O_6 
REMARK    3  A    between atoms: C_3  and  C_4 
REMARK    4  A    between atoms: C_7  and  O_6 
REMARK    5  A    between atoms: C_9  and  C_10 
REMARK    6  A    between atoms: N_15  and  C_14 
REMARK    7  A    between atoms: N_20  and  C_19 
REMARK       I    between atoms: C_22  and  N_20 
ROOT
ATOM      1  C   LIG d   1       1.192  90.626 118.383  0.00  0.00     0.161 C 
ATOM      2  C   LIG d   1      -0.164  90.288 118.236  0.00  0.00     0.016 C 
ATOM      3  C   LIG d   1      -1.201  91.246 118.162  0.00  0.00     0.038 C 
ATOM      4  C   LIG d   1      -0.936  92.621 118.077  0.00  0.00     0.028 C 
ATOM      5  C   LIG d   1       0.382  93.025 118.730  0.00  0.00    -0.047 C 
ATOM      6  C   LIG d   1       1.510  92.123 118.181  0.00  0.00     0.091 C 
ENDROOT
BRANCH   1   7
ATOM      7  O   LIG d   1       1.995  89.819 117.500  0.00  0.00    -0.368 OA
BRANCH   7   8
ATOM      8  C   LIG d   1       2.167  90.326 116.153  0.00  0.00     0.119 C 
BRANCH   8   9
ATOM      9  C   LIG d   1       1.298  89.462 115.219  0.00  0.00     0.028 C 
ATOM     10  C   LIG d   1       2.140  88.566 114.295  0.00  0.00     0.006 C 
ENDBRANCH   8   9
BRANCH   8  11
ATOM     11  C   LIG d   1       3.605  90.131 115.663  0.00  0.00     0.028 C 
ATOM     12  C   LIG d   1       4.567  89.717 116.789  0.00  0.00     0.006 C 
ENDBRANCH   8  11
ENDBRANCH   7   8
ENDBRANCH   1   7
BRANCH   6  13
ATOM     13  N   LIG d   1       2.820  92.395 118.829  0.00  0.00    -0.311 N 
ATOM     14  C   LIG d   1       3.845  92.965 118.199  0.00  0.00     0.210 C 
ATOM     15  C   LIG d   1       5.110  93.137 119.047  0.00  0.00     0.109 C 
ATOM     16  O   LIG d   1       3.817  93.375 117.029  0.00  0.00    -0.276 OA
ATOM     17  H   LIG d   1       2.919  92.123 119.788  0.00  0.00     0.149 HD
ENDBRANCH   6  13
BRANCH   5  18
ATOM     18  N   LIG d   1       0.597  94.457 118.448  0.00  0.00     0.381 N 
ATOM     19  H   LIG d   1      -0.184  94.824 117.943  0.00  0.00    -0.090 HD
ATOM     20  H   LIG d   1       1.418  94.556 117.876  0.00  0.00    -0.090 HD
ATOM     21  H   LIG d   1       0.716  94.958 119.301  0.00  0.00    -0.090 HD
ENDBRANCH   5  18
BRANCH   3  22
ATOM     22  C   LIG d   1      -2.524  90.832 118.212  0.00  0.00     0.382 C 
ATOM     23  O   LIG d   1      -3.447  91.661 118.032  0.00  0.00    -0.241 OA
ATOM     24  O   LIG d   1      -2.805  89.648 118.478  0.00  0.00    -0.241 OA
ENDBRANCH   3  22
TORSDOF 7
ENDMDL
MODEL 9
REMARK VINA RESULT:      -4.5      2.159      4.273
REMARK  7 active torsions:
REMARK  status: ('A' for Active; 'I' for Inactive)
REMARK    1  A    between atoms: C_2  and  C_3 
REMARK    2  A    between atoms: C_3  and  O_6 
REMARK    3  A    between atoms: C_3  and  C_4 
REMARK    4  A    between atoms: C_7  and  O_6 
REMARK    5  A    between atoms: C_9  and  C_10 
REMARK    6  A    between atoms: N_15  and  C_14 
REMARK    7  A    between atoms: N_20  and  C_19 
REMARK       I    between atoms: C_22  and  N_20 
ROOT
ATOM      1  C   LIG d   1       3.769  89.070 116.648  0.00  0.00     0.161 C 
ATOM      2  C   LIG d   1       2.413  89.337 116.392  0.00  0.00     0.016 C 
ATOM      3  C   LIG d   1       1.799  90.579 116.672  0.00  0.00     0.038 C 
ATOM      4  C   LIG d   1       2.539  91.695 117.090  0.00  0.00     0.028 C 
ATOM      5  C   LIG d   1       3.815  91.329 117.841  0.00  0.00    -0.047 C 
ATOM      6  C   LIG d   1       4.617  90.310 117.000  0.00  0.00     0.091 C 
ENDROOT
BRANCH   1   7
ATOM      7  O   LIG d   1       4.348  88.368 115.530  0.00  0.00    -0.368 OA
BRANCH   7   8
ATOM      8  C   LIG d   1       3.516  88.254 114.349  0.00  0.00     0.119 C 
BRANCH   8   9
ATOM      9  C   LIG d   1       3.475  86.765 113.953  0.00  0.00     0.028 C 
ATOM     10  C   LIG d   1       3.543  86.560 112.431  0.00  0.00     0.006 C 
ENDBRANCH   8   9
BRANCH   8  11
ATOM     11  C   LIG d   1       4.145  88.974 113.153  0.00  0.00     0.028 C 
ATOM     12  C   LIG d   1       5.440  89.717 113.518  0.00  0.00     0.006 C 
ENDBRANCH   8  11
ENDBRANCH   7   8
ENDBRANCH   1   7
BRANCH   6  13
ATOM     13  N   LIG d   1       5.839  89.835 117.699  0.00  0.00    -0.311 N 
ATOM     14  C   LIG d   1       7.036  90.400 117.549  0.00  0.00     0.210 C 
ATOM     15  C   LIG d   1       8.166  89.742 118.346  0.00  0.00     0.109 C 
ATOM     16  O   LIG d   1       7.262  91.404 116.856  0.00  0.00    -0.276 OA
ATOM     17  H   LIG d   1       5.740  89.045 118.305  0.00  0.00     0.149 HD
ENDBRANCH   6  13
BRANCH   5  18
ATOM     18  N   LIG d   1       4.556  92.579 118.096  0.00  0.00     0.381 N 
ATOM     19  H   LIG d   1       4.460  93.195 117.314  0.00  0.00    -0.090 HD
ATOM     20  H   LIG d   1       5.530  92.362 118.209  0.00  0.00    -0.090 HD
ATOM     21  H   LIG d   1       4.208  93.019 118.919  0.00  0.00    -0.090 HD
ENDBRANCH   5  18
BRANCH   3  22
ATOM     22  C   LIG d   1       0.421  90.702 116.573  0.00  0.00     0.382 C 
ATOM     23  O   LIG d   1      -0.222  89.947 115.804  0.00  0.00    -0.241 OA
ATOM     24  O   LIG d   1      -0.182  91.587 117.209  0.00  0.00    -0.241 OA
ENDBRANCH   3  22
TORSDOF 7
ENDMDL
