MODEL 1
REMARK VINA RESULT:      -5.3      0.000      0.000
REMARK  7 active torsions:
REMARK  status: ('A' for Active; 'I' for Inactive)
REMARK    1  A    between atoms: C_2  and  C_3 
REMARK    2  A    between atoms: C_3  and  O_6 
REMARK    3  A    between atoms: C_3  and  C_4 
REMARK    4  A    between atoms: C_7  and  O_6 
REMARK    5  A    between atoms: C_9  and  C_10 
REMARK    6  A    between atoms: N_15  and  C_14 
REMARK    7  A    between atoms: N_20  and  C_19 
REMARK       I    between atoms: C_22  and  N_20 
ROOT
ATOM      1  C   LIG d   1      -5.828  93.327 118.181  0.00  0.00     0.161 C 
ATOM      2  C   LIG d   1      -6.591  92.485 117.355  0.00  0.00     0.016 C 
ATOM      3  C   LIG d   1      -6.025  91.511 116.501  0.00  0.00     0.038 C 
ATOM      4  C   LIG d   1      -4.655  91.207 116.529  0.00  0.00     0.028 C 
ATOM      5  C   LIG d   1      -3.785  92.376 116.978  0.00  0.00    -0.047 C 
ATOM      6  C   LIG d   1      -4.341  92.935 118.307  0.00  0.00     0.091 C 
ENDROOT
BRANCH   1   7
ATOM      7  O   LIG d   1      -6.436  93.413 119.485  0.00  0.00    -0.368 OA
BRANCH   7   8
ATOM      8  C   LIG d   1      -7.123  94.653 119.787  0.00  0.00     0.119 C 
BRANCH   8   9
ATOM      9  C   LIG d   1      -8.636  94.370 119.730  0.00  0.00     0.028 C 
ATOM     10  C   LIG d   1      -9.457  95.628 119.402  0.00  0.00     0.006 C 
ENDBRANCH   8   9
BRANCH   8  11
ATOM     11  C   LIG d   1      -6.866  95.709 118.709  0.00  0.00     0.028 C 
ATOM     12  C   LIG d   1      -5.995  96.873 119.209  0.00  0.00     0.006 C 
ENDBRANCH   8  11
ENDBRANCH   7   8
ENDBRANCH   1   7
BRANCH   6  13
ATOM     13  N   LIG d   1      -3.598  94.134 118.773  0.00  0.00    -0.311 N 
ATOM     14  C   LIG d   1      -2.517  94.071 119.548  0.00  0.00     0.210 C 
ATOM     15  C   LIG d   1      -1.915  95.427 119.930  0.00  0.00     0.109 C 
ATOM     16  O   LIG d   1      -1.980  93.020 119.930  0.00  0.00    -0.276 OA
ATOM     17  H   LIG d   1      -3.946  95.028 118.484  0.00  0.00     0.149 HD
ENDBRANCH   6  13
BRANCH   5  18
ATOM     18  N   LIG d   1      -2.400  91.881 117.093  0.00  0.00     0.381 N 
ATOM     19  H   LIG d   1      -1.758  92.625 116.907  0.00  0.00    -0.090 HD
ATOM     20  H   LIG d   1      -2.254  91.160 116.409  0.00  0.00    -0.090 HD
ATOM     21  H   LIG d   1      -2.243  91.518 118.008  0.00  0.00    -0.090 HD
ENDBRANCH   5  18
BRANCH   3  22
ATOM     22  C   LIG d   1      -6.826  90.855 115.579  0.00  0.00     0.382 C 
ATOM     23  O   LIG d   1      -6.666  91.061 114.352  0.00  0.00    -0.241 OA
ATOM     24  O   LIG d   1      -7.736  90.095 115.960  0.00  0.00    -0.241 OA
ENDBRANCH   3  22
TORSDOF 7
ENDMDL
MODEL 2
REMARK VINA RESULT:      -4.8      3.141      4.695
REMARK  7 active torsions:
REMARK  status: ('A' for Active; 'I' for Inactive)
REMARK    1  A    between atoms: C_2  and  C_3 
REMARK    2  A    between atoms: C_3  and  O_6 
REMARK    3  A    between atoms: C_3  and  C_4 
REMARK    4  A    between atoms: C_7  and  O_6 
REMARK    5  A    between atoms: C_9  and  C_10 
REMARK    6  A    between atoms: N_15  and  C_14 
REMARK    7  A    between atoms: N_20  and  C_19 
REMARK       I    between atoms: C_22  and  N_20 
ROOT
ATOM      1  C   LIG d   1      -2.785  91.727 117.278  0.00  0.00     0.161 C 
ATOM      2  C   LIG d   1      -3.053  90.551 117.997  0.00  0.00     0.016 C 
ATOM      3  C   LIG d   1      -2.155  89.989 118.934  0.00  0.00     0.038 C 
ATOM      4  C   LIG d   1      -0.984  90.654 119.328  0.00  0.00     0.028 C 
ATOM      5  C   LIG d   1      -0.430  91.590 118.260  0.00  0.00    -0.047 C 
ATOM      6  C   LIG d   1      -1.562  92.525 117.776  0.00  0.00     0.091 C 
ENDROOT
BRANCH   1   7
ATOM      7  O   LIG d   1      -3.957  92.566 117.259  0.00  0.00    -0.368 OA
BRANCH   7   8
ATOM      8  C   LIG d   1      -5.232  91.881 117.326  0.00  0.00     0.119 C 
BRANCH   8   9
ATOM      9  C   LIG d   1      -5.909  92.029 115.950  0.00  0.00     0.028 C 
ATOM     10  C   LIG d   1      -5.938  90.706 115.165  0.00  0.00     0.006 C 
ENDBRANCH   8   9
BRANCH   8  11
ATOM     11  C   LIG d   1      -6.178  92.562 118.319  0.00  0.00     0.028 C 
ATOM     12  C   LIG d   1      -6.992  93.700 117.682  0.00  0.00     0.006 C 
ENDBRANCH   8  11
ENDBRANCH   7   8
ENDBRANCH   1   7
BRANCH   6  13
ATOM     13  N   LIG d   1      -1.126  93.418 116.670  0.00  0.00    -0.311 N 
ATOM     14  C   LIG d   1      -0.659  94.650 116.863  0.00  0.00     0.210 C 
ATOM     15  C   LIG d   1      -0.285  95.407 115.585  0.00  0.00     0.109 C 
ATOM     16  O   LIG d   1      -0.489  95.176 117.973  0.00  0.00    -0.276 OA
ATOM     17  H   LIG d   1      -1.202  93.059 115.738  0.00  0.00     0.149 HD
ENDBRANCH   6  13
BRANCH   5  18
ATOM     18  N   LIG d   1       0.708  92.319 118.852  0.00  0.00     0.381 N 
ATOM     19  H   LIG d   1       1.175  91.735 119.516  0.00  0.00    -0.090 HD
ATOM     20  H   LIG d   1       0.360  93.129 119.335  0.00  0.00    -0.090 HD
ATOM     21  H   LIG d   1       1.344  92.597 118.138  0.00  0.00    -0.090 HD
ENDBRANCH   5  18
BRANCH   3  22
ATOM     22  C   LIG d   1      -2.405  88.730 119.457  0.00  0.00     0.382 C 
ATOM     23  O   LIG d   1      -3.548  88.448 119.891  0.00  0.00    -0.241 OA
ATOM     24  O   LIG d   1      -1.492  87.888 119.541  0.00  0.00    -0.241 OA
ENDBRANCH   3  22
TORSDOF 7
ENDMDL
MODEL 3
REMARK VINA RESULT:      -4.8      2.704      4.970
REMARK  7 active torsions:
REMARK  status: ('A' for Active; 'I' for Inactive)
REMARK    1  A    between atoms: C_2  and  C_3 
REMARK    2  A    between atoms: C_3  and  O_6 
REMARK    3  A    between atoms: C_3  and  C_4 
REMARK    4  A    between atoms: C_7  and  O_6 
REMARK    5  A    between atoms: C_9  and  C_10 
REMARK    6  A    between atoms: N_15  and  C_14 
REMARK    7  A    between atoms: N_20  and  C_19 
REMARK       I    between atoms: C_22  and  N_20 
ROOT
ATOM      1  C   LIG d   1      -2.813  93.390 119.356  0.00  0.00     0.161 C 
ATOM      2  C   LIG d   1      -2.671  94.729 118.954  0.00  0.00     0.016 C 
ATOM      3  C   LIG d   1      -1.836  95.137 117.888  0.00  0.00     0.038 C 
ATOM      4  C   LIG d   1      -1.200  94.211 117.048  0.00  0.00     0.028 C 
ATOM      5  C   LIG d   1      -0.913  92.876 117.726  0.00  0.00    -0.047 C 
ATOM      6  C   LIG d   1      -2.213  92.355 118.380  0.00  0.00     0.091 C 
ENDROOT
BRANCH   1   7
ATOM      7  O   LIG d   1      -4.203  93.099 119.602  0.00  0.00    -0.368 OA
BRANCH   7   8
ATOM      8  C   LIG d   1      -5.139  93.565 118.600  0.00  0.00     0.119 C 
BRANCH   8   9
ATOM      9  C   LIG d   1      -6.216  94.397 119.324  0.00  0.00     0.028 C 
ATOM     10  C   LIG d   1      -7.120  95.165 118.345  0.00  0.00     0.006 C 
ENDBRANCH   8   9
BRANCH   8  11
ATOM     11  C   LIG d   1      -5.894  92.398 117.956  0.00  0.00     0.028 C 
ATOM     12  C   LIG d   1      -5.542  92.208 116.472  0.00  0.00     0.006 C 
ENDBRANCH   8  11
ENDBRANCH   7   8
ENDBRANCH   1   7
BRANCH   6  13
ATOM     13  N   LIG d   1      -2.001  91.094 119.137  0.00  0.00    -0.311 N 
ATOM     14  C   LIG d   1      -2.658  89.965 118.879  0.00  0.00     0.210 C 
ATOM     15  C   LIG d   1      -2.302  88.787 119.791  0.00  0.00     0.109 C 
ATOM     16  O   LIG d   1      -3.477  89.818 117.960  0.00  0.00    -0.276 OA
ATOM     17  H   LIG d   1      -1.330  91.115 119.881  0.00  0.00     0.149 HD
ENDBRANCH   6  13
BRANCH   5  18
ATOM     18  N   LIG d   1      -0.375  91.962 116.701  0.00  0.00     0.381 N 
ATOM     19  H   LIG d   1      -0.927  92.025 115.868  0.00  0.00    -0.090 HD
ATOM     20  H   LIG d   1      -0.429  91.020 117.045  0.00  0.00    -0.090 HD
ATOM     21  H   LIG d   1       0.572  92.196 116.498  0.00  0.00    -0.090 HD
ENDBRANCH   5  18
BRANCH   3  22
ATOM     22  C   LIG d   1      -1.601  96.487 117.679  0.00  0.00     0.382 C 
ATOM     23  O   LIG d   1      -2.523  97.320 117.855  0.00  0.00    -0.241 OA
ATOM     24  O   LIG d   1      -0.490  96.879 117.273  0.00  0.00    -0.241 OA
ENDBRANCH   3  22
TORSDOF 7
ENDMDL
MODEL 4
REMARK VINA RESULT:      -4.7      2.752      6.527
REMARK  7 active torsions:
REMARK  status: ('A' for Active; 'I' for Inactive)
REMARK    1  A    between atoms: C_2  and  C_3 
REMARK    2  A    between atoms: C_3  and  O_6 
REMARK    3  A    between atoms: C_3  and  C_4 
REMARK    4  A    between atoms: C_7  and  O_6 
REMARK    5  A    between atoms: C_9  and  C_10 
REMARK    6  A    between atoms: N_15  and  C_14 
REMARK    7  A    between atoms: N_20  and  C_19 
REMARK       I    between atoms: C_22  and  N_20 
ROOT
ATOM      1  C   LIG d   1      -3.903  91.871 117.071  0.00  0.00     0.161 C 
ATOM      2  C   LIG d   1      -3.172  92.874 117.731  0.00  0.00     0.016 C 
ATOM      3  C   LIG d   1      -3.756  93.804 118.621  0.00  0.00     0.038 C 
ATOM      4  C   LIG d   1      -5.093  93.699 119.031  0.00  0.00     0.028 C 
ATOM      5  C   LIG d   1      -5.989  93.012 118.006  0.00  0.00    -0.047 C 
ATOM      6  C   LIG d   1      -5.341  91.671 117.592  0.00  0.00     0.091 C 
ENDROOT
BRANCH   1   7
ATOM      7  O   LIG d   1      -3.176  90.628 117.117  0.00  0.00    -0.368 OA
BRANCH   7   8
ATOM      8  C   LIG d   1      -2.242  90.475 118.213  0.00  0.00     0.119 C 
BRANCH   8   9
ATOM      9  C   LIG d   1      -0.982  89.785 117.655  0.00  0.00     0.028 C 
ATOM     10  C   LIG d   1      -0.109  90.740 116.824  0.00  0.00     0.006 C 
ENDBRANCH   8   9
BRANCH   8  11
ATOM     11  C   LIG d   1      -2.787  89.522 119.281  0.00  0.00     0.028 C 
ATOM     12  C   LIG d   1      -1.846  88.339 119.560  0.00  0.00     0.006 C 
ENDBRANCH   8  11
ENDBRANCH   7   8
ENDBRANCH   1   7
BRANCH   6  13
ATOM     13  N   LIG d   1      -6.111  90.974 116.528  0.00  0.00    -0.311 N 
ATOM     14  C   LIG d   1      -6.472  91.554 115.385  0.00  0.00     0.210 C 
ATOM     15  C   LIG d   1      -7.278  90.663 114.435  0.00  0.00     0.109 C 
ATOM     16  O   LIG d   1      -6.173  92.711 115.053  0.00  0.00    -0.276 OA
ATOM     17  H   LIG d   1      -6.369  90.022 116.701  0.00  0.00     0.149 HD
ENDBRANCH   6  13
BRANCH   5  18
ATOM     18  N   LIG d   1      -7.321  92.846 118.618  0.00  0.00     0.381 N 
ATOM     19  H   LIG d   1      -7.389  91.942 119.041  0.00  0.00    -0.090 HD
ATOM     20  H   LIG d   1      -8.020  92.911 117.899  0.00  0.00    -0.090 HD
ATOM     21  H   LIG d   1      -7.472  93.554 119.303  0.00  0.00    -0.090 HD
ENDBRANCH   5  18
BRANCH   3  22
ATOM     22  C   LIG d   1      -3.009  94.879 119.080  0.00  0.00     0.382 C 
ATOM     23  O   LIG d   1      -3.580  95.951 119.392  0.00  0.00    -0.241 OA
ATOM     24  O   LIG d   1      -1.767  94.803 119.143  0.00  0.00    -0.241 OA
ENDBRANCH   3  22
TORSDOF 7
ENDMDL
MODEL 5
REMARK VINA RESULT:      -4.4      7.760     10.630
REMARK  7 active torsions:
REMARK  status: ('A' for Active; 'I' for Inactive)
REMARK    1  A    between atoms: C_2  and  C_3 
REMARK    2  A    between atoms: C_3  and  O_6 
REMARK    3  A    between atoms: C_3  and  C_4 
REMARK    4  A    between atoms: C_7  and  O_6 
REMARK    5  A    between atoms: C_9  and  C_10 
REMARK    6  A    between atoms: N_15  and  C_14 
REMARK    7  A    between atoms: N_20  and  C_19 
REMARK       I    between atoms: C_22  and  N_20 
ROOT
ATOM      1  C   LIG d   1       2.994  89.039 116.398  0.00  0.00     0.161 C 
ATOM      2  C   LIG d   1       3.430  89.889 117.428  0.00  0.00     0.016 C 
ATOM      3  C   LIG d   1       4.699  90.513 117.437  0.00  0.00     0.038 C 
ATOM      4  C   LIG d   1       5.564  90.449 116.334  0.00  0.00     0.028 C 
ATOM      5  C   LIG d   1       5.377  89.193 115.489  0.00  0.00    -0.047 C 
ATOM      6  C   LIG d   1       3.879  89.046 115.135  0.00  0.00     0.091 C 
ENDROOT
BRANCH   1   7
ATOM      7  O   LIG d   1       1.629  89.349 116.055  0.00  0.00    -0.368 OA
BRANCH   7   8
ATOM      8  C   LIG d   1       0.807  89.880 117.124  0.00  0.00     0.119 C 
BRANCH   8   9
ATOM      9  C   LIG d   1      -0.106  88.740 117.616  0.00  0.00     0.028 C 
ATOM     10  C   LIG d   1       0.388  88.118 118.932  0.00  0.00     0.006 C 
ENDBRANCH   8   9
BRANCH   8  11
ATOM     11  C   LIG d   1      -0.141  90.967 116.611  0.00  0.00     0.028 C 
ATOM     12  C   LIG d   1      -1.449  91.045 117.414  0.00  0.00     0.006 C 
ENDBRANCH   8  11
ENDBRANCH   7   8
ENDBRANCH   1   7
BRANCH   6  13
ATOM     13  N   LIG d   1       3.596  87.798 114.380  0.00  0.00    -0.311 N 
ATOM     14  C   LIG d   1       3.029  87.783 113.175  0.00  0.00     0.210 C 
ATOM     15  C   LIG d   1       2.807  86.388 112.582  0.00  0.00     0.109 C 
ATOM     16  O   LIG d   1       2.718  88.793 112.527  0.00  0.00    -0.276 OA
ATOM     17  H   LIG d   1       3.845  86.933 114.818  0.00  0.00     0.149 HD
ENDBRANCH   6  13
BRANCH   5  18
ATOM     18  N   LIG d   1       6.242  89.322 114.302  0.00  0.00     0.381 N 
ATOM     19  H   LIG d   1       6.550  88.417 114.007  0.00  0.00    -0.090 HD
ATOM     20  H   LIG d   1       7.050  89.867 114.546  0.00  0.00    -0.090 HD
ATOM     21  H   LIG d   1       5.743  89.767 113.563  0.00  0.00    -0.090 HD
ENDBRANCH   5  18
BRANCH   3  22
ATOM     22  C   LIG d   1       5.130  91.178 118.574  0.00  0.00     0.382 C 
ATOM     23  O   LIG d   1       5.489  92.378 118.501  0.00  0.00    -0.241 OA
ATOM     24  O   LIG d   1       5.207  90.581 119.665  0.00  0.00    -0.241 OA
ENDBRANCH   3  22
TORSDOF 7
ENDMDL
MODEL 6
REMARK VINA RESULT:      -4.3      9.698     11.296
REMARK  7 active torsions:
REMARK  status: ('A' for Active; 'I' for Inactive)
REMARK    1  A    between atoms: C_2  and  C_3 
REMARK    2  A    between atoms: C_3  and  O_6 
REMARK    3  A    between atoms: C_3  and  C_4 
REMARK    4  A    between atoms: C_7  and  O_6 
REMARK    5  A    between atoms: C_9  and  C_10 
REMARK    6  A    between atoms: N_15  and  C_14 
REMARK    7  A    between atoms: N_20  and  C_19 
REMARK       I    between atoms: C_22  and  N_20 
ROOT
ATOM      1  C   LIG d   1       4.160  88.455 115.918  0.00  0.00     0.161 C 
ATOM      2  C   LIG d   1       3.252  87.832 115.046  0.00  0.00     0.016 C 
ATOM      3  C   LIG d   1       3.454  87.737 113.649  0.00  0.00     0.038 C 
ATOM      4  C   LIG d   1       4.658  88.130 113.046  0.00  0.00     0.028 C 
ATOM      5  C   LIG d   1       5.392  89.223 113.815  0.00  0.00    -0.047 C 
ATOM      6  C   LIG d   1       5.530  88.791 115.293  0.00  0.00     0.091 C 
ENDROOT
BRANCH   1   7
ATOM      7  O   LIG d   1       4.332  87.650 117.101  0.00  0.00    -0.368 OA
BRANCH   7   8
ATOM      8  C   LIG d   1       3.783  88.193 118.327  0.00  0.00     0.119 C 
BRANCH   8   9
ATOM      9  C   LIG d   1       2.669  87.238 118.798  0.00  0.00     0.028 C 
ATOM     10  C   LIG d   1       1.269  87.864 118.675  0.00  0.00     0.006 C 
ENDBRANCH   8   9
BRANCH   8  11
ATOM     11  C   LIG d   1       3.089  89.536 118.079  0.00  0.00     0.028 C 
ATOM     12  C   LIG d   1       3.749  90.697 118.840  0.00  0.00     0.006 C 
ENDBRANCH   8  11
ENDBRANCH   7   8
ENDBRANCH   1   7
BRANCH   6  13
ATOM     13  N   LIG d   1       6.163  89.840 116.134  0.00  0.00    -0.311 N 
ATOM     14  C   LIG d   1       7.240  89.625 116.887  0.00  0.00     0.210 C 
ATOM     15  C   LIG d   1       7.719  90.837 117.692  0.00  0.00     0.109 C 
ATOM     16  O   LIG d   1       7.863  88.554 116.941  0.00  0.00    -0.276 OA
ATOM     17  H   LIG d   1       5.740  90.747 116.125  0.00  0.00     0.149 HD
ENDBRANCH   6  13
BRANCH   5  18
ATOM     18  N   LIG d   1       6.692  89.438 113.152  0.00  0.00     0.381 N 
ATOM     19  H   LIG d   1       7.388  88.855 113.573  0.00  0.00    -0.090 HD
ATOM     20  H   LIG d   1       6.967  90.396 113.277  0.00  0.00    -0.090 HD
ATOM     21  H   LIG d   1       6.618  89.230 112.180  0.00  0.00    -0.090 HD
ENDBRANCH   5  18
BRANCH   3  22
ATOM     22  C   LIG d   1       2.427  87.281 112.836  0.00  0.00     0.382 C 
ATOM     23  O   LIG d   1       1.548  88.079 112.430  0.00  0.00    -0.241 OA
ATOM     24  O   LIG d   1       2.345  86.075 112.539  0.00  0.00    -0.241 OA
ENDBRANCH   3  22
TORSDOF 7
ENDMDL
MODEL 7
REMARK VINA RESULT:      -4.3      2.363      5.209
REMARK  7 active torsions:
REMARK  status: ('A' for Active; 'I' for Inactive)
REMARK    1  A    between atoms: C_2  and  C_3 
REMARK    2  A    between atoms: C_3  and  O_6 
REMARK    3  A    between atoms: C_3  and  C_4 
REMARK    4  A    between atoms: C_7  and  O_6 
REMARK    5  A    between atoms: C_9  and  C_10 
REMARK    6  A    between atoms: N_15  and  C_14 
REMARK    7  A    between atoms: N_20  and  C_19 
REMARK       I    between atoms: C_22  and  N_20 
ROOT
ATOM      1  C   LIG d   1      -3.508  93.477 118.930  0.00  0.00     0.161 C 
ATOM      2  C   LIG d   1      -2.389  92.746 118.496  0.00  0.00     0.016 C 
ATOM      3  C   LIG d   1      -2.469  91.667 117.586  0.00  0.00     0.038 C 
ATOM      4  C   LIG d   1      -3.664  91.340 116.927  0.00  0.00     0.028 C 
ATOM      5  C   LIG d   1      -4.913  91.724 117.713  0.00  0.00    -0.047 C 
ATOM      6  C   LIG d   1      -4.804  93.206 118.137  0.00  0.00     0.091 C 
ENDROOT
BRANCH   1   7
ATOM      7  O   LIG d   1      -3.204  94.886 118.926  0.00  0.00    -0.368 OA
BRANCH   7   8
ATOM      8  C   LIG d   1      -1.803  95.234 118.799  0.00  0.00     0.119 C 
BRANCH   8   9
ATOM      9  C   LIG d   1      -1.471  96.232 119.926  0.00  0.00     0.028 C 
ATOM     10  C   LIG d   1      -0.510  97.340 119.464  0.00  0.00     0.006 C 
ENDBRANCH   8   9
BRANCH   8  11
ATOM     11  C   LIG d   1      -1.533  95.991 117.495  0.00  0.00     0.028 C 
ATOM     12  C   LIG d   1      -0.623  95.212 116.532  0.00  0.00     0.006 C 
ENDBRANCH   8  11
ENDBRANCH   7   8
ENDBRANCH   1   7
BRANCH   6  13
ATOM     13  N   LIG d   1      -5.947  93.640 118.982  0.00  0.00    -0.311 N 
ATOM     14  C   LIG d   1      -7.112  94.051 118.484  0.00  0.00     0.210 C 
ATOM     15  C   LIG d   1      -8.149  94.472 119.529  0.00  0.00     0.109 C 
ATOM     16  O   LIG d   1      -7.396  94.075 117.277  0.00  0.00    -0.276 OA
ATOM     17  H   LIG d   1      -5.814  93.621 119.974  0.00  0.00     0.149 HD
ENDBRANCH   6  13
BRANCH   5  18
ATOM     18  N   LIG d   1      -6.081  91.453 116.852  0.00  0.00     0.381 N 
ATOM     19  H   LIG d   1      -6.799  92.125 117.034  0.00  0.00    -0.090 HD
ATOM     20  H   LIG d   1      -6.441  90.541 117.070  0.00  0.00    -0.090 HD
ATOM     21  H   LIG d   1      -5.814  91.493 115.893  0.00  0.00    -0.090 HD
ENDBRANCH   5  18
BRANCH   3  22
ATOM     22  C   LIG d   1      -1.353  90.877 117.358  0.00  0.00     0.382 C 
ATOM     23  O   LIG d   1      -1.386  89.652 117.629  0.00  0.00    -0.241 OA
ATOM     24  O   LIG d   1      -0.300  91.381 116.926  0.00  0.00    -0.241 OA
ENDBRANCH   3  22
TORSDOF 7
ENDMDL
MODEL 8
REMARK VINA RESULT:      -4.2      2.711      4.264
REMARK  7 active torsions:
REMARK  status: ('A' for Active; 'I' for Inactive)
REMARK    1  A    between atoms: C_2  and  C_3 
REMARK    2  A    between atoms: C_3  and  O_6 
REMARK    3  A    between atoms: C_3  and  C_4 
REMARK    4  A    between atoms: C_7  and  O_6 
REMARK    5  A    between atoms: C_9  and  C_10 
REMARK    6  A    between atoms: N_15  and  C_14 
REMARK    7  A    between atoms: N_20  and  C_19 
REMARK       I    between atoms: C_22  and  N_20 
ROOT
ATOM      1  C   LIG d   1      -3.020  92.676 117.968  0.00  0.00     0.161 C 
ATOM      2  C   LIG d   1      -2.565  91.348 117.913  0.00  0.00     0.016 C 
ATOM      3  C   LIG d   1      -1.207  90.983 118.061  0.00  0.00     0.038 C 
ATOM      4  C   LIG d   1      -0.225  91.915 118.429  0.00  0.00     0.028 C 
ATOM      5  C   LIG d   1      -0.553  93.341 117.999  0.00  0.00    -0.047 C 
ATOM      6  C   LIG d   1      -1.980  93.694 118.479  0.00  0.00     0.091 C 
ENDROOT
BRANCH   1   7
ATOM      7  O   LIG d   1      -4.222  92.748 118.760  0.00  0.00    -0.368 OA
BRANCH   7   8
ATOM      8  C   LIG d   1      -5.374  93.345 118.116  0.00  0.00     0.119 C 
BRANCH   8   9
ATOM      9  C   LIG d   1      -6.194  94.062 119.207  0.00  0.00     0.028 C 
ATOM     10  C   LIG d   1      -7.709  93.873 119.022  0.00  0.00     0.006 C 
ENDBRANCH   8   9
BRANCH   8  11
ATOM     11  C   LIG d   1      -6.309  92.276 117.543  0.00  0.00     0.028 C 
ATOM     12  C   LIG d   1      -6.254  92.197 116.009  0.00  0.00     0.006 C 
ENDBRANCH   8  11
ENDBRANCH   7   8
ENDBRANCH   1   7
BRANCH   6  13
ATOM     13  N   LIG d   1      -2.412  95.043 118.027  0.00  0.00    -0.311 N 
ATOM     14  C   LIG d   1      -2.278  96.142 118.768  0.00  0.00     0.210 C 
ATOM     15  C   LIG d   1      -2.807  97.426 118.122  0.00  0.00     0.109 C 
ATOM     16  O   LIG d   1      -1.743  96.180 119.886  0.00  0.00    -0.276 OA
ATOM     17  H   LIG d   1      -2.828  95.108 117.119  0.00  0.00     0.149 HD
ENDBRANCH   6  13
BRANCH   5  18
ATOM     18  N   LIG d   1       0.483  94.226 118.565  0.00  0.00     0.381 N 
ATOM     19  H   LIG d   1       1.387  93.820 118.429  0.00  0.00    -0.090 HD
ATOM     20  H   LIG d   1       0.325  94.320 119.553  0.00  0.00    -0.090 HD
ATOM     21  H   LIG d   1       0.443  95.120 118.128  0.00  0.00    -0.090 HD
ENDBRANCH   5  18
BRANCH   3  22
ATOM     22  C   LIG d   1      -0.814  89.679 117.802  0.00  0.00     0.382 C 
ATOM     23  O   LIG d   1      -1.114  88.762 118.605  0.00  0.00    -0.241 OA
ATOM     24  O   LIG d   1      -0.124  89.415 116.799  0.00  0.00    -0.241 OA
ENDBRANCH   3  22
TORSDOF 7
ENDMDL
MODEL 9
REMARK VINA RESULT:      -4.2      8.484     10.487
REMARK  7 active torsions:
REMARK  status: ('A' for Active; 'I' for Inactive)
REMARK    1  A    between atoms: C_2  and  C_3 
REMARK    2  A    between atoms: C_3  and  O_6 
REMARK    3  A    between atoms: C_3  and  C_4 
REMARK    4  A    between atoms: C_7  and  O_6 
REMARK    5  A    between atoms: C_9  and  C_10 
REMARK    6  A    between atoms: N_15  and  C_14 
REMARK    7  A    between atoms: N_20  and  C_19 
REMARK       I    between atoms: C_22  and  N_20 
ROOT
ATOM      1  C   LIG d   1       3.136  89.583 116.397  0.00  0.00     0.161 C 
ATOM      2  C   LIG d   1       2.703  88.944 115.223  0.00  0.00     0.016 C 
ATOM      3  C   LIG d   1       3.579  88.528 114.195  0.00  0.00     0.038 C 
ATOM      4  C   LIG d   1       4.973  88.587 114.340  0.00  0.00     0.028 C 
ATOM      5  C   LIG d   1       5.437  89.684 115.291  0.00  0.00    -0.047 C 
ATOM      6  C   LIG d   1       4.662  89.555 116.622  0.00  0.00     0.091 C 
ENDROOT
BRANCH   1   7
ATOM      7  O   LIG d   1       2.451  89.027 117.537  0.00  0.00    -0.368 OA
BRANCH   7   8
ATOM      8  C   LIG d   1       1.336  88.149 117.244  0.00  0.00     0.119 C 
BRANCH   8   9
ATOM      9  C   LIG d   1       0.071  88.792 117.844  0.00  0.00     0.028 C 
ATOM     10  C   LIG d   1      -0.373  88.109 119.148  0.00  0.00     0.006 C 
ENDBRANCH   8   9
BRANCH   8  11
ATOM     11  C   LIG d   1       1.484  86.803 117.960  0.00  0.00     0.028 C 
ATOM     12  C   LIG d   1       2.247  85.764 117.123  0.00  0.00     0.006 C 
ENDBRANCH   8  11
ENDBRANCH   7   8
ENDBRANCH   1   7
BRANCH   6  13
ATOM     13  N   LIG d   1       4.995  90.642 117.580  0.00  0.00    -0.311 N 
ATOM     14  C   LIG d   1       5.941  90.534 118.511  0.00  0.00     0.210 C 
ATOM     15  C   LIG d   1       6.109  91.765 119.408  0.00  0.00     0.109 C 
ATOM     16  O   LIG d   1       6.680  89.549 118.658  0.00  0.00    -0.276 OA
ATOM     17  H   LIG d   1       4.465  91.489 117.511  0.00  0.00     0.149 HD
ENDBRANCH   6  13
BRANCH   5  18
ATOM     18  N   LIG d   1       6.896  89.543 115.456  0.00  0.00     0.381 N 
ATOM     19  H   LIG d   1       7.368  89.985 114.692  0.00  0.00    -0.090 HD
ATOM     20  H   LIG d   1       7.132  88.567 115.450  0.00  0.00    -0.090 HD
ATOM     21  H   LIG d   1       7.184  89.956 116.316  0.00  0.00    -0.090 HD
ENDBRANCH   5  18
BRANCH   3  22
ATOM     22  C   LIG d   1       3.061  88.083 112.988  0.00  0.00     0.382 C 
ATOM     23  O   LIG d   1       2.135  88.720 112.430  0.00  0.00    -0.241 OA
ATOM     24  O   LIG d   1       3.477  87.028 112.472  0.00  0.00    -0.241 OA
ENDBRANCH   3  22
TORSDOF 7
ENDMDL
