MODEL 1
REMARK VINA RESULT:      -5.1      0.000      0.000
REMARK  7 active torsions:
REMARK  status: ('A' for Active; 'I' for Inactive)
REMARK    1  A    between atoms: C_2  and  C_3 
REMARK    2  A    between atoms: C_3  and  O_6 
REMARK    3  A    between atoms: C_3  and  C_4 
REMARK    4  A    between atoms: C_7  and  O_6 
REMARK    5  A    between atoms: C_9  and  C_10 
REMARK    6  A    between atoms: N_15  and  C_14 
REMARK    7  A    between atoms: N_20  and  C_19 
REMARK       I    between atoms: C_22  and  N_20 
ROOT
ATOM      1  C   LIG d   1      -5.881  92.582 118.045  0.00  0.00     0.161 C 
ATOM      2  C   LIG d   1      -6.651  92.364 116.891  0.00  0.00     0.016 C 
ATOM      3  C   LIG d   1      -6.357  91.363 115.937  0.00  0.00     0.038 C 
ATOM      4  C   LIG d   1      -5.353  90.407 116.151  0.00  0.00     0.028 C 
ATOM      5  C   LIG d   1      -4.231  90.900 117.058  0.00  0.00    -0.047 C 
ATOM      6  C   LIG d   1      -4.848  91.478 118.352  0.00  0.00     0.091 C 
ENDROOT
BRANCH   1   7
ATOM      7  O   LIG d   1      -6.747  92.787 119.179  0.00  0.00    -0.368 OA
BRANCH   7   8
ATOM      8  C   LIG d   1      -6.673  94.089 119.811  0.00  0.00     0.119 C 
BRANCH   8   9
ATOM      9  C   LIG d   1      -8.104  94.657 119.869  0.00  0.00     0.028 C 
ATOM     10  C   LIG d   1      -8.358  95.720 118.787  0.00  0.00     0.006 C 
ENDBRANCH   8   9
BRANCH   8  11
ATOM     11  C   LIG d   1      -5.878  95.079 118.955  0.00  0.00     0.028 C 
ATOM     12  C   LIG d   1      -4.648  95.643 119.685  0.00  0.00     0.006 C 
ENDBRANCH   8  11
ENDBRANCH   7   8
ENDBRANCH   1   7
BRANCH   6  13
ATOM     13  N   LIG d   1      -3.824  92.059 119.259  0.00  0.00    -0.311 N 
ATOM     14  C   LIG d   1      -2.701  92.630 118.826  0.00  0.00     0.210 C 
ATOM     15  C   LIG d   1      -1.772  93.147 119.929  0.00  0.00     0.109 C 
ATOM     16  O   LIG d   1      -2.402  92.787 117.633  0.00  0.00    -0.276 OA
ATOM     17  H   LIG d   1      -4.001  92.003 120.243  0.00  0.00     0.149 HD
ENDBRANCH   6  13
BRANCH   5  18
ATOM     18  N   LIG d   1      -3.327  89.761 117.308  0.00  0.00     0.381 N 
ATOM     19  H   LIG d   1      -2.826  89.536 116.471  0.00  0.00    -0.090 HD
ATOM     20  H   LIG d   1      -3.876  88.962 117.571  0.00  0.00    -0.090 HD
ATOM     21  H   LIG d   1      -2.686  89.988 118.036  0.00  0.00    -0.090 HD
ENDBRANCH   5  18
BRANCH   3  22
ATOM     22  C   LIG d   1      -7.045  91.336 114.734  0.00  0.00     0.382 C 
ATOM     23  O   LIG d   1      -7.710  90.321 114.414  0.00  0.00    -0.241 OA
ATOM     24  O   LIG d   1      -6.975  92.297 113.944  0.00  0.00    -0.241 OA
ENDBRANCH   3  22
TORSDOF 7
ENDMDL
MODEL 2
REMARK VINA RESULT:      -4.9      4.034      7.872
REMARK  7 active torsions:
REMARK  status: ('A' for Active; 'I' for Inactive)
REMARK    1  A    between atoms: C_2  and  C_3 
REMARK    2  A    between atoms: C_3  and  O_6 
REMARK    3  A    between atoms: C_3  and  C_4 
REMARK    4  A    between atoms: C_7  and  O_6 
REMARK    5  A    between atoms: C_9  and  C_10 
REMARK    6  A    between atoms: N_15  and  C_14 
REMARK    7  A    between atoms: N_20  and  C_19 
REMARK       I    between atoms: C_22  and  N_20 
ROOT
ATOM      1  C   LIG d   1      -0.013  90.770 118.359  0.00  0.00     0.161 C 
ATOM      2  C   LIG d   1       1.314  91.200 118.528  0.00  0.00     0.016 C 
ATOM      3  C   LIG d   1       1.726  92.541 118.350  0.00  0.00     0.038 C 
ATOM      4  C   LIG d   1       0.805  93.577 118.136  0.00  0.00     0.028 C 
ATOM      5  C   LIG d   1      -0.481  93.116 117.459  0.00  0.00    -0.047 C 
ATOM      6  C   LIG d   1      -1.050  91.906 118.236  0.00  0.00     0.091 C 
ENDROOT
BRANCH   1   7
ATOM      7  O   LIG d   1      -0.376  89.875 119.429  0.00  0.00    -0.368 OA
BRANCH   7   8
ATOM      8  C   LIG d   1      -0.279  88.459 119.136  0.00  0.00     0.119 C 
BRANCH   8   9
ATOM      9  C   LIG d   1      -0.492  88.285 117.620  0.00  0.00     0.028 C 
ATOM     10  C   LIG d   1       0.408  87.190 117.022  0.00  0.00     0.006 C 
ENDBRANCH   8   9
BRANCH   8  11
ATOM     11  C   LIG d   1      -1.414  87.673 119.798  0.00  0.00     0.028 C 
ATOM     12  C   LIG d   1      -2.807  88.158 119.364  0.00  0.00     0.006 C 
ENDBRANCH   8  11
ENDBRANCH   7   8
ENDBRANCH   1   7
BRANCH   6  13
ATOM     13  N   LIG d   1      -2.264  91.339 117.591  0.00  0.00    -0.311 N 
ATOM     14  C   LIG d   1      -3.504  91.654 117.960  0.00  0.00     0.210 C 
ATOM     15  C   LIG d   1      -4.612  90.940 117.178  0.00  0.00     0.109 C 
ATOM     16  O   LIG d   1      -3.793  92.479 118.839  0.00  0.00    -0.276 OA
ATOM     17  H   LIG d   1      -2.121  90.684 116.848  0.00  0.00     0.149 HD
ENDBRANCH   6  13
BRANCH   5  18
ATOM     18  N   LIG d   1      -1.403  94.266 117.423  0.00  0.00     0.381 N 
ATOM     19  H   LIG d   1      -1.230  94.813 116.604  0.00  0.00    -0.090 HD
ATOM     20  H   LIG d   1      -1.236  94.842 118.229  0.00  0.00    -0.090 HD
ATOM     21  H   LIG d   1      -2.347  93.946 117.425  0.00  0.00    -0.090 HD
ENDBRANCH   5  18
BRANCH   3  22
ATOM     22  C   LIG d   1       3.078  92.849 118.344  0.00  0.00     0.382 C 
ATOM     23  O   LIG d   1       3.744  92.730 117.288  0.00  0.00    -0.241 OA
ATOM     24  O   LIG d   1       3.650  93.201 119.393  0.00  0.00    -0.241 OA
ENDBRANCH   3  22
TORSDOF 7
ENDMDL
MODEL 3
REMARK VINA RESULT:      -4.8      2.485      4.848
REMARK  7 active torsions:
REMARK  status: ('A' for Active; 'I' for Inactive)
REMARK    1  A    between atoms: C_2  and  C_3 
REMARK    2  A    between atoms: C_3  and  O_6 
REMARK    3  A    between atoms: C_3  and  C_4 
REMARK    4  A    between atoms: C_7  and  O_6 
REMARK    5  A    between atoms: C_9  and  C_10 
REMARK    6  A    between atoms: N_15  and  C_14 
REMARK    7  A    between atoms: N_20  and  C_19 
REMARK       I    between atoms: C_22  and  N_20 
ROOT
ATOM      1  C   LIG d   1      -3.198  92.620 119.845  0.00  0.00     0.161 C 
ATOM      2  C   LIG d   1      -2.955  93.984 119.611  0.00  0.00     0.016 C 
ATOM      3  C   LIG d   1      -2.004  94.456 118.677  0.00  0.00     0.038 C 
ATOM      4  C   LIG d   1      -1.333  93.591 117.800  0.00  0.00     0.028 C 
ATOM      5  C   LIG d   1      -1.175  92.176 118.348  0.00  0.00    -0.047 C 
ATOM      6  C   LIG d   1      -2.555  91.664 118.819  0.00  0.00     0.091 C 
ENDROOT
BRANCH   1   7
ATOM      7  O   LIG d   1      -4.617  92.384 119.930  0.00  0.00    -0.368 OA
BRANCH   7   8
ATOM      8  C   LIG d   1      -5.401  92.791 118.782  0.00  0.00     0.119 C 
BRANCH   8   9
ATOM      9  C   LIG d   1      -6.584  93.630 119.303  0.00  0.00     0.028 C 
ATOM     10  C   LIG d   1      -6.526  95.090 118.822  0.00  0.00     0.006 C 
ENDBRANCH   8   9
BRANCH   8  11
ATOM     11  C   LIG d   1      -6.035  91.585 118.084  0.00  0.00     0.028 C 
ATOM     12  C   LIG d   1      -6.234  91.806 116.576  0.00  0.00     0.006 C 
ENDBRANCH   8  11
ENDBRANCH   7   8
ENDBRANCH   1   7
BRANCH   6  13
ATOM     13  N   LIG d   1      -2.477  90.318 119.446  0.00  0.00    -0.311 N 
ATOM     14  C   LIG d   1      -3.008  89.224 118.903  0.00  0.00     0.210 C 
ATOM     15  C   LIG d   1      -2.830  87.943 119.724  0.00  0.00     0.109 C 
ATOM     16  O   LIG d   1      -3.582  89.187 117.804  0.00  0.00    -0.276 OA
ATOM     17  H   LIG d   1      -2.001  90.252 120.324  0.00  0.00     0.149 HD
ENDBRANCH   6  13
BRANCH   5  18
ATOM     18  N   LIG d   1      -0.585  91.348 117.279  0.00  0.00     0.381 N 
ATOM     19  H   LIG d   1       0.186  90.824 117.643  0.00  0.00    -0.090 HD
ATOM     20  H   LIG d   1      -0.240  91.952 116.553  0.00  0.00    -0.090 HD
ATOM     21  H   LIG d   1      -1.271  90.729 116.909  0.00  0.00    -0.090 HD
ENDBRANCH   5  18
BRANCH   3  22
ATOM     22  C   LIG d   1      -1.686  95.805 118.643  0.00  0.00     0.382 C 
ATOM     23  O   LIG d   1      -2.597  96.662 118.541  0.00  0.00    -0.241 OA
ATOM     24  O   LIG d   1      -0.497  96.175 118.667  0.00  0.00    -0.241 OA
ENDBRANCH   3  22
TORSDOF 7
ENDMDL
MODEL 4
REMARK VINA RESULT:      -4.8      8.961     12.018
REMARK  7 active torsions:
REMARK  status: ('A' for Active; 'I' for Inactive)
REMARK    1  A    between atoms: C_2  and  C_3 
REMARK    2  A    between atoms: C_3  and  O_6 
REMARK    3  A    between atoms: C_3  and  C_4 
REMARK    4  A    between atoms: C_7  and  O_6 
REMARK    5  A    between atoms: C_9  and  C_10 
REMARK    6  A    between atoms: N_15  and  C_14 
REMARK    7  A    between atoms: N_20  and  C_19 
REMARK       I    between atoms: C_22  and  N_20 
ROOT
ATOM      1  C   LIG d   1       4.893  88.326 116.447  0.00  0.00     0.161 C 
ATOM      2  C   LIG d   1       5.990  88.645 117.266  0.00  0.00     0.016 C 
ATOM      3  C   LIG d   1       7.175  89.243 116.780  0.00  0.00     0.038 C 
ATOM      4  C   LIG d   1       7.286  89.704 115.460  0.00  0.00     0.028 C 
ATOM      5  C   LIG d   1       6.398  88.948 114.478  0.00  0.00    -0.047 C 
ATOM      6  C   LIG d   1       4.953  88.922 115.026  0.00  0.00     0.091 C 
ENDROOT
BRANCH   1   7
ATOM      7  O   LIG d   1       3.668  88.709 117.101  0.00  0.00    -0.368 OA
BRANCH   7   8
ATOM      8  C   LIG d   1       3.096  89.976 116.691  0.00  0.00     0.119 C 
BRANCH   8   9
ATOM      9  C   LIG d   1       3.155  90.925 117.903  0.00  0.00     0.028 C 
ATOM     10  C   LIG d   1       4.268  91.978 117.770  0.00  0.00     0.006 C 
ENDBRANCH   8   9
BRANCH   8  11
ATOM     11  C   LIG d   1       1.607  89.833 116.359  0.00  0.00     0.028 C 
ATOM     12  C   LIG d   1       0.726  90.821 117.140  0.00  0.00     0.006 C 
ENDBRANCH   8  11
ENDBRANCH   7   8
ENDBRANCH   1   7
BRANCH   6  13
ATOM     13  N   LIG d   1       4.035  88.129 114.167  0.00  0.00    -0.311 N 
ATOM     14  C   LIG d   1       3.313  88.659 113.180  0.00  0.00     0.210 C 
ATOM     15  C   LIG d   1       2.416  87.668 112.431  0.00  0.00     0.109 C 
ATOM     16  O   LIG d   1       3.355  89.849 112.834  0.00  0.00    -0.276 OA
ATOM     17  H   LIG d   1       3.963  87.149 114.358  0.00  0.00     0.149 HD
ENDBRANCH   6  13
BRANCH   5  18
ATOM     18  N   LIG d   1       6.508  89.619 113.169  0.00  0.00     0.381 N 
ATOM     19  H   LIG d   1       7.209  89.168 112.615  0.00  0.00    -0.090 HD
ATOM     20  H   LIG d   1       6.788  90.573 113.316  0.00  0.00    -0.090 HD
ATOM     21  H   LIG d   1       5.632  89.591 112.696  0.00  0.00    -0.090 HD
ENDBRANCH   5  18
BRANCH   3  22
ATOM     22  C   LIG d   1       8.281  89.349 117.610  0.00  0.00     0.382 C 
ATOM     23  O   LIG d   1       8.331  88.688 118.676  0.00  0.00    -0.241 OA
ATOM     24  O   LIG d   1       9.210  90.130 117.328  0.00  0.00    -0.241 OA
ENDBRANCH   3  22
TORSDOF 7
ENDMDL
MODEL 5
REMARK VINA RESULT:      -4.7      6.082      8.762
REMARK  7 active torsions:
REMARK  status: ('A' for Active; 'I' for Inactive)
REMARK    1  A    between atoms: C_2  and  C_3 
REMARK    2  A    between atoms: C_3  and  O_6 
REMARK    3  A    between atoms: C_3  and  C_4 
REMARK    4  A    between atoms: C_7  and  O_6 
REMARK    5  A    between atoms: C_9  and  C_10 
REMARK    6  A    between atoms: N_15  and  C_14 
REMARK    7  A    between atoms: N_20  and  C_19 
REMARK       I    between atoms: C_22  and  N_20 
ROOT
ATOM      1  C   LIG d   1       0.567  88.361 117.280  0.00  0.00     0.161 C 
ATOM      2  C   LIG d   1      -0.806  88.195 117.527  0.00  0.00     0.016 C 
ATOM      3  C   LIG d   1      -1.673  89.264 117.847  0.00  0.00     0.038 C 
ATOM      4  C   LIG d   1      -1.253  90.601 117.795  0.00  0.00     0.028 C 
ATOM      5  C   LIG d   1       0.241  90.777 118.044  0.00  0.00    -0.047 C 
ATOM      6  C   LIG d   1       1.021  89.826 117.109  0.00  0.00     0.091 C 
ENDROOT
BRANCH   1   7
ATOM      7  O   LIG d   1       0.956  87.579 116.134  0.00  0.00    -0.368 OA
BRANCH   7   8
ATOM      8  C   LIG d   1       1.767  86.409 116.405  0.00  0.00     0.119 C 
BRANCH   8   9
ATOM      9  C   LIG d   1       2.145  86.444 117.898  0.00  0.00     0.028 C 
ATOM     10  C   LIG d   1       3.667  86.481 118.118  0.00  0.00     0.006 C 
ENDBRANCH   8   9
BRANCH   8  11
ATOM     11  C   LIG d   1       3.097  86.465 115.648  0.00  0.00     0.028 C 
ATOM     12  C   LIG d   1       2.946  87.006 114.217  0.00  0.00     0.006 C 
ENDBRANCH   8  11
ENDBRANCH   7   8
ENDBRANCH   1   7
BRANCH   6  13
ATOM     13  N   LIG d   1       2.488  89.873 117.347  0.00  0.00    -0.311 N 
ATOM     14  C   LIG d   1       3.378  90.132 116.391  0.00  0.00     0.210 C 
ATOM     15  C   LIG d   1       4.840  90.113 116.847  0.00  0.00     0.109 C 
ATOM     16  O   LIG d   1       3.093  90.408 115.216  0.00  0.00    -0.276 OA
ATOM     17  H   LIG d   1       2.804  89.692 118.280  0.00  0.00     0.149 HD
ENDBRANCH   6  13
BRANCH   5  18
ATOM     18  N   LIG d   1       0.565  92.199 117.824  0.00  0.00     0.381 N 
ATOM     19  H   LIG d   1       1.450  92.277 117.363  0.00  0.00    -0.090 HD
ATOM     20  H   LIG d   1       0.633  92.659 118.715  0.00  0.00    -0.090 HD
ATOM     21  H   LIG d   1      -0.144  92.629 117.273  0.00  0.00    -0.090 HD
ENDBRANCH   5  18
BRANCH   3  22
ATOM     22  C   LIG d   1      -2.968  88.997 118.265  0.00  0.00     0.382 C 
ATOM     23  O   LIG d   1      -3.932  89.619 117.757  0.00  0.00    -0.241 OA
ATOM     24  O   LIG d   1      -3.181  88.173 119.175  0.00  0.00    -0.241 OA
ENDBRANCH   3  22
TORSDOF 7
ENDMDL
MODEL 6
REMARK VINA RESULT:      -4.7      6.860      9.070
REMARK  7 active torsions:
REMARK  status: ('A' for Active; 'I' for Inactive)
REMARK    1  A    between atoms: C_2  and  C_3 
REMARK    2  A    between atoms: C_3  and  O_6 
REMARK    3  A    between atoms: C_3  and  C_4 
REMARK    4  A    between atoms: C_7  and  O_6 
REMARK    5  A    between atoms: C_9  and  C_10 
REMARK    6  A    between atoms: N_15  and  C_14 
REMARK    7  A    between atoms: N_20  and  C_19 
REMARK       I    between atoms: C_22  and  N_20 
ROOT
ATOM      1  C   LIG d   1       2.492  90.122 116.530  0.00  0.00     0.161 C 
ATOM      2  C   LIG d   1       2.454  89.669 115.201  0.00  0.00     0.016 C 
ATOM      3  C   LIG d   1       3.596  89.218 114.499  0.00  0.00     0.038 C 
ATOM      4  C   LIG d   1       4.835  89.046 115.133  0.00  0.00     0.028 C 
ATOM      5  C   LIG d   1       5.035  89.965 116.333  0.00  0.00    -0.047 C 
ATOM      6  C   LIG d   1       3.815  89.837 117.273  0.00  0.00     0.091 C 
ENDROOT
BRANCH   1   7
ATOM      7  O   LIG d   1       1.378  89.577 117.264  0.00  0.00    -0.368 OA
BRANCH   7   8
ATOM      8  C   LIG d   1       0.154  90.352 117.233  0.00  0.00     0.119 C 
BRANCH   8   9
ATOM      9  C   LIG d   1       0.251  91.414 118.345  0.00  0.00     0.028 C 
ATOM     10  C   LIG d   1       0.279  92.847 117.787  0.00  0.00     0.006 C 
ENDBRANCH   8   9
BRANCH   8  11
ATOM     11  C   LIG d   1      -1.059  89.492 117.598  0.00  0.00     0.028 C 
ATOM     12  C   LIG d   1      -0.753  87.986 117.569  0.00  0.00     0.006 C 
ENDBRANCH   8  11
ENDBRANCH   7   8
ENDBRANCH   1   7
BRANCH   6  13
ATOM     13  N   LIG d   1       3.890  90.766 118.430  0.00  0.00    -0.311 N 
ATOM     14  C   LIG d   1       3.921  92.091 118.305  0.00  0.00     0.210 C 
ATOM     15  C   LIG d   1       4.019  92.863 119.625  0.00  0.00     0.109 C 
ATOM     16  O   LIG d   1       3.844  92.702 117.229  0.00  0.00    -0.276 OA
ATOM     17  H   LIG d   1       3.924  90.355 119.343  0.00  0.00     0.149 HD
ENDBRANCH   6  13
BRANCH   5  18
ATOM     18  N   LIG d   1       6.305  89.585 116.980  0.00  0.00     0.381 N 
ATOM     19  H   LIG d   1       6.137  88.878 117.668  0.00  0.00    -0.090 HD
ATOM     20  H   LIG d   1       6.689  90.390 117.442  0.00  0.00    -0.090 HD
ATOM     21  H   LIG d   1       6.948  89.247 116.297  0.00  0.00    -0.090 HD
ENDBRANCH   5  18
BRANCH   3  22
ATOM     22  C   LIG d   1       3.513  88.972 113.137  0.00  0.00     0.382 C 
ATOM     23  O   LIG d   1       2.424  89.138 112.535  0.00  0.00    -0.241 OA
ATOM     24  O   LIG d   1       4.500  88.543 112.511  0.00  0.00    -0.241 OA
ENDBRANCH   3  22
TORSDOF 7
ENDMDL
MODEL 7
REMARK VINA RESULT:      -4.7      8.980     11.711
REMARK  7 active torsions:
REMARK  status: ('A' for Active; 'I' for Inactive)
REMARK    1  A    between atoms: C_2  and  C_3 
REMARK    2  A    between atoms: C_3  and  O_6 
REMARK    3  A    between atoms: C_3  and  C_4 
REMARK    4  A    between atoms: C_7  and  O_6 
REMARK    5  A    between atoms: C_9  and  C_10 
REMARK    6  A    between atoms: N_15  and  C_14 
REMARK    7  A    between atoms: N_20  and  C_19 
REMARK       I    between atoms: C_22  and  N_20 
ROOT
ATOM      1  C   LIG d   1       4.452  88.079 116.133  0.00  0.00     0.161 C 
ATOM      2  C   LIG d   1       3.118  88.522 116.126  0.00  0.00     0.016 C 
ATOM      3  C   LIG d   1       2.676  89.671 116.820  0.00  0.00     0.038 C 
ATOM      4  C   LIG d   1       3.573  90.547 117.450  0.00  0.00     0.028 C 
ATOM      5  C   LIG d   1       4.860  89.870 117.909  0.00  0.00    -0.047 C 
ATOM      6  C   LIG d   1       5.463  89.084 116.723  0.00  0.00     0.091 C 
ENDROOT
BRANCH   1   7
ATOM      7  O   LIG d   1       4.846  87.695 114.801  0.00  0.00    -0.368 OA
BRANCH   7   8
ATOM      8  C   LIG d   1       4.148  88.352 113.715  0.00  0.00     0.119 C 
BRANCH   8   9
ATOM      9  C   LIG d   1       4.170  87.398 112.505  0.00  0.00     0.028 C 
ATOM     10  C   LIG d   1       3.982  85.927 112.914  0.00  0.00     0.006 C 
ENDBRANCH   8   9
BRANCH   8  11
ATOM     11  C   LIG d   1       4.892  89.609 113.254  0.00  0.00     0.028 C 
ATOM     12  C   LIG d   1       6.419  89.459 113.329  0.00  0.00     0.006 C 
ENDBRANCH   8  11
ENDBRANCH   7   8
ENDBRANCH   1   7
BRANCH   6  13
ATOM     13  N   LIG d   1       6.680  88.322 117.108  0.00  0.00    -0.311 N 
ATOM     14  C   LIG d   1       7.917  88.794 116.962  0.00  0.00     0.210 C 
ATOM     15  C   LIG d   1       9.030  87.838 117.404  0.00  0.00     0.109 C 
ATOM     16  O   LIG d   1       8.197  89.925 116.537  0.00  0.00    -0.276 OA
ATOM     17  H   LIG d   1       6.544  87.407 117.490  0.00  0.00     0.149 HD
ENDBRANCH   6  13
BRANCH   5  18
ATOM     18  N   LIG d   1       5.758  90.921 118.423  0.00  0.00     0.381 N 
ATOM     19  H   LIG d   1       6.674  90.803 118.037  0.00  0.00    -0.090 HD
ATOM     20  H   LIG d   1       5.823  90.834 119.421  0.00  0.00    -0.090 HD
ATOM     21  H   LIG d   1       5.403  91.821 118.183  0.00  0.00    -0.090 HD
ENDBRANCH   5  18
BRANCH   3  22
ATOM     22  C   LIG d   1       1.319  89.933 116.923  0.00  0.00     0.382 C 
ATOM     23  O   LIG d   1       0.666  90.266 115.905  0.00  0.00    -0.241 OA
ATOM     24  O   LIG d   1       0.747  89.883 118.029  0.00  0.00    -0.241 OA
ENDBRANCH   3  22
TORSDOF 7
ENDMDL
MODEL 8
REMARK VINA RESULT:      -4.6      2.711      6.288
REMARK  7 active torsions:
REMARK  status: ('A' for Active; 'I' for Inactive)
REMARK    1  A    between atoms: C_2  and  C_3 
REMARK    2  A    between atoms: C_3  and  O_6 
REMARK    3  A    between atoms: C_3  and  C_4 
REMARK    4  A    between atoms: C_7  and  O_6 
REMARK    5  A    between atoms: C_9  and  C_10 
REMARK    6  A    between atoms: N_15  and  C_14 
REMARK    7  A    between atoms: N_20  and  C_19 
REMARK       I    between atoms: C_22  and  N_20 
ROOT
ATOM      1  C   LIG d   1      -4.077  91.180 118.198  0.00  0.00     0.161 C 
ATOM      2  C   LIG d   1      -3.129  92.134 118.602  0.00  0.00     0.016 C 
ATOM      3  C   LIG d   1      -3.473  93.369 119.198  0.00  0.00     0.038 C 
ATOM      4  C   LIG d   1      -4.791  93.670 119.571  0.00  0.00     0.028 C 
ATOM      5  C   LIG d   1      -5.839  92.954 118.725  0.00  0.00    -0.047 C 
ATOM      6  C   LIG d   1      -5.513  91.443 118.697  0.00  0.00     0.091 C 
ENDROOT
BRANCH   1   7
ATOM      7  O   LIG d   1      -3.643  89.863 118.591  0.00  0.00    -0.368 OA
BRANCH   7   8
ATOM      8  C   LIG d   1      -2.216  89.690 118.776  0.00  0.00     0.119 C 
BRANCH   8   9
ATOM      9  C   LIG d   1      -1.666  88.998 117.513  0.00  0.00     0.028 C 
ATOM     10  C   LIG d   1      -0.147  89.181 117.358  0.00  0.00     0.006 C 
ENDBRANCH   8   9
BRANCH   8  11
ATOM     11  C   LIG d   1      -1.916  88.728 119.929  0.00  0.00     0.028 C 
ATOM     12  C   LIG d   1      -2.829  87.493 119.928  0.00  0.00     0.006 C 
ENDBRANCH   8  11
ENDBRANCH   7   8
ENDBRANCH   1   7
BRANCH   6  13
ATOM     13  N   LIG d   1      -6.440  90.679 117.823  0.00  0.00    -0.311 N 
ATOM     14  C   LIG d   1      -6.661  90.983 116.545  0.00  0.00     0.210 C 
ATOM     15  C   LIG d   1      -7.669  90.079 115.830  0.00  0.00     0.109 C 
ATOM     16  O   LIG d   1      -6.092  91.896 115.927  0.00  0.00    -0.276 OA
ATOM     17  H   LIG d   1      -6.920  89.903 118.234  0.00  0.00     0.149 HD
ENDBRANCH   6  13
BRANCH   5  18
ATOM     18  N   LIG d   1      -7.161  93.249 119.309  0.00  0.00     0.381 N 
ATOM     19  H   LIG d   1      -7.262  94.236 119.436  0.00  0.00    -0.090 HD
ATOM     20  H   LIG d   1      -7.225  92.807 120.209  0.00  0.00    -0.090 HD
ATOM     21  H   LIG d   1      -7.881  92.909 118.711  0.00  0.00    -0.090 HD
ENDBRANCH   5  18
BRANCH   3  22
ATOM     22  C   LIG d   1      -2.497  94.335 119.391  0.00  0.00     0.382 C 
ATOM     23  O   LIG d   1      -2.777  95.548 119.238  0.00  0.00    -0.241 OA
ATOM     24  O   LIG d   1      -1.329  94.005 119.673  0.00  0.00    -0.241 OA
ENDBRANCH   3  22
TORSDOF 7
ENDMDL
MODEL 9
REMARK VINA RESULT:      -4.6      5.503      8.325
REMARK  7 active torsions:
REMARK  status: ('A' for Active; 'I' for Inactive)
REMARK    1  A    between atoms: C_2  and  C_3 
REMARK    2  A    between atoms: C_3  and  O_6 
REMARK    3  A    between atoms: C_3  and  C_4 
REMARK    4  A    between atoms: C_7  and  O_6 
REMARK    5  A    between atoms: C_9  and  C_10 
REMARK    6  A    between atoms: N_15  and  C_14 
REMARK    7  A    between atoms: N_20  and  C_19 
REMARK       I    between atoms: C_22  and  N_20 
ROOT
ATOM      1  C   LIG d   1       0.696  89.235 117.503  0.00  0.00     0.161 C 
ATOM      2  C   LIG d   1      -0.663  88.880 117.516  0.00  0.00     0.016 C 
ATOM      3  C   LIG d   1      -1.681  89.716 118.028  0.00  0.00     0.038 C 
ATOM      4  C   LIG d   1      -1.426  91.037 118.426  0.00  0.00     0.028 C 
ATOM      5  C   LIG d   1       0.006  91.260 118.901  0.00  0.00    -0.047 C 
ATOM      6  C   LIG d   1       0.980  90.716 117.831  0.00  0.00     0.091 C 
ENDROOT
BRANCH   1   7
ATOM      7  O   LIG d   1       1.282  88.882 116.234  0.00  0.00    -0.368 OA
BRANCH   7   8
ATOM      8  C   LIG d   1       2.276  87.829 116.262  0.00  0.00     0.119 C 
BRANCH   8   9
ATOM      9  C   LIG d   1       3.316  88.145 115.170  0.00  0.00     0.028 C 
ATOM     10  C   LIG d   1       3.565  89.655 115.016  0.00  0.00     0.006 C 
ENDBRANCH   8   9
BRANCH   8  11
ATOM     11  C   LIG d   1       1.669  86.479 115.867  0.00  0.00     0.028 C 
ATOM     12  C   LIG d   1       1.518  85.522 117.059  0.00  0.00     0.006 C 
ENDBRANCH   8  11
ENDBRANCH   7   8
ENDBRANCH   1   7
BRANCH   6  13
ATOM     13  N   LIG d   1       2.401  90.819 118.254  0.00  0.00    -0.311 N 
ATOM     14  C   LIG d   1       3.172  91.871 117.985  0.00  0.00     0.210 C 
ATOM     15  C   LIG d   1       4.613  91.764 118.495  0.00  0.00     0.109 C 
ATOM     16  O   LIG d   1       2.791  92.895 117.400  0.00  0.00    -0.276 OA
ATOM     17  H   LIG d   1       2.783  90.044 118.762  0.00  0.00     0.149 HD
ENDBRANCH   6  13
BRANCH   5  18
ATOM     18  N   LIG d   1       0.172  92.703 119.154  0.00  0.00     0.381 N 
ATOM     19  H   LIG d   1       0.123  93.206 118.291  0.00  0.00    -0.090 HD
ATOM     20  H   LIG d   1       1.078  92.861 119.560  0.00  0.00    -0.090 HD
ATOM     21  H   LIG d   1      -0.538  93.025 119.775  0.00  0.00    -0.090 HD
ENDBRANCH   5  18
BRANCH   3  22
ATOM     22  C   LIG d   1      -2.966  89.218 118.182  0.00  0.00     0.382 C 
ATOM     23  O   LIG d   1      -3.182  88.276 118.981  0.00  0.00    -0.241 OA
ATOM     24  O   LIG d   1      -3.905  89.671 117.500  0.00  0.00    -0.241 OA
ENDBRANCH   3  22
TORSDOF 7
ENDMDL
