MODEL 1
REMARK VINA RESULT:      -5.5      0.000      0.000
REMARK  7 active torsions:
REMARK  status: ('A' for Active; 'I' for Inactive)
REMARK    1  A    between atoms: C_2  and  C_3 
REMARK    2  A    between atoms: C_3  and  O_6 
REMARK    3  A    between atoms: C_3  and  C_4 
REMARK    4  A    between atoms: C_7  and  O_6 
REMARK    5  A    between atoms: C_9  and  C_10 
REMARK    6  A    between atoms: N_15  and  C_14 
REMARK    7  A    between atoms: N_20  and  C_19 
REMARK       I    between atoms: C_22  and  N_20 
ROOT
ATOM      1  C   LIG d   1      -4.197  91.681 117.346  0.00  0.00     0.161 C 
ATOM      2  C   LIG d   1      -5.090  90.860 116.638  0.00  0.00     0.016 C 
ATOM      3  C   LIG d   1      -6.289  91.333 116.058  0.00  0.00     0.038 C 
ATOM      4  C   LIG d   1      -6.604  92.700 116.017  0.00  0.00     0.028 C 
ATOM      5  C   LIG d   1      -5.982  93.499 117.157  0.00  0.00    -0.047 C 
ATOM      6  C   LIG d   1      -4.468  93.194 117.217  0.00  0.00     0.091 C 
ENDROOT
BRANCH   1   7
ATOM      7  O   LIG d   1      -2.842  91.379 116.957  0.00  0.00    -0.368 OA
BRANCH   7   8
ATOM      8  C   LIG d   1      -2.192  90.309 117.686  0.00  0.00     0.119 C 
BRANCH   8   9
ATOM      9  C   LIG d   1      -2.609  90.437 119.164  0.00  0.00     0.028 C 
ATOM     10  C   LIG d   1      -3.166  89.121 119.733  0.00  0.00     0.006 C 
ENDBRANCH   8   9
BRANCH   8  11
ATOM     11  C   LIG d   1      -0.670  90.474 117.678  0.00  0.00     0.028 C 
ATOM     12  C   LIG d   1      -0.178  91.517 118.693  0.00  0.00     0.006 C 
ENDBRANCH   8  11
ENDBRANCH   7   8
ENDBRANCH   1   7
BRANCH   6  13
ATOM     13  N   LIG d   1      -3.798  93.870 118.358  0.00  0.00    -0.311 N 
ATOM     14  C   LIG d   1      -2.603  94.452 118.266  0.00  0.00     0.210 C 
ATOM     15  C   LIG d   1      -2.086  95.074 119.567  0.00  0.00     0.109 C 
ATOM     16  O   LIG d   1      -1.938  94.541 117.224  0.00  0.00    -0.276 OA
ATOM     17  H   LIG d   1      -4.282  93.873 119.235  0.00  0.00     0.149 HD
ENDBRANCH   6  13
BRANCH   5  18
ATOM     18  N   LIG d   1      -6.276  94.924 116.915  0.00  0.00     0.381 N 
ATOM     19  H   LIG d   1      -6.894  95.267 117.624  0.00  0.00    -0.090 HD
ATOM     20  H   LIG d   1      -6.735  95.015 116.026  0.00  0.00    -0.090 HD
ATOM     21  H   LIG d   1      -5.431  95.451 116.917  0.00  0.00    -0.090 HD
ENDBRANCH   5  18
BRANCH   3  22
ATOM     22  C   LIG d   1      -7.208  90.430 115.545  0.00  0.00     0.382 C 
ATOM     23  O   LIG d   1      -8.175  90.052 116.248  0.00  0.00    -0.241 OA
ATOM     24  O   LIG d   1      -7.057  89.955 114.403  0.00  0.00    -0.241 OA
ENDBRANCH   3  22
TORSDOF 7
ENDMDL
MODEL 2
REMARK VINA RESULT:      -5.5      2.203      3.915
REMARK  7 active torsions:
REMARK  status: ('A' for Active; 'I' for Inactive)
REMARK    1  A    between atoms: C_2  and  C_3 
REMARK    2  A    between atoms: C_3  and  O_6 
REMARK    3  A    between atoms: C_3  and  C_4 
REMARK    4  A    between atoms: C_7  and  O_6 
REMARK    5  A    between atoms: C_9  and  C_10 
REMARK    6  A    between atoms: N_15  and  C_14 
REMARK    7  A    between atoms: N_20  and  C_19 
REMARK       I    between atoms: C_22  and  N_20 
ROOT
ATOM      1  C   LIG d   1      -4.406  92.954 117.576  0.00  0.00     0.161 C 
ATOM      2  C   LIG d   1      -5.749  93.355 117.487  0.00  0.00     0.016 C 
ATOM      3  C   LIG d   1      -6.725  92.647 116.748  0.00  0.00     0.038 C 
ATOM      4  C   LIG d   1      -6.455  91.398 116.168  0.00  0.00     0.028 C 
ATOM      5  C   LIG d   1      -4.986  91.203 115.808  0.00  0.00    -0.047 C 
ATOM      6  C   LIG d   1      -4.118  91.535 117.042  0.00  0.00     0.091 C 
ENDROOT
BRANCH   1   7
ATOM      7  O   LIG d   1      -3.948  93.080 118.937  0.00  0.00    -0.368 OA
BRANCH   7   8
ATOM      8  C   LIG d   1      -3.011  94.154 119.198  0.00  0.00     0.119 C 
BRANCH   8   9
ATOM      9  C   LIG d   1      -3.780  95.271 119.929  0.00  0.00     0.028 C 
ATOM     10  C   LIG d   1      -3.711  96.615 119.185  0.00  0.00     0.006 C 
ENDBRANCH   8   9
BRANCH   8  11
ATOM     11  C   LIG d   1      -2.515  94.789 117.895  0.00  0.00     0.028 C 
ATOM     12  C   LIG d   1      -1.024  94.525 117.634  0.00  0.00     0.006 C 
ENDBRANCH   8  11
ENDBRANCH   7   8
ENDBRANCH   1   7
BRANCH   6  13
ATOM     13  N   LIG d   1      -2.663  91.451 116.751  0.00  0.00    -0.311 N 
ATOM     14  C   LIG d   1      -1.799  90.784 117.516  0.00  0.00     0.210 C 
ATOM     15  C   LIG d   1      -0.342  90.841 117.046  0.00  0.00     0.109 C 
ATOM     16  O   LIG d   1      -2.107  90.124 118.519  0.00  0.00    -0.276 OA
ATOM     17  H   LIG d   1      -2.332  91.932 115.938  0.00  0.00     0.149 HD
ENDBRANCH   6  13
BRANCH   5  18
ATOM     18  N   LIG d   1      -4.823  89.813 115.342  0.00  0.00     0.381 N 
ATOM     19  H   LIG d   1      -3.917  89.697 114.932  0.00  0.00    -0.090 HD
ATOM     20  H   LIG d   1      -5.514  89.622 114.639  0.00  0.00    -0.090 HD
ATOM     21  H   LIG d   1      -4.932  89.182 116.106  0.00  0.00    -0.090 HD
ENDBRANCH   5  18
BRANCH   3  22
ATOM     22  C   LIG d   1      -7.978  93.208 116.550  0.00  0.00     0.382 C 
ATOM     23  O   LIG d   1      -8.652  93.599 117.533  0.00  0.00    -0.241 OA
ATOM     24  O   LIG d   1      -8.460  93.287 115.404  0.00  0.00    -0.241 OA
ENDBRANCH   3  22
TORSDOF 7
ENDMDL
MODEL 3
REMARK VINA RESULT:      -5.5      1.944      2.721
REMARK  7 active torsions:
REMARK  status: ('A' for Active; 'I' for Inactive)
REMARK    1  A    between atoms: C_2  and  C_3 
REMARK    2  A    between atoms: C_3  and  O_6 
REMARK    3  A    between atoms: C_3  and  C_4 
REMARK    4  A    between atoms: C_7  and  O_6 
REMARK    5  A    between atoms: C_9  and  C_10 
REMARK    6  A    between atoms: N_15  and  C_14 
REMARK    7  A    between atoms: N_20  and  C_19 
REMARK       I    between atoms: C_22  and  N_20 
ROOT
ATOM      1  C   LIG d   1      -5.041  92.593 117.195  0.00  0.00     0.161 C 
ATOM      2  C   LIG d   1      -5.469  91.525 116.390  0.00  0.00     0.016 C 
ATOM      3  C   LIG d   1      -6.787  91.405 115.892  0.00  0.00     0.038 C 
ATOM      4  C   LIG d   1      -7.732  92.431 116.042  0.00  0.00     0.028 C 
ATOM      5  C   LIG d   1      -7.496  93.297 117.275  0.00  0.00    -0.047 C 
ATOM      6  C   LIG d   1      -6.027  93.777 117.276  0.00  0.00     0.091 C 
ENDROOT
BRANCH   1   7
ATOM      7  O   LIG d   1      -3.746  93.049 116.754  0.00  0.00    -0.368 OA
BRANCH   7   8
ATOM      8  C   LIG d   1      -2.703  93.072 117.758  0.00  0.00     0.119 C 
BRANCH   8   9
ATOM      9  C   LIG d   1      -1.990  94.435 117.653  0.00  0.00     0.028 C 
ATOM     10  C   LIG d   1      -0.512  94.294 117.252  0.00  0.00     0.006 C 
ENDBRANCH   8   9
BRANCH   8  11
ATOM     11  C   LIG d   1      -1.623  92.026 117.466  0.00  0.00     0.028 C 
ATOM     12  C   LIG d   1      -2.003  90.623 117.963  0.00  0.00     0.006 C 
ENDBRANCH   8  11
ENDBRANCH   7   8
ENDBRANCH   1   7
BRANCH   6  13
ATOM     13  N   LIG d   1      -5.688  94.562 118.492  0.00  0.00    -0.311 N 
ATOM     14  C   LIG d   1      -5.889  95.874 118.598  0.00  0.00     0.210 C 
ATOM     15  C   LIG d   1      -5.451  96.490 119.930  0.00  0.00     0.109 C 
ATOM     16  O   LIG d   1      -6.419  96.581 117.727  0.00  0.00    -0.276 OA
ATOM     17  H   LIG d   1      -5.282  94.062 119.259  0.00  0.00     0.149 HD
ENDBRANCH   6  13
BRANCH   5  18
ATOM     18  N   LIG d   1      -8.467  94.406 117.233  0.00  0.00     0.381 N 
ATOM     19  H   LIG d   1      -8.022  95.233 116.888  0.00  0.00    -0.090 HD
ATOM     20  H   LIG d   1      -8.792  94.589 118.166  0.00  0.00    -0.090 HD
ATOM     21  H   LIG d   1      -9.236  94.165 116.647  0.00  0.00    -0.090 HD
ENDBRANCH   5  18
BRANCH   3  22
ATOM     22  C   LIG d   1      -7.183  90.231 115.270  0.00  0.00     0.382 C 
ATOM     23  O   LIG d   1      -8.084  89.523 115.782  0.00  0.00    -0.241 OA
ATOM     24  O   LIG d   1      -6.620  89.848 114.227  0.00  0.00    -0.241 OA
ENDBRANCH   3  22
TORSDOF 7
ENDMDL
MODEL 4
REMARK VINA RESULT:      -5.4      2.288      4.621
REMARK  7 active torsions:
REMARK  status: ('A' for Active; 'I' for Inactive)
REMARK    1  A    between atoms: C_2  and  C_3 
REMARK    2  A    between atoms: C_3  and  O_6 
REMARK    3  A    between atoms: C_3  and  C_4 
REMARK    4  A    between atoms: C_7  and  O_6 
REMARK    5  A    between atoms: C_9  and  C_10 
REMARK    6  A    between atoms: N_15  and  C_14 
REMARK    7  A    between atoms: N_20  and  C_19 
REMARK       I    between atoms: C_22  and  N_20 
ROOT
ATOM      1  C   LIG d   1      -5.233  93.720 116.946  0.00  0.00     0.161 C 
ATOM      2  C   LIG d   1      -6.412  93.027 116.623  0.00  0.00     0.016 C 
ATOM      3  C   LIG d   1      -6.460  91.631 116.407  0.00  0.00     0.038 C 
ATOM      4  C   LIG d   1      -5.353  90.804 116.651  0.00  0.00     0.028 C 
ATOM      5  C   LIG d   1      -4.016  91.520 116.489  0.00  0.00    -0.047 C 
ATOM      6  C   LIG d   1      -4.038  92.820 117.325  0.00  0.00     0.091 C 
ENDROOT
BRANCH   1   7
ATOM      7  O   LIG d   1      -5.497  94.670 117.997  0.00  0.00    -0.368 OA
BRANCH   7   8
ATOM      8  C   LIG d   1      -6.845  95.199 118.053  0.00  0.00     0.119 C 
BRANCH   8   9
ATOM      9  C   LIG d   1      -6.743  96.735 117.974  0.00  0.00     0.028 C 
ATOM     10  C   LIG d   1      -5.552  97.286 118.775  0.00  0.00     0.006 C 
ENDBRANCH   8   9
BRANCH   8  11
ATOM     11  C   LIG d   1      -7.502  94.906 119.405  0.00  0.00     0.028 C 
ATOM     12  C   LIG d   1      -8.821  94.128 119.270  0.00  0.00     0.006 C 
ENDBRANCH   8  11
ENDBRANCH   7   8
ENDBRANCH   1   7
BRANCH   6  13
ATOM     13  N   LIG d   1      -2.799  93.623 117.156  0.00  0.00    -0.311 N 
ATOM     14  C   LIG d   1      -1.737  93.509 117.952  0.00  0.00     0.210 C 
ATOM     15  C   LIG d   1      -0.573  94.446 117.615  0.00  0.00     0.109 C 
ATOM     16  O   LIG d   1      -1.637  92.698 118.885  0.00  0.00    -0.276 OA
ATOM     17  H   LIG d   1      -2.783  94.284 116.404  0.00  0.00     0.149 HD
ENDBRANCH   6  13
BRANCH   5  18
ATOM     18  N   LIG d   1      -2.956  90.583 116.905  0.00  0.00     0.381 N 
ATOM     19  H   LIG d   1      -2.873  89.845 116.234  0.00  0.00    -0.090 HD
ATOM     20  H   LIG d   1      -3.209  90.178 117.789  0.00  0.00    -0.090 HD
ATOM     21  H   LIG d   1      -2.088  91.065 116.988  0.00  0.00    -0.090 HD
ENDBRANCH   5  18
BRANCH   3  22
ATOM     22  C   LIG d   1      -7.616  91.052 115.905  0.00  0.00     0.382 C 
ATOM     23  O   LIG d   1      -8.587  91.775 115.576  0.00  0.00    -0.241 OA
ATOM     24  O   LIG d   1      -7.716  89.814 115.818  0.00  0.00    -0.241 OA
ENDBRANCH   3  22
TORSDOF 7
ENDMDL
MODEL 5
REMARK VINA RESULT:      -5.4      1.566      4.906
REMARK  7 active torsions:
REMARK  status: ('A' for Active; 'I' for Inactive)
REMARK    1  A    between atoms: C_2  and  C_3 
REMARK    2  A    between atoms: C_3  and  O_6 
REMARK    3  A    between atoms: C_3  and  C_4 
REMARK    4  A    between atoms: C_7  and  O_6 
REMARK    5  A    between atoms: C_9  and  C_10 
REMARK    6  A    between atoms: N_15  and  C_14 
REMARK    7  A    between atoms: N_20  and  C_19 
REMARK       I    between atoms: C_22  and  N_20 
ROOT
ATOM      1  C   LIG d   1      -4.396  92.544 116.768  0.00  0.00     0.161 C 
ATOM      2  C   LIG d   1      -3.453  93.386 117.381  0.00  0.00     0.016 C 
ATOM      3  C   LIG d   1      -3.794  94.598 118.023  0.00  0.00     0.038 C 
ATOM      4  C   LIG d   1      -5.128  94.979 118.228  0.00  0.00     0.028 C 
ATOM      5  C   LIG d   1      -6.087  94.413 117.185  0.00  0.00    -0.047 C 
ATOM      6  C   LIG d   1      -5.868  92.887 117.078  0.00  0.00     0.091 C 
ENDROOT
BRANCH   1   7
ATOM      7  O   LIG d   1      -4.119  91.171 117.108  0.00  0.00    -0.368 OA
BRANCH   7   8
ATOM      8  C   LIG d   1      -3.279  90.959 118.269  0.00  0.00     0.119 C 
BRANCH   8   9
ATOM      9  C   LIG d   1      -2.158  89.984 117.858  0.00  0.00     0.028 C 
ATOM     10  C   LIG d   1      -0.874  90.714 117.431  0.00  0.00     0.006 C 
ENDBRANCH   8   9
BRANCH   8  11
ATOM     11  C   LIG d   1      -4.045  90.247 119.388  0.00  0.00     0.028 C 
ATOM     12  C   LIG d   1      -3.301  89.016 119.930  0.00  0.00     0.006 C 
ENDBRANCH   8  11
ENDBRANCH   7   8
ENDBRANCH   1   7
BRANCH   6  13
ATOM     13  N   LIG d   1      -6.707  92.267 116.020  0.00  0.00    -0.311 N 
ATOM     14  C   LIG d   1      -7.506  91.223 116.236  0.00  0.00     0.210 C 
ATOM     15  C   LIG d   1      -8.269  90.727 115.004  0.00  0.00     0.109 C 
ATOM     16  O   LIG d   1      -7.680  90.681 117.338  0.00  0.00    -0.276 OA
ATOM     17  H   LIG d   1      -6.651  92.664 115.103  0.00  0.00     0.149 HD
ENDBRANCH   6  13
BRANCH   5  18
ATOM     18  N   LIG d   1      -7.456  94.774 117.598  0.00  0.00     0.381 N 
ATOM     19  H   LIG d   1      -7.815  95.488 116.995  0.00  0.00    -0.090 HD
ATOM     20  H   LIG d   1      -7.429  95.136 118.534  0.00  0.00    -0.090 HD
ATOM     21  H   LIG d   1      -8.046  93.971 117.561  0.00  0.00    -0.090 HD
ENDBRANCH   5  18
BRANCH   3  22
ATOM     22  C   LIG d   1      -2.791  95.464 118.432  0.00  0.00     0.382 C 
ATOM     23  O   LIG d   1      -3.083  96.620 118.823  0.00  0.00    -0.241 OA
ATOM     24  O   LIG d   1      -1.596  95.120 118.373  0.00  0.00    -0.241 OA
ENDBRANCH   3  22
TORSDOF 7
ENDMDL
MODEL 6
REMARK VINA RESULT:      -5.0      2.454      4.780
REMARK  7 active torsions:
REMARK  status: ('A' for Active; 'I' for Inactive)
REMARK    1  A    between atoms: C_2  and  C_3 
REMARK    2  A    between atoms: C_3  and  O_6 
REMARK    3  A    between atoms: C_3  and  C_4 
REMARK    4  A    between atoms: C_7  and  O_6 
REMARK    5  A    between atoms: C_9  and  C_10 
REMARK    6  A    between atoms: N_15  and  C_14 
REMARK    7  A    between atoms: N_20  and  C_19 
REMARK       I    between atoms: C_22  and  N_20 
ROOT
ATOM      1  C   LIG d   1      -6.250  91.284 118.205  0.00  0.00     0.161 C 
ATOM      2  C   LIG d   1      -7.331  92.173 118.326  0.00  0.00     0.016 C 
ATOM      3  C   LIG d   1      -7.196  93.505 118.779  0.00  0.00     0.038 C 
ATOM      4  C   LIG d   1      -5.940  94.089 119.001  0.00  0.00     0.028 C 
ATOM      5  C   LIG d   1      -4.860  93.080 119.376  0.00  0.00    -0.047 C 
ATOM      6  C   LIG d   1      -4.858  91.936 118.336  0.00  0.00     0.091 C 
ENDROOT
BRANCH   1   7
ATOM      7  O   LIG d   1      -6.349  90.560 116.963  0.00  0.00    -0.368 OA
BRANCH   7   8
ATOM      8  C   LIG d   1      -7.130  91.191 115.918  0.00  0.00     0.119 C 
BRANCH   8   9
ATOM      9  C   LIG d   1      -7.805  90.070 115.103  0.00  0.00     0.028 C 
ATOM     10  C   LIG d   1      -8.836  89.284 115.930  0.00  0.00     0.006 C 
ENDBRANCH   8   9
BRANCH   8  11
ATOM     11  C   LIG d   1      -6.232  91.931 114.922  0.00  0.00     0.028 C 
ATOM     12  C   LIG d   1      -6.226  93.452 115.143  0.00  0.00     0.006 C 
ENDBRANCH   8  11
ENDBRANCH   7   8
ENDBRANCH   1   7
BRANCH   6  13
ATOM     13  N   LIG d   1      -3.888  90.863 118.675  0.00  0.00    -0.311 N 
ATOM     14  C   LIG d   1      -2.648  90.815 118.191  0.00  0.00     0.210 C 
ATOM     15  C   LIG d   1      -1.820  89.612 118.653  0.00  0.00     0.109 C 
ATOM     16  O   LIG d   1      -2.146  91.672 117.448  0.00  0.00    -0.276 OA
ATOM     17  H   LIG d   1      -4.203  90.143 119.297  0.00  0.00     0.149 HD
ENDBRANCH   6  13
BRANCH   5  18
ATOM     18  N   LIG d   1      -3.577  93.803 119.443  0.00  0.00     0.381 N 
ATOM     19  H   LIG d   1      -2.923  93.283 119.993  0.00  0.00    -0.090 HD
ATOM     20  H   LIG d   1      -3.727  94.692 119.888  0.00  0.00    -0.090 HD
ATOM     21  H   LIG d   1      -3.215  93.941 118.525  0.00  0.00    -0.090 HD
ENDBRANCH   5  18
BRANCH   3  22
ATOM     22  C   LIG d   1      -8.329  94.256 119.054  0.00  0.00     0.382 C 
ATOM     23  O   LIG d   1      -9.468  93.760 118.875  0.00  0.00    -0.241 OA
ATOM     24  O   LIG d   1      -8.227  95.437 119.436  0.00  0.00    -0.241 OA
ENDBRANCH   3  22
TORSDOF 7
ENDMDL
MODEL 7
REMARK VINA RESULT:      -4.9      2.194      4.829
REMARK  7 active torsions:
REMARK  status: ('A' for Active; 'I' for Inactive)
REMARK    1  A    between atoms: C_2  and  C_3 
REMARK    2  A    between atoms: C_3  and  O_6 
REMARK    3  A    between atoms: C_3  and  C_4 
REMARK    4  A    between atoms: C_7  and  O_6 
REMARK    5  A    between atoms: C_9  and  C_10 
REMARK    6  A    between atoms: N_15  and  C_14 
REMARK    7  A    between atoms: N_20  and  C_19 
REMARK       I    between atoms: C_22  and  N_20 
ROOT
ATOM      1  C   LIG d   1      -4.457  93.442 117.616  0.00  0.00     0.161 C 
ATOM      2  C   LIG d   1      -4.226  94.623 118.342  0.00  0.00     0.016 C 
ATOM      3  C   LIG d   1      -5.235  95.571 118.625  0.00  0.00     0.038 C 
ATOM      4  C   LIG d   1      -6.585  95.329 118.331  0.00  0.00     0.028 C 
ATOM      5  C   LIG d   1      -6.787  94.382 117.152  0.00  0.00    -0.047 C 
ATOM      6  C   LIG d   1      -5.945  93.107 117.383  0.00  0.00     0.091 C 
ENDROOT
BRANCH   1   7
ATOM      7  O   LIG d   1      -3.789  92.337 118.256  0.00  0.00    -0.368 OA
BRANCH   7   8
ATOM      8  C   LIG d   1      -2.951  91.518 117.403  0.00  0.00     0.119 C 
BRANCH   8   9
ATOM      9  C   LIG d   1      -3.275  90.044 117.714  0.00  0.00     0.028 C 
ATOM     10  C   LIG d   1      -3.918  89.863 119.099  0.00  0.00     0.006 C 
ENDBRANCH   8   9
BRANCH   8  11
ATOM     11  C   LIG d   1      -1.468  91.689 117.749  0.00  0.00     0.028 C 
ATOM     12  C   LIG d   1      -0.618  90.476 117.341  0.00  0.00     0.006 C 
ENDBRANCH   8  11
ENDBRANCH   7   8
ENDBRANCH   1   7
BRANCH   6  13
ATOM     13  N   LIG d   1      -6.019  92.163 116.237  0.00  0.00    -0.311 N 
ATOM     14  C   LIG d   1      -6.820  91.100 116.213  0.00  0.00     0.210 C 
ATOM     15  C   LIG d   1      -6.727  90.248 114.944  0.00  0.00     0.109 C 
ATOM     16  O   LIG d   1      -7.623  90.799 117.109  0.00  0.00    -0.276 OA
ATOM     17  H   LIG d   1      -5.424  92.350 115.453  0.00  0.00     0.149 HD
ENDBRANCH   6  13
BRANCH   5  18
ATOM     18  N   LIG d   1      -8.233  94.109 117.043  0.00  0.00     0.381 N 
ATOM     19  H   LIG d   1      -8.377  93.179 116.703  0.00  0.00    -0.090 HD
ATOM     20  H   LIG d   1      -8.636  94.751 116.384  0.00  0.00    -0.090 HD
ATOM     21  H   LIG d   1      -8.668  94.216 117.932  0.00  0.00    -0.090 HD
ENDBRANCH   5  18
BRANCH   3  22
ATOM     22  C   LIG d   1      -4.891  96.797 119.175  0.00  0.00     0.382 C 
ATOM     23  O   LIG d   1      -3.760  97.289 118.951  0.00  0.00    -0.241 OA
ATOM     24  O   LIG d   1      -5.682  97.395 119.929  0.00  0.00    -0.241 OA
ENDBRANCH   3  22
TORSDOF 7
ENDMDL
MODEL 8
REMARK VINA RESULT:      -4.9      2.218      5.218
REMARK  7 active torsions:
REMARK  status: ('A' for Active; 'I' for Inactive)
REMARK    1  A    between atoms: C_2  and  C_3 
REMARK    2  A    between atoms: C_3  and  O_6 
REMARK    3  A    between atoms: C_3  and  C_4 
REMARK    4  A    between atoms: C_7  and  O_6 
REMARK    5  A    between atoms: C_9  and  C_10 
REMARK    6  A    between atoms: N_15  and  C_14 
REMARK    7  A    between atoms: N_20  and  C_19 
REMARK       I    between atoms: C_22  and  N_20 
ROOT
ATOM      1  C   LIG d   1      -4.638  93.150 116.883  0.00  0.00     0.161 C 
ATOM      2  C   LIG d   1      -3.683  92.121 116.874  0.00  0.00     0.016 C 
ATOM      3  C   LIG d   1      -2.607  92.048 117.789  0.00  0.00     0.038 C 
ATOM      4  C   LIG d   1      -2.501  92.925 118.879  0.00  0.00     0.028 C 
ATOM      5  C   LIG d   1      -3.156  94.280 118.632  0.00  0.00    -0.047 C 
ATOM      6  C   LIG d   1      -4.602  94.054 118.133  0.00  0.00     0.091 C 
ENDROOT
BRANCH   1   7
ATOM      7  O   LIG d   1      -5.956  92.596 116.704  0.00  0.00    -0.368 OA
BRANCH   7   8
ATOM      8  C   LIG d   1      -6.602  92.885 115.440  0.00  0.00     0.119 C 
BRANCH   8   9
ATOM      9  C   LIG d   1      -8.101  93.105 115.725  0.00  0.00     0.028 C 
ATOM     10  C   LIG d   1      -8.357  93.614 117.154  0.00  0.00     0.006 C 
ENDBRANCH   8   9
BRANCH   8  11
ATOM     11  C   LIG d   1      -6.542  91.681 114.495  0.00  0.00     0.028 C 
ATOM     12  C   LIG d   1      -7.365  90.485 115.001  0.00  0.00     0.006 C 
ENDBRANCH   8  11
ENDBRANCH   7   8
ENDBRANCH   1   7
BRANCH   6  13
ATOM     13  N   LIG d   1      -5.287  95.327 117.788  0.00  0.00    -0.311 N 
ATOM     14  C   LIG d   1      -6.066  95.995 118.637  0.00  0.00     0.210 C 
ATOM     15  C   LIG d   1      -6.692  97.274 118.073  0.00  0.00     0.109 C 
ATOM     16  O   LIG d   1      -6.272  95.666 119.815  0.00  0.00    -0.276 OA
ATOM     17  H   LIG d   1      -5.149  95.682 116.862  0.00  0.00     0.149 HD
ENDBRANCH   6  13
BRANCH   5  18
ATOM     18  N   LIG d   1      -3.092  95.042 119.893  0.00  0.00     0.381 N 
ATOM     19  H   LIG d   1      -3.943  94.921 120.406  0.00  0.00    -0.090 HD
ATOM     20  H   LIG d   1      -2.989  96.018 119.678  0.00  0.00    -0.090 HD
ATOM     21  H   LIG d   1      -2.319  94.732 120.440  0.00  0.00    -0.090 HD
ENDBRANCH   5  18
BRANCH   3  22
ATOM     22  C   LIG d   1      -1.602  91.113 117.595  0.00  0.00     0.382 C 
ATOM     23  O   LIG d   1      -1.831  89.896 117.793  0.00  0.00    -0.241 OA
ATOM     24  O   LIG d   1      -0.456  91.477 117.268  0.00  0.00    -0.241 OA
ENDBRANCH   3  22
TORSDOF 7
ENDMDL
MODEL 9
REMARK VINA RESULT:      -4.8      2.256      5.118
REMARK  7 active torsions:
REMARK  status: ('A' for Active; 'I' for Inactive)
REMARK    1  A    between atoms: C_2  and  C_3 
REMARK    2  A    between atoms: C_3  and  O_6 
REMARK    3  A    between atoms: C_3  and  C_4 
REMARK    4  A    between atoms: C_7  and  O_6 
REMARK    5  A    between atoms: C_9  and  C_10 
REMARK    6  A    between atoms: N_15  and  C_14 
REMARK    7  A    between atoms: N_20  and  C_19 
REMARK       I    between atoms: C_22  and  N_20 
ROOT
ATOM      1  C   LIG d   1      -4.051  92.281 117.381  0.00  0.00     0.161 C 
ATOM      2  C   LIG d   1      -3.024  91.326 117.297  0.00  0.00     0.016 C 
ATOM      3  C   LIG d   1      -1.665  91.619 117.557  0.00  0.00     0.038 C 
ATOM      4  C   LIG d   1      -1.260  92.861 118.069  0.00  0.00     0.028 C 
ATOM      5  C   LIG d   1      -2.192  94.006 117.689  0.00  0.00    -0.047 C 
ATOM      6  C   LIG d   1      -3.643  93.612 118.046  0.00  0.00     0.091 C 
ENDROOT
BRANCH   1   7
ATOM      7  O   LIG d   1      -5.192  91.713 118.054  0.00  0.00    -0.368 OA
BRANCH   7   8
ATOM      8  C   LIG d   1      -6.339  91.411 117.222  0.00  0.00     0.119 C 
BRANCH   8   9
ATOM      9  C   LIG d   1      -5.929  91.671 115.759  0.00  0.00     0.028 C 
ATOM     10  C   LIG d   1      -5.959  90.392 114.905  0.00  0.00     0.006 C 
ENDBRANCH   8   9
BRANCH   8  11
ATOM     11  C   LIG d   1      -7.496  92.376 117.496  0.00  0.00     0.028 C 
ATOM     12  C   LIG d   1      -7.914  93.175 116.252  0.00  0.00     0.006 C 
ENDBRANCH   8  11
ENDBRANCH   7   8
ENDBRANCH   1   7
BRANCH   6  13
ATOM     13  N   LIG d   1      -4.630  94.643 117.629  0.00  0.00    -0.311 N 
ATOM     14  C   LIG d   1      -5.481  95.226 118.471  0.00  0.00     0.210 C 
ATOM     15  C   LIG d   1      -6.426  96.248 117.831  0.00  0.00     0.109 C 
ATOM     16  O   LIG d   1      -5.520  95.018 119.693  0.00  0.00    -0.276 OA
ATOM     17  H   LIG d   1      -4.645  94.895 116.660  0.00  0.00     0.149 HD
ENDBRANCH   6  13
BRANCH   5  18
ATOM     18  N   LIG d   1      -1.729  95.213 118.401  0.00  0.00     0.381 N 
ATOM     19  H   LIG d   1      -1.622  95.011 119.375  0.00  0.00    -0.090 HD
ATOM     20  H   LIG d   1      -2.421  95.934 118.302  0.00  0.00    -0.090 HD
ATOM     21  H   LIG d   1      -0.861  95.521 118.021  0.00  0.00    -0.090 HD
ENDBRANCH   5  18
BRANCH   3  22
ATOM     22  C   LIG d   1      -0.691  90.677 117.267  0.00  0.00     0.382 C 
ATOM     23  O   LIG d   1       0.224  90.951 116.453  0.00  0.00    -0.241 OA
ATOM     24  O   LIG d   1      -0.740  89.540 117.775  0.00  0.00    -0.241 OA
ENDBRANCH   3  22
TORSDOF 7
ENDMDL
