MODEL 1
REMARK VINA RESULT:      -5.9      0.000      0.000
REMARK  7 active torsions:
REMARK  status: ('A' for Active; 'I' for Inactive)
REMARK    1  A    between atoms: C_2  and  C_3 
REMARK    2  A    between atoms: C_3  and  O_6 
REMARK    3  A    between atoms: C_3  and  C_4 
REMARK    4  A    between atoms: C_7  and  O_6 
REMARK    5  A    between atoms: C_9  and  C_10 
REMARK    6  A    between atoms: N_15  and  C_14 
REMARK    7  A    between atoms: N_20  and  C_19 
REMARK       I    between atoms: C_22  and  N_20 
ROOT
ATOM      1  C   LIG d   1      -5.126  91.319 116.347  0.00  0.00     0.161 C 
ATOM      2  C   LIG d   1      -4.444  90.231 115.777  0.00  0.00     0.016 C 
ATOM      3  C   LIG d   1      -5.016  89.377 114.806  0.00  0.00     0.038 C 
ATOM      4  C   LIG d   1      -6.264  89.646 114.225  0.00  0.00     0.028 C 
ATOM      5  C   LIG d   1      -7.196  90.443 115.132  0.00  0.00    -0.047 C 
ATOM      6  C   LIG d   1      -6.447  91.694 115.645  0.00  0.00     0.091 C 
ENDROOT
BRANCH   1   7
ATOM      7  O   LIG d   1      -4.251  92.462 116.414  0.00  0.00    -0.368 OA
BRANCH   7   8
ATOM      8  C   LIG d   1      -3.600  92.694 117.687  0.00  0.00     0.119 C 
BRANCH   8   9
ATOM      9  C   LIG d   1      -4.594  92.294 118.795  0.00  0.00     0.028 C 
ATOM     10  C   LIG d   1      -3.952  91.392 119.862  0.00  0.00     0.006 C 
ENDBRANCH   8   9
BRANCH   8  11
ATOM     11  C   LIG d   1      -3.322  94.183 117.909  0.00  0.00     0.028 C 
ATOM     12  C   LIG d   1      -4.534  94.937 118.479  0.00  0.00     0.006 C 
ENDBRANCH   8  11
ENDBRANCH   7   8
ENDBRANCH   1   7
BRANCH   6  13
ATOM     13  N   LIG d   1      -7.259  92.486 116.606  0.00  0.00    -0.311 N 
ATOM     14  C   LIG d   1      -7.483  93.792 116.474  0.00  0.00     0.210 C 
ATOM     15  C   LIG d   1      -8.329  94.418 117.588  0.00  0.00     0.109 C 
ATOM     16  O   LIG d   1      -7.089  94.485 115.525  0.00  0.00    -0.276 OA
ATOM     17  H   LIG d   1      -7.643  91.996 117.390  0.00  0.00     0.149 HD
ENDBRANCH   6  13
BRANCH   5  18
ATOM     18  N   LIG d   1      -8.404  90.770 114.352  0.00  0.00     0.381 N 
ATOM     19  H   LIG d   1      -9.221  90.555 114.887  0.00  0.00    -0.090 HD
ATOM     20  H   LIG d   1      -8.416  90.209 113.519  0.00  0.00    -0.090 HD
ATOM     21  H   LIG d   1      -8.402  91.737 114.110  0.00  0.00    -0.090 HD
ENDBRANCH   5  18
BRANCH   3  22
ATOM     22  C   LIG d   1      -4.354  88.216 114.436  0.00  0.00     0.382 C 
ATOM     23  O   LIG d   1      -4.568  87.703 113.311  0.00  0.00    -0.241 OA
ATOM     24  O   LIG d   1      -3.578  87.651 115.230  0.00  0.00    -0.241 OA
ENDBRANCH   3  22
TORSDOF 7
ENDMDL
MODEL 2
REMARK VINA RESULT:      -5.9      0.865      1.552
REMARK  7 active torsions:
REMARK  status: ('A' for Active; 'I' for Inactive)
REMARK    1  A    between atoms: C_2  and  C_3 
REMARK    2  A    between atoms: C_3  and  O_6 
REMARK    3  A    between atoms: C_3  and  C_4 
REMARK    4  A    between atoms: C_7  and  O_6 
REMARK    5  A    between atoms: C_9  and  C_10 
REMARK    6  A    between atoms: N_15  and  C_14 
REMARK    7  A    between atoms: N_20  and  C_19 
REMARK       I    between atoms: C_22  and  N_20 
ROOT
ATOM      1  C   LIG d   1      -4.987  91.026 116.604  0.00  0.00     0.161 C 
ATOM      2  C   LIG d   1      -4.339  89.945 115.984  0.00  0.00     0.016 C 
ATOM      3  C   LIG d   1      -4.870  89.252 114.872  0.00  0.00     0.038 C 
ATOM      4  C   LIG d   1      -6.023  89.694 114.205  0.00  0.00     0.028 C 
ATOM      5  C   LIG d   1      -6.979  90.475 115.101  0.00  0.00    -0.047 C 
ATOM      6  C   LIG d   1      -6.191  91.593 115.822  0.00  0.00     0.091 C 
ENDROOT
BRANCH   1   7
ATOM      7  O   LIG d   1      -4.035  92.071 116.884  0.00  0.00    -0.368 OA
BRANCH   7   8
ATOM      8  C   LIG d   1      -3.551  92.144 118.247  0.00  0.00     0.119 C 
BRANCH   8   9
ATOM      9  C   LIG d   1      -4.168  93.401 118.891  0.00  0.00     0.028 C 
ATOM     10  C   LIG d   1      -3.949  94.664 118.041  0.00  0.00     0.006 C 
ENDBRANCH   8   9
BRANCH   8  11
ATOM     11  C   LIG d   1      -2.036  92.369 118.290  0.00  0.00     0.028 C 
ATOM     12  C   LIG d   1      -1.245  91.220 117.646  0.00  0.00     0.006 C 
ENDBRANCH   8  11
ENDBRANCH   7   8
ENDBRANCH   1   7
BRANCH   6  13
ATOM     13  N   LIG d   1      -7.034  92.352 116.782  0.00  0.00    -0.311 N 
ATOM     14  C   LIG d   1      -7.262  93.660 116.681  0.00  0.00     0.210 C 
ATOM     15  C   LIG d   1      -8.143  94.249 117.787  0.00  0.00     0.109 C 
ATOM     16  O   LIG d   1      -6.846  94.382 115.763  0.00  0.00    -0.276 OA
ATOM     17  H   LIG d   1      -7.437  91.838 117.540  0.00  0.00     0.149 HD
ENDBRANCH   6  13
BRANCH   5  18
ATOM     18  N   LIG d   1      -8.066  90.992 114.248  0.00  0.00     0.381 N 
ATOM     19  H   LIG d   1      -7.878  91.943 113.999  0.00  0.00    -0.090 HD
ATOM     20  H   LIG d   1      -8.926  90.965 114.766  0.00  0.00    -0.090 HD
ATOM     21  H   LIG d   1      -8.148  90.436 113.425  0.00  0.00    -0.090 HD
ENDBRANCH   5  18
BRANCH   3  22
ATOM     22  C   LIG d   1      -4.268  88.080 114.441  0.00  0.00     0.382 C 
ATOM     23  O   LIG d   1      -4.540  87.616 113.307  0.00  0.00    -0.241 OA
ATOM     24  O   LIG d   1      -3.491  87.457 115.188  0.00  0.00    -0.241 OA
ENDBRANCH   3  22
TORSDOF 7
ENDMDL
MODEL 3
REMARK VINA RESULT:      -5.5      2.062      5.206
REMARK  7 active torsions:
REMARK  status: ('A' for Active; 'I' for Inactive)
REMARK    1  A    between atoms: C_2  and  C_3 
REMARK    2  A    between atoms: C_3  and  O_6 
REMARK    3  A    between atoms: C_3  and  C_4 
REMARK    4  A    between atoms: C_7  and  O_6 
REMARK    5  A    between atoms: C_9  and  C_10 
REMARK    6  A    between atoms: N_15  and  C_14 
REMARK    7  A    between atoms: N_20  and  C_19 
REMARK       I    between atoms: C_22  and  N_20 
ROOT
ATOM      1  C   LIG d   1      -5.038  93.063 117.125  0.00  0.00     0.161 C 
ATOM      2  C   LIG d   1      -5.453  94.268 117.716  0.00  0.00     0.016 C 
ATOM      3  C   LIG d   1      -6.707  94.869 117.460  0.00  0.00     0.038 C 
ATOM      4  C   LIG d   1      -7.698  94.223 116.705  0.00  0.00     0.028 C 
ATOM      5  C   LIG d   1      -7.137  93.244 115.680  0.00  0.00    -0.047 C 
ATOM      6  C   LIG d   1      -6.149  92.288 116.386  0.00  0.00     0.091 C 
ENDROOT
BRANCH   1   7
ATOM      7  O   LIG d   1      -4.415  92.222 118.116  0.00  0.00    -0.368 OA
BRANCH   7   8
ATOM      8  C   LIG d   1      -2.967  92.173 118.091  0.00  0.00     0.119 C 
BRANCH   8   9
ATOM      9  C   LIG d   1      -2.559  90.738 117.704  0.00  0.00     0.028 C 
ATOM     10  C   LIG d   1      -3.291  89.675 118.541  0.00  0.00     0.006 C 
ENDBRANCH   8   9
BRANCH   8  11
ATOM     11  C   LIG d   1      -2.377  92.401 119.486  0.00  0.00     0.028 C 
ATOM     12  C   LIG d   1      -2.207  93.890 119.825  0.00  0.00     0.006 C 
ENDBRANCH   8  11
ENDBRANCH   7   8
ENDBRANCH   1   7
BRANCH   6  13
ATOM     13  N   LIG d   1      -5.491  91.352 115.439  0.00  0.00    -0.311 N 
ATOM     14  C   LIG d   1      -5.543  90.027 115.562  0.00  0.00     0.210 C 
ATOM     15  C   LIG d   1      -4.779  89.246 114.488  0.00  0.00     0.109 C 
ATOM     16  O   LIG d   1      -6.177  89.423 116.441  0.00  0.00    -0.276 OA
ATOM     17  H   LIG d   1      -4.980  91.756 114.678  0.00  0.00     0.149 HD
ENDBRANCH   6  13
BRANCH   5  18
ATOM     18  N   LIG d   1      -8.278  92.543 115.062  0.00  0.00     0.381 N 
ATOM     19  H   LIG d   1      -8.335  91.609 115.417  0.00  0.00    -0.090 HD
ATOM     20  H   LIG d   1      -8.132  92.495 114.069  0.00  0.00    -0.090 HD
ATOM     21  H   LIG d   1      -9.125  93.031 115.257  0.00  0.00    -0.090 HD
ENDBRANCH   5  18
BRANCH   3  22
ATOM     22  C   LIG d   1      -6.965  96.148 117.928  0.00  0.00     0.382 C 
ATOM     23  O   LIG d   1      -6.931  96.384 119.160  0.00  0.00    -0.241 OA
ATOM     24  O   LIG d   1      -7.274  97.060 117.137  0.00  0.00    -0.241 OA
ENDBRANCH   3  22
TORSDOF 7
ENDMDL
MODEL 4
REMARK VINA RESULT:      -5.5      2.097      5.437
REMARK  7 active torsions:
REMARK  status: ('A' for Active; 'I' for Inactive)
REMARK    1  A    between atoms: C_2  and  C_3 
REMARK    2  A    between atoms: C_3  and  O_6 
REMARK    3  A    between atoms: C_3  and  C_4 
REMARK    4  A    between atoms: C_7  and  O_6 
REMARK    5  A    between atoms: C_9  and  C_10 
REMARK    6  A    between atoms: N_15  and  C_14 
REMARK    7  A    between atoms: N_20  and  C_19 
REMARK       I    between atoms: C_22  and  N_20 
ROOT
ATOM      1  C   LIG d   1      -5.139  92.945 117.544  0.00  0.00     0.161 C 
ATOM      2  C   LIG d   1      -5.569  94.167 118.089  0.00  0.00     0.016 C 
ATOM      3  C   LIG d   1      -6.644  94.918 117.563  0.00  0.00     0.038 C 
ATOM      4  C   LIG d   1      -7.466  94.421 116.541  0.00  0.00     0.028 C 
ATOM      5  C   LIG d   1      -6.761  93.423 115.628  0.00  0.00    -0.047 C 
ATOM      6  C   LIG d   1      -6.094  92.333 116.498  0.00  0.00     0.091 C 
ENDROOT
BRANCH   1   7
ATOM      7  O   LIG d   1      -4.884  92.001 118.603  0.00  0.00    -0.368 OA
BRANCH   7   8
ATOM      8  C   LIG d   1      -3.530  91.971 119.118  0.00  0.00     0.119 C 
BRANCH   8   9
ATOM      9  C   LIG d   1      -2.575  92.101 117.916  0.00  0.00     0.028 C 
ATOM     10  C   LIG d   1      -1.208  92.684 118.313  0.00  0.00     0.006 C 
ENDBRANCH   8   9
BRANCH   8  11
ATOM     11  C   LIG d   1      -3.204  90.615 119.751  0.00  0.00     0.028 C 
ATOM     12  C   LIG d   1      -3.178  89.470 118.726  0.00  0.00     0.006 C 
ENDBRANCH   8  11
ENDBRANCH   7   8
ENDBRANCH   1   7
BRANCH   6  13
ATOM     13  N   LIG d   1      -5.311  91.362 115.688  0.00  0.00    -0.311 N 
ATOM     14  C   LIG d   1      -5.470  90.043 115.771  0.00  0.00     0.210 C 
ATOM     15  C   LIG d   1      -4.548  89.222 114.863  0.00  0.00     0.109 C 
ATOM     16  O   LIG d   1      -6.309  89.475 116.486  0.00  0.00    -0.276 OA
ATOM     17  H   LIG d   1      -4.630  91.739 115.059  0.00  0.00     0.149 HD
ENDBRANCH   6  13
BRANCH   5  18
ATOM     18  N   LIG d   1      -7.769  92.882 114.696  0.00  0.00     0.381 N 
ATOM     19  H   LIG d   1      -8.616  93.409 114.771  0.00  0.00    -0.090 HD
ATOM     20  H   LIG d   1      -7.966  91.930 114.947  0.00  0.00    -0.090 HD
ATOM     21  H   LIG d   1      -7.425  92.923 113.762  0.00  0.00    -0.090 HD
ENDBRANCH   5  18
BRANCH   3  22
ATOM     22  C   LIG d   1      -6.882  96.200 118.034  0.00  0.00     0.382 C 
ATOM     23  O   LIG d   1      -6.802  96.442 119.263  0.00  0.00    -0.241 OA
ATOM     24  O   LIG d   1      -7.220  97.109 117.251  0.00  0.00    -0.241 OA
ENDBRANCH   3  22
TORSDOF 7
ENDMDL
MODEL 5
REMARK VINA RESULT:      -5.5      2.759      6.236
REMARK  7 active torsions:
REMARK  status: ('A' for Active; 'I' for Inactive)
REMARK    1  A    between atoms: C_2  and  C_3 
REMARK    2  A    between atoms: C_3  and  O_6 
REMARK    3  A    between atoms: C_3  and  C_4 
REMARK    4  A    between atoms: C_7  and  O_6 
REMARK    5  A    between atoms: C_9  and  C_10 
REMARK    6  A    between atoms: N_15  and  C_14 
REMARK    7  A    between atoms: N_20  and  C_19 
REMARK       I    between atoms: C_22  and  N_20 
ROOT
ATOM      1  C   LIG d   1      -5.663  92.905 116.936  0.00  0.00     0.161 C 
ATOM      2  C   LIG d   1      -6.912  93.344 117.404  0.00  0.00     0.016 C 
ATOM      3  C   LIG d   1      -7.066  94.362 118.374  0.00  0.00     0.038 C 
ATOM      4  C   LIG d   1      -5.978  95.119 118.833  0.00  0.00     0.028 C 
ATOM      5  C   LIG d   1      -4.650  94.372 118.766  0.00  0.00    -0.047 C 
ATOM      6  C   LIG d   1      -4.470  93.795 117.343  0.00  0.00     0.091 C 
ENDROOT
BRANCH   1   7
ATOM      7  O   LIG d   1      -5.705  92.748 115.504  0.00  0.00    -0.368 OA
BRANCH   7   8
ATOM      8  C   LIG d   1      -5.697  91.386 115.011  0.00  0.00     0.119 C 
BRANCH   8   9
ATOM      9  C   LIG d   1      -7.073  91.117 114.371  0.00  0.00     0.028 C 
ATOM     10  C   LIG d   1      -7.881  90.058 115.140  0.00  0.00     0.006 C 
ENDBRANCH   8   9
BRANCH   8  11
ATOM     11  C   LIG d   1      -5.580  90.379 116.159  0.00  0.00     0.028 C 
ATOM     12  C   LIG d   1      -4.408  89.401 115.976  0.00  0.00     0.006 C 
ENDBRANCH   8  11
ENDBRANCH   7   8
ENDBRANCH   1   7
BRANCH   6  13
ATOM     13  N   LIG d   1      -3.235  92.978 117.215  0.00  0.00    -0.311 N 
ATOM     14  C   LIG d   1      -2.925  91.982 118.043  0.00  0.00     0.210 C 
ATOM     15  C   LIG d   1      -1.596  91.282 117.744  0.00  0.00     0.109 C 
ATOM     16  O   LIG d   1      -3.641  91.591 118.977  0.00  0.00    -0.276 OA
ATOM     17  H   LIG d   1      -2.613  93.207 116.465  0.00  0.00     0.149 HD
ENDBRANCH   6  13
BRANCH   5  18
ATOM     18  N   LIG d   1      -3.585  95.322 119.142  0.00  0.00     0.381 N 
ATOM     19  H   LIG d   1      -3.317  95.170 120.094  0.00  0.00    -0.090 HD
ATOM     20  H   LIG d   1      -3.941  96.258 119.061  0.00  0.00    -0.090 HD
ATOM     21  H   LIG d   1      -2.797  95.205 118.545  0.00  0.00    -0.090 HD
ENDBRANCH   5  18
BRANCH   3  22
ATOM     22  C   LIG d   1      -8.316  94.604 118.924  0.00  0.00     0.382 C 
ATOM     23  O   LIG d   1      -8.523  95.661 119.566  0.00  0.00    -0.241 OA
ATOM     24  O   LIG d   1      -9.225  93.758 118.823  0.00  0.00    -0.241 OA
ENDBRANCH   3  22
TORSDOF 7
ENDMDL
MODEL 6
REMARK VINA RESULT:      -5.3      2.775      4.328
REMARK  7 active torsions:
REMARK  status: ('A' for Active; 'I' for Inactive)
REMARK    1  A    between atoms: C_2  and  C_3 
REMARK    2  A    between atoms: C_3  and  O_6 
REMARK    3  A    between atoms: C_3  and  C_4 
REMARK    4  A    between atoms: C_7  and  O_6 
REMARK    5  A    between atoms: C_9  and  C_10 
REMARK    6  A    between atoms: N_15  and  C_14 
REMARK    7  A    between atoms: N_20  and  C_19 
REMARK       I    between atoms: C_22  and  N_20 
ROOT
ATOM      1  C   LIG d   1      -5.494  92.722 117.173  0.00  0.00     0.161 C 
ATOM      2  C   LIG d   1      -6.549  91.882 116.781  0.00  0.00     0.016 C 
ATOM      3  C   LIG d   1      -6.374  90.525 116.426  0.00  0.00     0.038 C 
ATOM      4  C   LIG d   1      -5.143  89.870 116.585  0.00  0.00     0.028 C 
ATOM      5  C   LIG d   1      -3.943  90.807 116.497  0.00  0.00    -0.047 C 
ATOM      6  C   LIG d   1      -4.163  91.996 117.460  0.00  0.00     0.091 C 
ENDROOT
BRANCH   1   7
ATOM      7  O   LIG d   1      -5.892  93.507 118.314  0.00  0.00    -0.368 OA
BRANCH   7   8
ATOM      8  C   LIG d   1      -6.055  94.928 118.084  0.00  0.00     0.119 C 
BRANCH   8   9
ATOM      9  C   LIG d   1      -5.529  95.663 119.332  0.00  0.00     0.028 C 
ATOM     10  C   LIG d   1      -5.648  97.191 119.208  0.00  0.00     0.006 C 
ENDBRANCH   8   9
BRANCH   8  11
ATOM     11  C   LIG d   1      -7.535  95.310 117.982  0.00  0.00     0.028 C 
ATOM     12  C   LIG d   1      -8.437  94.443 118.874  0.00  0.00     0.006 C 
ENDBRANCH   8  11
ENDBRANCH   7   8
ENDBRANCH   1   7
BRANCH   6  13
ATOM     13  N   LIG d   1      -3.073  93.004 117.374  0.00  0.00    -0.311 N 
ATOM     14  C   LIG d   1      -2.482  93.536 118.441  0.00  0.00     0.210 C 
ATOM     15  C   LIG d   1      -1.396  94.571 118.130  0.00  0.00     0.109 C 
ATOM     16  O   LIG d   1      -2.730  93.227 119.616  0.00  0.00    -0.276 OA
ATOM     17  H   LIG d   1      -2.787  93.289 116.458  0.00  0.00     0.149 HD
ENDBRANCH   6  13
BRANCH   5  18
ATOM     18  N   LIG d   1      -2.738  90.018 116.817  0.00  0.00     0.381 N 
ATOM     19  H   LIG d   1      -3.004  89.140 117.216  0.00  0.00    -0.090 HD
ATOM     20  H   LIG d   1      -2.192  90.520 117.495  0.00  0.00    -0.090 HD
ATOM     21  H   LIG d   1      -2.200  89.867 115.993  0.00  0.00    -0.090 HD
ENDBRANCH   5  18
BRANCH   3  22
ATOM     22  C   LIG d   1      -7.428  89.819 115.867  0.00  0.00     0.382 C 
ATOM     23  O   LIG d   1      -7.717  89.977 114.656  0.00  0.00    -0.241 OA
ATOM     24  O   LIG d   1      -8.121  89.058 116.568  0.00  0.00    -0.241 OA
ENDBRANCH   3  22
TORSDOF 7
ENDMDL
MODEL 7
REMARK VINA RESULT:      -5.0      2.413      4.487
REMARK  7 active torsions:
REMARK  status: ('A' for Active; 'I' for Inactive)
REMARK    1  A    between atoms: C_2  and  C_3 
REMARK    2  A    between atoms: C_3  and  O_6 
REMARK    3  A    between atoms: C_3  and  C_4 
REMARK    4  A    between atoms: C_7  and  O_6 
REMARK    5  A    between atoms: C_9  and  C_10 
REMARK    6  A    between atoms: N_15  and  C_14 
REMARK    7  A    between atoms: N_20  and  C_19 
REMARK       I    between atoms: C_22  and  N_20 
ROOT
ATOM      1  C   LIG d   1      -4.232  90.560 116.156  0.00  0.00     0.161 C 
ATOM      2  C   LIG d   1      -4.120  89.223 115.739  0.00  0.00     0.016 C 
ATOM      3  C   LIG d   1      -3.143  88.331 116.240  0.00  0.00     0.038 C 
ATOM      4  C   LIG d   1      -2.303  88.676 117.309  0.00  0.00     0.028 C 
ATOM      5  C   LIG d   1      -2.044  90.175 117.416  0.00  0.00    -0.047 C 
ATOM      6  C   LIG d   1      -3.397  90.921 117.401  0.00  0.00     0.091 C 
ENDROOT
BRANCH   1   7
ATOM      7  O   LIG d   1      -5.619  90.889 116.369  0.00  0.00    -0.368 OA
BRANCH   7   8
ATOM      8  C   LIG d   1      -6.194  91.853 115.452  0.00  0.00     0.119 C 
BRANCH   8   9
ATOM      9  C   LIG d   1      -6.905  92.928 116.296  0.00  0.00     0.028 C 
ATOM     10  C   LIG d   1      -8.013  93.652 115.512  0.00  0.00     0.006 C 
ENDBRANCH   8   9
BRANCH   8  11
ATOM     11  C   LIG d   1      -7.292  91.219 114.594  0.00  0.00     0.028 C 
ATOM     12  C   LIG d   1      -7.838  89.913 115.193  0.00  0.00     0.006 C 
ENDBRANCH   8  11
ENDBRANCH   7   8
ENDBRANCH   1   7
BRANCH   6  13
ATOM     13  N   LIG d   1      -3.230  92.398 117.418  0.00  0.00    -0.311 N 
ATOM     14  C   LIG d   1      -3.841  93.195 118.293  0.00  0.00     0.210 C 
ATOM     15  C   LIG d   1      -3.547  94.689 118.122  0.00  0.00     0.109 C 
ATOM     16  O   LIG d   1      -4.573  92.804 119.215  0.00  0.00    -0.276 OA
ATOM     17  H   LIG d   1      -2.629  92.797 116.724  0.00  0.00     0.149 HD
ENDBRANCH   6  13
BRANCH   5  18
ATOM     18  N   LIG d   1      -1.270  90.406 118.651  0.00  0.00     0.381 N 
ATOM     19  H   LIG d   1      -1.860  90.809 119.351  0.00  0.00    -0.090 HD
ATOM     20  H   LIG d   1      -0.528  91.054 118.453  0.00  0.00    -0.090 HD
ATOM     21  H   LIG d   1      -0.890  89.546 118.981  0.00  0.00    -0.090 HD
ENDBRANCH   5  18
BRANCH   3  22
ATOM     22  C   LIG d   1      -2.973  87.092 115.642  0.00  0.00     0.382 C 
ATOM     23  O   LIG d   1      -2.077  86.315 116.052  0.00  0.00    -0.241 OA
ATOM     24  O   LIG d   1      -3.674  86.758 114.668  0.00  0.00    -0.241 OA
ENDBRANCH   3  22
TORSDOF 7
ENDMDL
MODEL 8
REMARK VINA RESULT:      -4.9      2.293      4.883
REMARK  7 active torsions:
REMARK  status: ('A' for Active; 'I' for Inactive)
REMARK    1  A    between atoms: C_2  and  C_3 
REMARK    2  A    between atoms: C_3  and  O_6 
REMARK    3  A    between atoms: C_3  and  C_4 
REMARK    4  A    between atoms: C_7  and  O_6 
REMARK    5  A    between atoms: C_9  and  C_10 
REMARK    6  A    between atoms: N_15  and  C_14 
REMARK    7  A    between atoms: N_20  and  C_19 
REMARK       I    between atoms: C_22  and  N_20 
ROOT
ATOM      1  C   LIG d   1      -4.511  92.293 117.337  0.00  0.00     0.161 C 
ATOM      2  C   LIG d   1      -5.670  93.035 117.055  0.00  0.00     0.016 C 
ATOM      3  C   LIG d   1      -6.603  92.672 116.056  0.00  0.00     0.038 C 
ATOM      4  C   LIG d   1      -6.516  91.452 115.368  0.00  0.00     0.028 C 
ATOM      5  C   LIG d   1      -5.092  90.916 115.264  0.00  0.00    -0.047 C 
ATOM      6  C   LIG d   1      -4.457  90.901 116.673  0.00  0.00     0.091 C 
ENDROOT
BRANCH   1   7
ATOM      7  O   LIG d   1      -4.341  92.176 118.763  0.00  0.00    -0.368 OA
BRANCH   7   8
ATOM      8  C   LIG d   1      -3.306  93.001 119.351  0.00  0.00     0.119 C 
BRANCH   8   9
ATOM      9  C   LIG d   1      -2.661  93.817 118.214  0.00  0.00     0.028 C 
ATOM     10  C   LIG d   1      -2.894  95.329 118.371  0.00  0.00     0.006 C 
ENDBRANCH   8   9
BRANCH   8  11
ATOM     11  C   LIG d   1      -2.174  92.147 119.930  0.00  0.00     0.028 C 
ATOM     12  C   LIG d   1      -0.838  92.352 119.197  0.00  0.00     0.006 C 
ENDBRANCH   8  11
ENDBRANCH   7   8
ENDBRANCH   1   7
BRANCH   6  13
ATOM     13  N   LIG d   1      -3.035  90.469 116.650  0.00  0.00    -0.311 N 
ATOM     14  C   LIG d   1      -2.558  89.478 117.402  0.00  0.00     0.210 C 
ATOM     15  C   LIG d   1      -1.059  89.208 117.238  0.00  0.00     0.109 C 
ATOM     16  O   LIG d   1      -3.240  88.777 118.164  0.00  0.00    -0.276 OA
ATOM     17  H   LIG d   1      -2.418  90.963 116.036  0.00  0.00     0.149 HD
ENDBRANCH   6  13
BRANCH   5  18
ATOM     18  N   LIG d   1      -5.164  89.577 114.648  0.00  0.00     0.381 N 
ATOM     19  H   LIG d   1      -5.135  88.875 115.360  0.00  0.00    -0.090 HD
ATOM     20  H   LIG d   1      -4.368  89.452 114.048  0.00  0.00    -0.090 HD
ATOM     21  H   LIG d   1      -6.005  89.490 114.120  0.00  0.00    -0.090 HD
ENDBRANCH   5  18
BRANCH   3  22
ATOM     22  C   LIG d   1      -7.615  93.554 115.707  0.00  0.00     0.382 C 
ATOM     23  O   LIG d   1      -8.741  93.115 115.372  0.00  0.00    -0.241 OA
ATOM     24  O   LIG d   1      -7.402  94.781 115.682  0.00  0.00    -0.241 OA
ENDBRANCH   3  22
TORSDOF 7
ENDMDL
MODEL 9
REMARK VINA RESULT:      -4.9      2.273      5.452
REMARK  7 active torsions:
REMARK  status: ('A' for Active; 'I' for Inactive)
REMARK    1  A    between atoms: C_2  and  C_3 
REMARK    2  A    between atoms: C_3  and  O_6 
REMARK    3  A    between atoms: C_3  and  C_4 
REMARK    4  A    between atoms: C_7  and  O_6 
REMARK    5  A    between atoms: C_9  and  C_10 
REMARK    6  A    between atoms: N_15  and  C_14 
REMARK    7  A    between atoms: N_20  and  C_19 
REMARK       I    between atoms: C_22  and  N_20 
ROOT
ATOM      1  C   LIG d   1      -4.899  92.868 116.918  0.00  0.00     0.161 C 
ATOM      2  C   LIG d   1      -4.472  93.796 117.882  0.00  0.00     0.016 C 
ATOM      3  C   LIG d   1      -5.223  94.935 118.252  0.00  0.00     0.038 C 
ATOM      4  C   LIG d   1      -6.531  95.143 117.791  0.00  0.00     0.028 C 
ATOM      5  C   LIG d   1      -6.804  94.501 116.434  0.00  0.00    -0.047 C 
ATOM      6  C   LIG d   1      -6.373  93.017 116.485  0.00  0.00     0.091 C 
ENDROOT
BRANCH   1   7
ATOM      7  O   LIG d   1      -4.648  91.528 117.386  0.00  0.00    -0.368 OA
BRANCH   7   8
ATOM      8  C   LIG d   1      -3.686  90.757 116.625  0.00  0.00     0.119 C 
BRANCH   8   9
ATOM      9  C   LIG d   1      -4.296  89.363 116.383  0.00  0.00     0.028 C 
ATOM     10  C   LIG d   1      -4.251  88.951 114.902  0.00  0.00     0.006 C 
ENDBRANCH   8   9
BRANCH   8  11
ATOM     11  C   LIG d   1      -2.409  90.506 117.434  0.00  0.00     0.028 C 
ATOM     12  C   LIG d   1      -2.621  89.513 118.588  0.00  0.00     0.006 C 
ENDBRANCH   8  11
ENDBRANCH   7   8
ENDBRANCH   1   7
BRANCH   6  13
ATOM     13  N   LIG d   1      -6.527  92.337 115.173  0.00  0.00    -0.311 N 
ATOM     14  C   LIG d   1      -7.169  91.180 115.018  0.00  0.00     0.210 C 
ATOM     15  C   LIG d   1      -7.195  90.642 113.584  0.00  0.00     0.109 C 
ATOM     16  O   LIG d   1      -7.747  90.565 115.927  0.00  0.00    -0.276 OA
ATOM     17  H   LIG d   1      -6.115  92.783 114.377  0.00  0.00     0.149 HD
ENDBRANCH   6  13
BRANCH   5  18
ATOM     18  N   LIG d   1      -8.238  94.676 116.138  0.00  0.00     0.381 N 
ATOM     19  H   LIG d   1      -8.512  95.619 116.333  0.00  0.00    -0.090 HD
ATOM     20  H   LIG d   1      -8.770  94.065 116.732  0.00  0.00    -0.090 HD
ATOM     21  H   LIG d   1      -8.418  94.462 115.182  0.00  0.00    -0.090 HD
ENDBRANCH   5  18
BRANCH   3  22
ATOM     22  C   LIG d   1      -4.650  95.902 119.064  0.00  0.00     0.382 C 
ATOM     23  O   LIG d   1      -3.455  95.788 119.427  0.00  0.00    -0.241 OA
ATOM     24  O   LIG d   1      -5.326  96.865 119.474  0.00  0.00    -0.241 OA
ENDBRANCH   3  22
TORSDOF 7
ENDMDL
