MODEL 1
REMARK VINA RESULT:      -5.4      0.000      0.000
REMARK  7 active torsions:
REMARK  status: ('A' for Active; 'I' for Inactive)
REMARK    1  A    between atoms: C_2  and  C_3 
REMARK    2  A    between atoms: C_3  and  O_6 
REMARK    3  A    between atoms: C_3  and  C_4 
REMARK    4  A    between atoms: C_7  and  O_6 
REMARK    5  A    between atoms: C_9  and  C_10 
REMARK    6  A    between atoms: N_15  and  C_14 
REMARK    7  A    between atoms: N_20  and  C_19 
REMARK       I    between atoms: C_22  and  N_20 
ROOT
ATOM      1  C   LIG d   1      -4.539  92.639 117.631  0.00  0.00     0.161 C 
ATOM      2  C   LIG d   1      -5.881  93.052 117.602  0.00  0.00     0.016 C 
ATOM      3  C   LIG d   1      -6.883  92.392 116.855  0.00  0.00     0.038 C 
ATOM      4  C   LIG d   1      -6.639  91.175 116.201  0.00  0.00     0.028 C 
ATOM      5  C   LIG d   1      -5.183  90.991 115.787  0.00  0.00    -0.047 C 
ATOM      6  C   LIG d   1      -4.277  91.250 117.013  0.00  0.00     0.091 C 
ENDROOT
BRANCH   1   7
ATOM      7  O   LIG d   1      -4.041  92.688 118.983  0.00  0.00    -0.368 OA
BRANCH   7   8
ATOM      8  C   LIG d   1      -3.142  93.781 119.291  0.00  0.00     0.119 C 
BRANCH   8   9
ATOM      9  C   LIG d   1      -3.981  94.905 119.930  0.00  0.00     0.028 C 
ATOM     10  C   LIG d   1      -3.735  96.270 119.266  0.00  0.00     0.006 C 
ENDBRANCH   8   9
BRANCH   8  11
ATOM     11  C   LIG d   1      -2.548  94.391 118.018  0.00  0.00     0.028 C 
ATOM     12  C   LIG d   1      -1.040  94.132 117.881  0.00  0.00     0.006 C 
ENDBRANCH   8  11
ENDBRANCH   7   8
ENDBRANCH   1   7
BRANCH   6  13
ATOM     13  N   LIG d   1      -2.831  91.173 116.675  0.00  0.00    -0.311 N 
ATOM     14  C   LIG d   1      -1.940  90.513 117.413  0.00  0.00     0.210 C 
ATOM     15  C   LIG d   1      -0.499  90.577 116.897  0.00  0.00     0.109 C 
ATOM     16  O   LIG d   1      -2.212  89.854 118.428  0.00  0.00    -0.276 OA
ATOM     17  H   LIG d   1      -2.529  91.654 115.850  0.00  0.00     0.149 HD
ENDBRANCH   6  13
BRANCH   5  18
ATOM     18  N   LIG d   1      -5.043  89.627 115.242  0.00  0.00     0.381 N 
ATOM     19  H   LIG d   1      -5.895  89.120 115.376  0.00  0.00    -0.090 HD
ATOM     20  H   LIG d   1      -4.311  89.152 115.740  0.00  0.00    -0.090 HD
ATOM     21  H   LIG d   1      -4.822  89.669 114.272  0.00  0.00    -0.090 HD
ENDBRANCH   5  18
BRANCH   3  22
ATOM     22  C   LIG d   1      -8.137  92.970 116.724  0.00  0.00     0.382 C 
ATOM     23  O   LIG d   1      -8.559  93.758 117.604  0.00  0.00    -0.241 OA
ATOM     24  O   LIG d   1      -8.869  92.680 115.759  0.00  0.00    -0.241 OA
ENDBRANCH   3  22
TORSDOF 7
ENDMDL
MODEL 2
REMARK VINA RESULT:      -5.3      2.242      3.526
REMARK  7 active torsions:
REMARK  status: ('A' for Active; 'I' for Inactive)
REMARK    1  A    between atoms: C_2  and  C_3 
REMARK    2  A    between atoms: C_3  and  O_6 
REMARK    3  A    between atoms: C_3  and  C_4 
REMARK    4  A    between atoms: C_7  and  O_6 
REMARK    5  A    between atoms: C_9  and  C_10 
REMARK    6  A    between atoms: N_15  and  C_14 
REMARK    7  A    between atoms: N_20  and  C_19 
REMARK       I    between atoms: C_22  and  N_20 
ROOT
ATOM      1  C   LIG d   1      -5.553  93.007 117.879  0.00  0.00     0.161 C 
ATOM      2  C   LIG d   1      -6.099  94.154 118.479  0.00  0.00     0.016 C 
ATOM      3  C   LIG d   1      -7.389  94.650 118.177  0.00  0.00     0.038 C 
ATOM      4  C   LIG d   1      -8.283  93.942 117.361  0.00  0.00     0.028 C 
ATOM      5  C   LIG d   1      -7.592  93.045 116.340  0.00  0.00    -0.047 C 
ATOM      6  C   LIG d   1      -6.556  92.159 117.070  0.00  0.00     0.091 C 
ENDROOT
BRANCH   1   7
ATOM      7  O   LIG d   1      -4.903  92.196 118.878  0.00  0.00    -0.368 OA
BRANCH   7   8
ATOM      8  C   LIG d   1      -3.470  92.369 119.006  0.00  0.00     0.119 C 
BRANCH   8   9
ATOM      9  C   LIG d   1      -2.929  92.784 117.624  0.00  0.00     0.028 C 
ATOM     10  C   LIG d   1      -1.921  93.942 117.712  0.00  0.00     0.006 C 
ENDBRANCH   8   9
BRANCH   8  11
ATOM     11  C   LIG d   1      -2.776  91.043 119.331  0.00  0.00     0.028 C 
ATOM     12  C   LIG d   1      -3.212  89.898 118.403  0.00  0.00     0.006 C 
ENDBRANCH   8  11
ENDBRANCH   7   8
ENDBRANCH   1   7
BRANCH   6  13
ATOM     13  N   LIG d   1      -5.775  91.311 116.133  0.00  0.00    -0.311 N 
ATOM     14  C   LIG d   1      -6.058  90.032 115.893  0.00  0.00     0.210 C 
ATOM     15  C   LIG d   1      -5.115  89.335 114.907  0.00  0.00     0.109 C 
ATOM     16  O   LIG d   1      -7.020  89.417 116.378  0.00  0.00    -0.276 OA
ATOM     17  H   LIG d   1      -4.996  91.738 115.672  0.00  0.00     0.149 HD
ENDBRANCH   6  13
BRANCH   5  18
ATOM     18  N   LIG d   1      -8.638  92.264 115.652  0.00  0.00     0.381 N 
ATOM     19  H   LIG d   1      -8.476  91.287 115.789  0.00  0.00    -0.090 HD
ATOM     20  H   LIG d   1      -8.592  92.457 114.667  0.00  0.00    -0.090 HD
ATOM     21  H   LIG d   1      -9.536  92.512 116.005  0.00  0.00    -0.090 HD
ENDBRANCH   5  18
BRANCH   3  22
ATOM     22  C   LIG d   1      -7.779  95.889 118.663  0.00  0.00     0.382 C 
ATOM     23  O   LIG d   1      -8.230  95.990 119.830  0.00  0.00    -0.241 OA
ATOM     24  O   LIG d   1      -7.728  96.898 117.935  0.00  0.00    -0.241 OA
ENDBRANCH   3  22
TORSDOF 7
ENDMDL
MODEL 3
REMARK VINA RESULT:      -5.1      2.574      4.754
REMARK  7 active torsions:
REMARK  status: ('A' for Active; 'I' for Inactive)
REMARK    1  A    between atoms: C_2  and  C_3 
REMARK    2  A    between atoms: C_3  and  O_6 
REMARK    3  A    between atoms: C_3  and  C_4 
REMARK    4  A    between atoms: C_7  and  O_6 
REMARK    5  A    between atoms: C_9  and  C_10 
REMARK    6  A    between atoms: N_15  and  C_14 
REMARK    7  A    between atoms: N_20  and  C_19 
REMARK       I    between atoms: C_22  and  N_20 
ROOT
ATOM      1  C   LIG d   1      -5.917  91.758 118.377  0.00  0.00     0.161 C 
ATOM      2  C   LIG d   1      -5.310  90.822 117.524  0.00  0.00     0.016 C 
ATOM      3  C   LIG d   1      -5.754  90.570 116.205  0.00  0.00     0.038 C 
ATOM      4  C   LIG d   1      -6.747  91.349 115.595  0.00  0.00     0.028 C 
ATOM      5  C   LIG d   1      -7.728  91.966 116.586  0.00  0.00    -0.047 C 
ATOM      6  C   LIG d   1      -6.931  92.697 117.691  0.00  0.00     0.091 C 
ENDROOT
BRANCH   1   7
ATOM      7  O   LIG d   1      -4.906  92.526 119.059  0.00  0.00    -0.368 OA
BRANCH   7   8
ATOM      8  C   LIG d   1      -4.428  93.706 118.368  0.00  0.00     0.119 C 
BRANCH   8   9
ATOM      9  C   LIG d   1      -3.153  93.309 117.600  0.00  0.00     0.028 C 
ATOM     10  C   LIG d   1      -1.909  94.065 118.095  0.00  0.00     0.006 C 
ENDBRANCH   8   9
BRANCH   8  11
ATOM     11  C   LIG d   1      -3.985  94.789 119.356  0.00  0.00     0.028 C 
ATOM     12  C   LIG d   1      -4.979  95.957 119.446  0.00  0.00     0.006 C 
ENDBRANCH   8  11
ENDBRANCH   7   8
ENDBRANCH   1   7
BRANCH   6  13
ATOM     13  N   LIG d   1      -7.813  93.257 118.749  0.00  0.00    -0.311 N 
ATOM     14  C   LIG d   1      -8.275  94.506 118.732  0.00  0.00     0.210 C 
ATOM     15  C   LIG d   1      -9.151  94.888 119.929  0.00  0.00     0.109 C 
ATOM     16  O   LIG d   1      -8.069  95.325 117.823  0.00  0.00    -0.276 OA
ATOM     17  H   LIG d   1      -8.056  92.652 119.508  0.00  0.00     0.149 HD
ENDBRANCH   6  13
BRANCH   5  18
ATOM     18  N   LIG d   1      -8.623  92.862 115.830  0.00  0.00     0.381 N 
ATOM     19  H   LIG d   1      -8.383  93.815 116.015  0.00  0.00    -0.090 HD
ATOM     20  H   LIG d   1      -9.568  92.709 116.134  0.00  0.00    -0.090 HD
ATOM     21  H   LIG d   1      -8.546  92.676 114.854  0.00  0.00    -0.090 HD
ENDBRANCH   5  18
BRANCH   3  22
ATOM     22  C   LIG d   1      -5.228  89.500 115.497  0.00  0.00     0.382 C 
ATOM     23  O   LIG d   1      -4.355  88.768 116.022  0.00  0.00    -0.241 OA
ATOM     24  O   LIG d   1      -5.584  89.283 114.323  0.00  0.00    -0.241 OA
ENDBRANCH   3  22
TORSDOF 7
ENDMDL
MODEL 4
REMARK VINA RESULT:      -5.0      2.104      4.165
REMARK  7 active torsions:
REMARK  status: ('A' for Active; 'I' for Inactive)
REMARK    1  A    between atoms: C_2  and  C_3 
REMARK    2  A    between atoms: C_3  and  O_6 
REMARK    3  A    between atoms: C_3  and  C_4 
REMARK    4  A    between atoms: C_7  and  O_6 
REMARK    5  A    between atoms: C_9  and  C_10 
REMARK    6  A    between atoms: N_15  and  C_14 
REMARK    7  A    between atoms: N_20  and  C_19 
REMARK       I    between atoms: C_22  and  N_20 
ROOT
ATOM      1  C   LIG d   1      -4.290  91.163 117.681  0.00  0.00     0.161 C 
ATOM      2  C   LIG d   1      -5.286  90.425 117.020  0.00  0.00     0.016 C 
ATOM      3  C   LIG d   1      -6.490  90.995 116.545  0.00  0.00     0.038 C 
ATOM      4  C   LIG d   1      -6.714  92.379 116.565  0.00  0.00     0.028 C 
ATOM      5  C   LIG d   1      -5.957  93.099 117.676  0.00  0.00    -0.047 C 
ATOM      6  C   LIG d   1      -4.467  92.694 117.613  0.00  0.00     0.091 C 
ENDROOT
BRANCH   1   7
ATOM      7  O   LIG d   1      -2.991  90.786 117.182  0.00  0.00    -0.368 OA
BRANCH   7   8
ATOM      8  C   LIG d   1      -2.158  90.021 118.088  0.00  0.00     0.119 C 
BRANCH   8   9
ATOM      9  C   LIG d   1      -0.769  90.687 118.113  0.00  0.00     0.028 C 
ATOM     10  C   LIG d   1      -0.091  90.683 116.733  0.00  0.00     0.006 C 
ENDBRANCH   8   9
BRANCH   8  11
ATOM     11  C   LIG d   1      -1.919  88.603 117.560  0.00  0.00     0.028 C 
ATOM     12  C   LIG d   1      -2.017  87.534 118.660  0.00  0.00     0.006 C 
ENDBRANCH   8  11
ENDBRANCH   7   8
ENDBRANCH   1   7
BRANCH   6  13
ATOM     13  N   LIG d   1      -3.670  93.289 118.718  0.00  0.00    -0.311 N 
ATOM     14  C   LIG d   1      -2.503  93.902 118.532  0.00  0.00     0.210 C 
ATOM     15  C   LIG d   1      -1.837  94.426 119.809  0.00  0.00     0.109 C 
ATOM     16  O   LIG d   1      -1.970  94.091 117.428  0.00  0.00    -0.276 OA
ATOM     17  H   LIG d   1      -4.043  93.209 119.643  0.00  0.00     0.149 HD
ENDBRANCH   6  13
BRANCH   5  18
ATOM     18  N   LIG d   1      -6.171  94.548 117.496  0.00  0.00     0.381 N 
ATOM     19  H   LIG d   1      -6.591  94.933 118.318  0.00  0.00    -0.090 HD
ATOM     20  H   LIG d   1      -6.800  94.689 116.724  0.00  0.00    -0.090 HD
ATOM     21  H   LIG d   1      -5.303  95.000 117.313  0.00  0.00    -0.090 HD
ENDBRANCH   5  18
BRANCH   3  22
ATOM     22  C   LIG d   1      -7.503  90.171 116.079  0.00  0.00     0.382 C 
ATOM     23  O   LIG d   1      -8.470  90.661 115.448  0.00  0.00    -0.241 OA
ATOM     24  O   LIG d   1      -7.485  88.949 116.321  0.00  0.00    -0.241 OA
ENDBRANCH   3  22
TORSDOF 7
ENDMDL
MODEL 5
REMARK VINA RESULT:      -5.0      2.023      3.523
REMARK  7 active torsions:
REMARK  status: ('A' for Active; 'I' for Inactive)
REMARK    1  A    between atoms: C_2  and  C_3 
REMARK    2  A    between atoms: C_3  and  O_6 
REMARK    3  A    between atoms: C_3  and  C_4 
REMARK    4  A    between atoms: C_7  and  O_6 
REMARK    5  A    between atoms: C_9  and  C_10 
REMARK    6  A    between atoms: N_15  and  C_14 
REMARK    7  A    between atoms: N_20  and  C_19 
REMARK       I    between atoms: C_22  and  N_20 
ROOT
ATOM      1  C   LIG d   1      -6.024  93.103 117.639  0.00  0.00     0.161 C 
ATOM      2  C   LIG d   1      -6.961  92.163 117.179  0.00  0.00     0.016 C 
ATOM      3  C   LIG d   1      -6.602  90.911 116.630  0.00  0.00     0.038 C 
ATOM      4  C   LIG d   1      -5.278  90.448 116.642  0.00  0.00     0.028 C 
ATOM      5  C   LIG d   1      -4.244  91.569 116.634  0.00  0.00    -0.047 C 
ATOM      6  C   LIG d   1      -4.581  92.570 117.763  0.00  0.00     0.091 C 
ENDROOT
BRANCH   1   7
ATOM      7  O   LIG d   1      -6.463  93.657 118.895  0.00  0.00    -0.368 OA
BRANCH   7   8
ATOM      8  C   LIG d   1      -6.774  95.072 118.894  0.00  0.00     0.119 C 
BRANCH   8   9
ATOM      9  C   LIG d   1      -5.739  95.774 119.795  0.00  0.00     0.028 C 
ATOM     10  C   LIG d   1      -5.126  97.016 119.127  0.00  0.00     0.006 C 
ENDBRANCH   8   9
BRANCH   8  11
ATOM     11  C   LIG d   1      -8.132  95.346 119.547  0.00  0.00     0.028 C 
ATOM     12  C   LIG d   1      -9.010  94.088 119.643  0.00  0.00     0.006 C 
ENDBRANCH   8  11
ENDBRANCH   7   8
ENDBRANCH   1   7
BRANCH   6  13
ATOM     13  N   LIG d   1      -3.668  93.743 117.771  0.00  0.00    -0.311 N 
ATOM     14  C   LIG d   1      -2.605  93.838 118.568  0.00  0.00     0.210 C 
ATOM     15  C   LIG d   1      -1.809  95.140 118.431  0.00  0.00     0.109 C 
ATOM     16  O   LIG d   1      -2.227  92.954 119.351  0.00  0.00    -0.276 OA
ATOM     17  H   LIG d   1      -3.883  94.493 117.144  0.00  0.00     0.149 HD
ENDBRANCH   6  13
BRANCH   5  18
ATOM     18  N   LIG d   1      -2.914  90.950 116.788  0.00  0.00     0.381 N 
ATOM     19  H   LIG d   1      -2.705  90.394 115.984  0.00  0.00    -0.090 HD
ATOM     20  H   LIG d   1      -2.927  90.349 117.593  0.00  0.00    -0.090 HD
ATOM     21  H   LIG d   1      -2.221  91.657 116.902  0.00  0.00    -0.090 HD
ENDBRANCH   5  18
BRANCH   3  22
ATOM     22  C   LIG d   1      -7.569  90.123 116.024  0.00  0.00     0.382 C 
ATOM     23  O   LIG d   1      -7.684  88.915 116.343  0.00  0.00    -0.241 OA
ATOM     24  O   LIG d   1      -8.299  90.594 115.131  0.00  0.00    -0.241 OA
ENDBRANCH   3  22
TORSDOF 7
ENDMDL
MODEL 6
REMARK VINA RESULT:      -4.9      2.336      4.507
REMARK  7 active torsions:
REMARK  status: ('A' for Active; 'I' for Inactive)
REMARK    1  A    between atoms: C_2  and  C_3 
REMARK    2  A    between atoms: C_3  and  O_6 
REMARK    3  A    between atoms: C_3  and  C_4 
REMARK    4  A    between atoms: C_7  and  O_6 
REMARK    5  A    between atoms: C_9  and  C_10 
REMARK    6  A    between atoms: N_15  and  C_14 
REMARK    7  A    between atoms: N_20  and  C_19 
REMARK       I    between atoms: C_22  and  N_20 
ROOT
ATOM      1  C   LIG d   1      -5.575  92.117 118.672  0.00  0.00     0.161 C 
ATOM      2  C   LIG d   1      -6.862  92.678 118.718  0.00  0.00     0.016 C 
ATOM      3  C   LIG d   1      -7.103  94.071 118.755  0.00  0.00     0.038 C 
ATOM      4  C   LIG d   1      -6.069  95.007 118.595  0.00  0.00     0.028 C 
ATOM      5  C   LIG d   1      -4.709  94.491 119.054  0.00  0.00    -0.047 C 
ATOM      6  C   LIG d   1      -4.440  93.123 118.386  0.00  0.00     0.091 C 
ENDROOT
BRANCH   1   7
ATOM      7  O   LIG d   1      -5.544  91.041 117.713  0.00  0.00    -0.368 OA
BRANCH   7   8
ATOM      8  C   LIG d   1      -6.572  91.068 116.693  0.00  0.00     0.119 C 
BRANCH   8   9
ATOM      9  C   LIG d   1      -7.129  89.638 116.559  0.00  0.00     0.028 C 
ATOM     10  C   LIG d   1      -8.318  89.559 115.586  0.00  0.00     0.006 C 
ENDBRANCH   8   9
BRANCH   8  11
ATOM     11  C   LIG d   1      -5.985  91.405 115.319  0.00  0.00     0.028 C 
ATOM     12  C   LIG d   1      -6.626  92.650 114.685  0.00  0.00     0.006 C 
ENDBRANCH   8  11
ENDBRANCH   7   8
ENDBRANCH   1   7
BRANCH   6  13
ATOM     13  N   LIG d   1      -3.168  92.509 118.845  0.00  0.00    -0.311 N 
ATOM     14  C   LIG d   1      -1.988  92.753 118.277  0.00  0.00     0.210 C 
ATOM     15  C   LIG d   1      -0.805  92.000 118.893  0.00  0.00     0.109 C 
ATOM     16  O   LIG d   1      -1.805  93.547 117.341  0.00  0.00    -0.276 OA
ATOM     17  H   LIG d   1      -3.220  91.876 119.619  0.00  0.00     0.149 HD
ENDBRANCH   6  13
BRANCH   5  18
ATOM     18  N   LIG d   1      -3.705  95.513 118.704  0.00  0.00     0.381 N 
ATOM     19  H   LIG d   1      -4.157  96.389 118.534  0.00  0.00    -0.090 HD
ATOM     20  H   LIG d   1      -3.235  95.232 117.861  0.00  0.00    -0.090 HD
ATOM     21  H   LIG d   1      -3.045  95.609 119.444  0.00  0.00    -0.090 HD
ENDBRANCH   5  18
BRANCH   3  22
ATOM     22  C   LIG d   1      -8.385  94.541 118.993  0.00  0.00     0.382 C 
ATOM     23  O   LIG d   1      -9.349  93.738 119.038  0.00  0.00    -0.241 OA
ATOM     24  O   LIG d   1      -8.598  95.762 119.120  0.00  0.00    -0.241 OA
ENDBRANCH   3  22
TORSDOF 7
ENDMDL
MODEL 7
REMARK VINA RESULT:      -4.6      1.803      4.908
REMARK  7 active torsions:
REMARK  status: ('A' for Active; 'I' for Inactive)
REMARK    1  A    between atoms: C_2  and  C_3 
REMARK    2  A    between atoms: C_3  and  O_6 
REMARK    3  A    between atoms: C_3  and  C_4 
REMARK    4  A    between atoms: C_7  and  O_6 
REMARK    5  A    between atoms: C_9  and  C_10 
REMARK    6  A    between atoms: N_15  and  C_14 
REMARK    7  A    between atoms: N_20  and  C_19 
REMARK       I    between atoms: C_22  and  N_20 
ROOT
ATOM      1  C   LIG d   1      -5.086  91.409 118.813  0.00  0.00     0.161 C 
ATOM      2  C   LIG d   1      -3.986  90.674 119.286  0.00  0.00     0.016 C 
ATOM      3  C   LIG d   1      -3.215  89.815 118.471  0.00  0.00     0.038 C 
ATOM      4  C   LIG d   1      -3.399  89.748 117.082  0.00  0.00     0.028 C 
ATOM      5  C   LIG d   1      -4.820  90.087 116.642  0.00  0.00    -0.047 C 
ATOM      6  C   LIG d   1      -5.233  91.435 117.277  0.00  0.00     0.091 C 
ENDROOT
BRANCH   1   7
ATOM      7  O   LIG d   1      -5.037  92.752 119.334  0.00  0.00    -0.368 OA
BRANCH   7   8
ATOM      8  C   LIG d   1      -4.689  93.791 118.386  0.00  0.00     0.119 C 
BRANCH   8   9
ATOM      9  C   LIG d   1      -3.256  94.255 118.713  0.00  0.00     0.028 C 
ATOM     10  C   LIG d   1      -2.222  93.722 117.707  0.00  0.00     0.006 C 
ENDBRANCH   8   9
BRANCH   8  11
ATOM     11  C   LIG d   1      -5.568  95.031 118.570  0.00  0.00     0.028 C 
ATOM     12  C   LIG d   1      -6.948  94.700 119.160  0.00  0.00     0.006 C 
ENDBRANCH   8  11
ENDBRANCH   7   8
ENDBRANCH   1   7
BRANCH   6  13
ATOM     13  N   LIG d   1      -6.640  91.800 116.966  0.00  0.00    -0.311 N 
ATOM     14  C   LIG d   1      -6.991  92.530 115.909  0.00  0.00     0.210 C 
ATOM     15  C   LIG d   1      -8.493  92.808 115.786  0.00  0.00     0.109 C 
ATOM     16  O   LIG d   1      -6.206  92.947 115.045  0.00  0.00    -0.276 OA
ATOM     17  H   LIG d   1      -7.345  91.476 117.598  0.00  0.00     0.149 HD
ENDBRANCH   6  13
BRANCH   5  18
ATOM     18  N   LIG d   1      -4.836  90.114 115.167  0.00  0.00     0.381 N 
ATOM     19  H   LIG d   1      -4.029  90.598 114.829  0.00  0.00    -0.090 HD
ATOM     20  H   LIG d   1      -5.654  90.609 114.860  0.00  0.00    -0.090 HD
ATOM     21  H   LIG d   1      -4.848  89.184 114.810  0.00  0.00    -0.090 HD
ENDBRANCH   5  18
BRANCH   3  22
ATOM     22  C   LIG d   1      -2.272  88.980 119.051  0.00  0.00     0.382 C 
ATOM     23  O   LIG d   1      -1.141  89.429 119.357  0.00  0.00    -0.241 OA
ATOM     24  O   LIG d   1      -2.522  87.774 119.231  0.00  0.00    -0.241 OA
ENDBRANCH   3  22
TORSDOF 7
ENDMDL
MODEL 8
REMARK VINA RESULT:      -4.6      2.393      4.641
REMARK  7 active torsions:
REMARK  status: ('A' for Active; 'I' for Inactive)
REMARK    1  A    between atoms: C_2  and  C_3 
REMARK    2  A    between atoms: C_3  and  O_6 
REMARK    3  A    between atoms: C_3  and  C_4 
REMARK    4  A    between atoms: C_7  and  O_6 
REMARK    5  A    between atoms: C_9  and  C_10 
REMARK    6  A    between atoms: N_15  and  C_14 
REMARK    7  A    between atoms: N_20  and  C_19 
REMARK       I    between atoms: C_22  and  N_20 
ROOT
ATOM      1  C   LIG d   1      -3.344  90.730 117.807  0.00  0.00     0.161 C 
ATOM      2  C   LIG d   1      -4.511  90.236 117.199  0.00  0.00     0.016 C 
ATOM      3  C   LIG d   1      -5.634  91.042 116.902  0.00  0.00     0.038 C 
ATOM      4  C   LIG d   1      -5.608  92.436 117.056  0.00  0.00     0.028 C 
ATOM      5  C   LIG d   1      -4.639  92.908 118.134  0.00  0.00    -0.047 C 
ATOM      6  C   LIG d   1      -3.255  92.268 117.880  0.00  0.00     0.091 C 
ENDROOT
BRANCH   1   7
ATOM      7  O   LIG d   1      -2.183  90.191 117.145  0.00  0.00    -0.368 OA
BRANCH   7   8
ATOM      8  C   LIG d   1      -1.477  89.140 117.849  0.00  0.00     0.119 C 
BRANCH   8   9
ATOM      9  C   LIG d   1      -1.929  87.795 117.247  0.00  0.00     0.028 C 
ATOM     10  C   LIG d   1      -0.800  87.087 116.480  0.00  0.00     0.006 C 
ENDBRANCH   8   9
BRANCH   8  11
ATOM     11  C   LIG d   1      -1.890  89.083 119.323  0.00  0.00     0.028 C 
ATOM     12  C   LIG d   1      -2.336  87.680 119.764  0.00  0.00     0.006 C 
ENDBRANCH   8  11
ENDBRANCH   7   8
ENDBRANCH   1   7
BRANCH   6  13
ATOM     13  N   LIG d   1      -2.269  92.611 118.938  0.00  0.00    -0.311 N 
ATOM     14  C   LIG d   1      -1.145  93.285 118.702  0.00  0.00     0.210 C 
ATOM     15  C   LIG d   1      -0.259  93.516 119.930  0.00  0.00     0.109 C 
ATOM     16  O   LIG d   1      -0.813  93.742 117.598  0.00  0.00    -0.276 OA
ATOM     17  H   LIG d   1      -2.475  92.307 119.869  0.00  0.00     0.149 HD
ENDBRANCH   6  13
BRANCH   5  18
ATOM     18  N   LIG d   1      -4.610  94.382 118.093  0.00  0.00     0.381 N 
ATOM     19  H   LIG d   1      -3.894  94.725 118.701  0.00  0.00    -0.090 HD
ATOM     20  H   LIG d   1      -5.494  94.734 118.418  0.00  0.00    -0.090 HD
ATOM     21  H   LIG d   1      -4.443  94.694 117.162  0.00  0.00    -0.090 HD
ENDBRANCH   5  18
BRANCH   3  22
ATOM     22  C   LIG d   1      -6.814  90.447 116.482  0.00  0.00     0.382 C 
ATOM     23  O   LIG d   1      -7.859  91.134 116.377  0.00  0.00    -0.241 OA
ATOM     24  O   LIG d   1      -6.858  89.224 116.249  0.00  0.00    -0.241 OA
ENDBRANCH   3  22
TORSDOF 7
ENDMDL
MODEL 9
REMARK VINA RESULT:      -4.4      3.434      7.807
REMARK  7 active torsions:
REMARK  status: ('A' for Active; 'I' for Inactive)
REMARK    1  A    between atoms: C_2  and  C_3 
REMARK    2  A    between atoms: C_3  and  O_6 
REMARK    3  A    between atoms: C_3  and  C_4 
REMARK    4  A    between atoms: C_7  and  O_6 
REMARK    5  A    between atoms: C_9  and  C_10 
REMARK    6  A    between atoms: N_15  and  C_14 
REMARK    7  A    between atoms: N_20  and  C_19 
REMARK       I    between atoms: C_22  and  N_20 
ROOT
ATOM      1  C   LIG d   1       0.191  89.808 117.247  0.00  0.00     0.161 C 
ATOM      2  C   LIG d   1       1.541  90.110 117.491  0.00  0.00     0.016 C 
ATOM      3  C   LIG d   1       2.023  91.426 117.673  0.00  0.00     0.038 C 
ATOM      4  C   LIG d   1       1.158  92.525 117.775  0.00  0.00     0.028 C 
ATOM      5  C   LIG d   1      -0.160  92.330 117.033  0.00  0.00    -0.047 C 
ATOM      6  C   LIG d   1      -0.785  90.983 117.466  0.00  0.00     0.091 C 
ENDROOT
BRANCH   1   7
ATOM      7  O   LIG d   1      -0.207  88.673 118.042  0.00  0.00    -0.368 OA
BRANCH   7   8
ATOM      8  C   LIG d   1      -0.683  87.517 117.309  0.00  0.00     0.119 C 
BRANCH   8   9
ATOM      9  C   LIG d   1      -0.406  86.273 118.175  0.00  0.00     0.028 C 
ATOM     10  C   LIG d   1      -1.390  86.146 119.351  0.00  0.00     0.006 C 
ENDBRANCH   8   9
BRANCH   8  11
ATOM     11  C   LIG d   1       0.121  87.303 116.023  0.00  0.00     0.028 C 
ATOM     12  C   LIG d   1      -0.547  86.306 115.062  0.00  0.00     0.006 C 
ENDBRANCH   8  11
ENDBRANCH   7   8
ENDBRANCH   1   7
BRANCH   6  13
ATOM     13  N   LIG d   1      -2.035  90.674 116.724  0.00  0.00    -0.311 N 
ATOM     14  C   LIG d   1      -3.251  90.960 117.186  0.00  0.00     0.210 C 
ATOM     15  C   LIG d   1      -4.406  90.538 116.272  0.00  0.00     0.109 C 
ATOM     16  O   LIG d   1      -3.482  91.553 118.251  0.00  0.00    -0.276 OA
ATOM     17  H   LIG d   1      -1.939  90.221 115.837  0.00  0.00     0.149 HD
ENDBRANCH   6  13
BRANCH   5  18
ATOM     18  N   LIG d   1      -1.019  93.490 117.337  0.00  0.00     0.381 N 
ATOM     19  H   LIG d   1      -0.829  94.230 116.692  0.00  0.00    -0.090 HD
ATOM     20  H   LIG d   1      -0.809  93.816 118.263  0.00  0.00    -0.090 HD
ATOM     21  H   LIG d   1      -1.979  93.228 117.279  0.00  0.00    -0.090 HD
ENDBRANCH   5  18
BRANCH   3  22
ATOM     22  C   LIG d   1       3.390  91.658 117.716  0.00  0.00     0.382 C 
ATOM     23  O   LIG d   1       4.106  91.033 118.534  0.00  0.00    -0.241 OA
ATOM     24  O   LIG d   1       3.908  92.516 116.977  0.00  0.00    -0.241 OA
ENDBRANCH   3  22
TORSDOF 7
ENDMDL
