MODEL 1
REMARK VINA RESULT:      -5.5      0.000      0.000
REMARK  7 active torsions:
REMARK  status: ('A' for Active; 'I' for Inactive)
REMARK    1  A    between atoms: C_2  and  C_3 
REMARK    2  A    between atoms: C_3  and  O_6 
REMARK    3  A    between atoms: C_3  and  C_4 
REMARK    4  A    between atoms: C_7  and  O_6 
REMARK    5  A    between atoms: C_9  and  C_10 
REMARK    6  A    between atoms: N_15  and  C_14 
REMARK    7  A    between atoms: N_20  and  C_19 
REMARK       I    between atoms: C_22  and  N_20 
ROOT
ATOM      1  C   LIG d   1      -4.179  90.706 117.031  0.00  0.00     0.161 C 
ATOM      2  C   LIG d   1      -5.267  90.199 116.301  0.00  0.00     0.016 C 
ATOM      3  C   LIG d   1      -6.441  90.942 116.036  0.00  0.00     0.038 C 
ATOM      4  C   LIG d   1      -6.544  92.303 116.357  0.00  0.00     0.028 C 
ATOM      5  C   LIG d   1      -5.674  92.715 117.539  0.00  0.00    -0.047 C 
ATOM      6  C   LIG d   1      -4.228  92.226 117.293  0.00  0.00     0.091 C 
ENDROOT
BRANCH   1   7
ATOM      7  O   LIG d   1      -2.944  90.350 116.378  0.00  0.00    -0.368 OA
BRANCH   7   8
ATOM      8  C   LIG d   1      -2.322  89.119 116.821  0.00  0.00     0.119 C 
BRANCH   8   9
ATOM      9  C   LIG d   1      -2.502  89.032 118.349  0.00  0.00     0.028 C 
ATOM     10  C   LIG d   1      -1.860  87.768 118.944  0.00  0.00     0.006 C 
ENDBRANCH   8   9
BRANCH   8  11
ATOM     11  C   LIG d   1      -0.808  89.147 116.592  0.00  0.00     0.028 C 
ATOM     12  C   LIG d   1      -0.180  90.510 116.922  0.00  0.00     0.006 C 
ENDBRANCH   8  11
ENDBRANCH   7   8
ENDBRANCH   1   7
BRANCH   6  13
ATOM     13  N   LIG d   1      -3.329  92.514 118.440  0.00  0.00    -0.311 N 
ATOM     14  C   LIG d   1      -2.213  93.233 118.334  0.00  0.00     0.210 C 
ATOM     15  C   LIG d   1      -1.421  93.393 119.636  0.00  0.00     0.109 C 
ATOM     16  O   LIG d   1      -1.820  93.780 117.293  0.00  0.00    -0.276 OA
ATOM     17  H   LIG d   1      -3.588  92.134 119.330  0.00  0.00     0.149 HD
ENDBRANCH   6  13
BRANCH   5  18
ATOM     18  N   LIG d   1      -5.773  94.181 117.676  0.00  0.00     0.381 N 
ATOM     19  H   LIG d   1      -5.169  94.494 118.410  0.00  0.00    -0.090 HD
ATOM     20  H   LIG d   1      -6.717  94.421 117.921  0.00  0.00    -0.090 HD
ATOM     21  H   LIG d   1      -5.522  94.621 116.819  0.00  0.00    -0.090 HD
ENDBRANCH   5  18
BRANCH   3  22
ATOM     22  C   LIG d   1      -7.542  90.310 115.480  0.00  0.00     0.382 C 
ATOM     23  O   LIG d   1      -7.947  89.222 115.954  0.00  0.00    -0.241 OA
ATOM     24  O   LIG d   1      -8.109  90.793 114.481  0.00  0.00    -0.241 OA
ENDBRANCH   3  22
TORSDOF 7
ENDMDL
MODEL 2
REMARK VINA RESULT:      -5.4      2.005      5.188
REMARK  7 active torsions:
REMARK  status: ('A' for Active; 'I' for Inactive)
REMARK    1  A    between atoms: C_2  and  C_3 
REMARK    2  A    between atoms: C_3  and  O_6 
REMARK    3  A    between atoms: C_3  and  C_4 
REMARK    4  A    between atoms: C_7  and  O_6 
REMARK    5  A    between atoms: C_9  and  C_10 
REMARK    6  A    between atoms: N_15  and  C_14 
REMARK    7  A    between atoms: N_20  and  C_19 
REMARK       I    between atoms: C_22  and  N_20 
ROOT
ATOM      1  C   LIG d   1      -4.567  91.369 116.846  0.00  0.00     0.161 C 
ATOM      2  C   LIG d   1      -3.603  90.384 116.573  0.00  0.00     0.016 C 
ATOM      3  C   LIG d   1      -2.295  90.406 117.110  0.00  0.00     0.038 C 
ATOM      4  C   LIG d   1      -1.908  91.341 118.082  0.00  0.00     0.028 C 
ATOM      5  C   LIG d   1      -2.686  92.650 118.007  0.00  0.00    -0.047 C 
ATOM      6  C   LIG d   1      -4.199  92.334 117.992  0.00  0.00     0.091 C 
ENDROOT
BRANCH   1   7
ATOM      7  O   LIG d   1      -5.841  90.746 117.105  0.00  0.00    -0.368 OA
BRANCH   7   8
ATOM      8  C   LIG d   1      -6.909  91.073 116.183  0.00  0.00     0.119 C 
BRANCH   8   9
ATOM      9  C   LIG d   1      -7.372  89.759 115.525  0.00  0.00     0.028 C 
ATOM     10  C   LIG d   1      -8.788  89.349 115.963  0.00  0.00     0.006 C 
ENDBRANCH   8   9
BRANCH   8  11
ATOM     11  C   LIG d   1      -6.404  91.947 115.032  0.00  0.00     0.028 C 
ATOM     12  C   LIG d   1      -7.233  91.781 113.749  0.00  0.00     0.006 C 
ENDBRANCH   8  11
ENDBRANCH   7   8
ENDBRANCH   1   7
BRANCH   6  13
ATOM     13  N   LIG d   1      -5.031  93.556 117.835  0.00  0.00    -0.311 N 
ATOM     14  C   LIG d   1      -6.183  93.745 118.476  0.00  0.00     0.210 C 
ATOM     15  C   LIG d   1      -6.892  95.065 118.156  0.00  0.00     0.109 C 
ATOM     16  O   LIG d   1      -6.670  92.959 119.304  0.00  0.00    -0.276 OA
ATOM     17  H   LIG d   1      -4.695  94.259 117.207  0.00  0.00     0.149 HD
ENDBRANCH   6  13
BRANCH   5  18
ATOM     18  N   LIG d   1      -2.279  93.476 119.160  0.00  0.00     0.381 N 
ATOM     19  H   LIG d   1      -1.281  93.524 119.207  0.00  0.00    -0.090 HD
ATOM     20  H   LIG d   1      -2.615  93.045 120.003  0.00  0.00    -0.090 HD
ATOM     21  H   LIG d   1      -2.659  94.393 119.073  0.00  0.00    -0.090 HD
ENDBRANCH   5  18
BRANCH   3  22
ATOM     22  C   LIG d   1      -1.345  89.510 116.643  0.00  0.00     0.382 C 
ATOM     23  O   LIG d   1      -0.270  89.934 116.155  0.00  0.00    -0.241 OA
ATOM     24  O   LIG d   1      -1.569  88.285 116.663  0.00  0.00    -0.241 OA
ENDBRANCH   3  22
TORSDOF 7
ENDMDL
MODEL 3
REMARK VINA RESULT:      -5.1      1.791      4.689
REMARK  7 active torsions:
REMARK  status: ('A' for Active; 'I' for Inactive)
REMARK    1  A    between atoms: C_2  and  C_3 
REMARK    2  A    between atoms: C_3  and  O_6 
REMARK    3  A    between atoms: C_3  and  C_4 
REMARK    4  A    between atoms: C_7  and  O_6 
REMARK    5  A    between atoms: C_9  and  C_10 
REMARK    6  A    between atoms: N_15  and  C_14 
REMARK    7  A    between atoms: N_20  and  C_19 
REMARK       I    between atoms: C_22  and  N_20 
ROOT
ATOM      1  C   LIG d   1      -3.925  91.616 116.757  0.00  0.00     0.161 C 
ATOM      2  C   LIG d   1      -3.070  92.490 117.448  0.00  0.00     0.016 C 
ATOM      3  C   LIG d   1      -3.483  93.273 118.550  0.00  0.00     0.038 C 
ATOM      4  C   LIG d   1      -4.750  93.121 119.134  0.00  0.00     0.028 C 
ATOM      5  C   LIG d   1      -5.810  92.619 118.160  0.00  0.00    -0.047 C 
ATOM      6  C   LIG d   1      -5.279  91.354 117.449  0.00  0.00     0.091 C 
ENDROOT
BRANCH   1   7
ATOM      7  O   LIG d   1      -3.246  90.371 116.497  0.00  0.00    -0.368 OA
BRANCH   7   8
ATOM      8  C   LIG d   1      -2.202  90.008 117.434  0.00  0.00     0.119 C 
BRANCH   8   9
ATOM      9  C   LIG d   1      -1.003  89.492 116.614  0.00  0.00     0.028 C 
ATOM     10  C   LIG d   1       0.158  90.499 116.577  0.00  0.00     0.006 C 
ENDBRANCH   8   9
BRANCH   8  11
ATOM     11  C   LIG d   1      -2.629  88.829 118.313  0.00  0.00     0.028 C 
ATOM     12  C   LIG d   1      -1.581  87.705 118.353  0.00  0.00     0.006 C 
ENDBRANCH   8  11
ENDBRANCH   7   8
ENDBRANCH   1   7
BRANCH   6  13
ATOM     13  N   LIG d   1      -6.221  90.846 116.417  0.00  0.00    -0.311 N 
ATOM     14  C   LIG d   1      -6.479  91.490 115.280  0.00  0.00     0.210 C 
ATOM     15  C   LIG d   1      -7.496  90.802 114.364  0.00  0.00     0.109 C 
ATOM     16  O   LIG d   1      -5.937  92.548 114.928  0.00  0.00    -0.276 OA
ATOM     17  H   LIG d   1      -6.681  89.977 116.607  0.00  0.00     0.149 HD
ENDBRANCH   6  13
BRANCH   5  18
ATOM     18  N   LIG d   1      -7.044  92.374 118.931  0.00  0.00     0.381 N 
ATOM     19  H   LIG d   1      -7.666  91.799 118.400  0.00  0.00    -0.090 HD
ATOM     20  H   LIG d   1      -7.498  93.254 119.105  0.00  0.00    -0.090 HD
ATOM     21  H   LIG d   1      -6.823  91.930 119.795  0.00  0.00    -0.090 HD
ENDBRANCH   5  18
BRANCH   3  22
ATOM     22  C   LIG d   1      -2.639  94.250 119.054  0.00  0.00     0.382 C 
ATOM     23  O   LIG d   1      -3.069  95.412 119.248  0.00  0.00    -0.241 OA
ATOM     24  O   LIG d   1      -1.440  93.995 119.276  0.00  0.00    -0.241 OA
ENDBRANCH   3  22
TORSDOF 7
ENDMDL
MODEL 4
REMARK VINA RESULT:      -5.0      2.553      4.388
REMARK  7 active torsions:
REMARK  status: ('A' for Active; 'I' for Inactive)
REMARK    1  A    between atoms: C_2  and  C_3 
REMARK    2  A    between atoms: C_3  and  O_6 
REMARK    3  A    between atoms: C_3  and  C_4 
REMARK    4  A    between atoms: C_7  and  O_6 
REMARK    5  A    between atoms: C_9  and  C_10 
REMARK    6  A    between atoms: N_15  and  C_14 
REMARK    7  A    between atoms: N_20  and  C_19 
REMARK       I    between atoms: C_22  and  N_20 
ROOT
ATOM      1  C   LIG d   1      -2.462  92.212 117.747  0.00  0.00     0.161 C 
ATOM      2  C   LIG d   1      -3.710  92.668 117.291  0.00  0.00     0.016 C 
ATOM      3  C   LIG d   1      -4.622  91.856 116.578  0.00  0.00     0.038 C 
ATOM      4  C   LIG d   1      -4.410  90.481 116.403  0.00  0.00     0.028 C 
ATOM      5  C   LIG d   1      -2.936  90.090 116.406  0.00  0.00    -0.047 C 
ATOM      6  C   LIG d   1      -2.262  90.685 117.663  0.00  0.00     0.091 C 
ENDROOT
BRANCH   1   7
ATOM      7  O   LIG d   1      -2.236  92.674 119.094  0.00  0.00    -0.368 OA
BRANCH   7   8
ATOM      8  C   LIG d   1      -1.262  93.735 119.249  0.00  0.00     0.119 C 
BRANCH   8   9
ATOM      9  C   LIG d   1      -2.015  95.075 119.138  0.00  0.00     0.028 C 
ATOM     10  C   LIG d   1      -1.467  95.964 118.009  0.00  0.00     0.006 C 
ENDBRANCH   8   9
BRANCH   8  11
ATOM     11  C   LIG d   1      -0.255  93.739 118.095  0.00  0.00     0.028 C 
ATOM     12  C   LIG d   1       1.179  93.431 118.554  0.00  0.00     0.006 C 
ENDBRANCH   8  11
ENDBRANCH   7   8
ENDBRANCH   1   7
BRANCH   6  13
ATOM     13  N   LIG d   1      -0.800  90.421 117.700  0.00  0.00    -0.311 N 
ATOM     14  C   LIG d   1      -0.177  89.893 118.753  0.00  0.00     0.210 C 
ATOM     15  C   LIG d   1       1.337  89.723 118.589  0.00  0.00     0.109 C 
ATOM     16  O   LIG d   1      -0.738  89.521 119.794  0.00  0.00    -0.276 OA
ATOM     17  H   LIG d   1      -0.271  90.664 116.885  0.00  0.00     0.149 HD
ENDBRANCH   6  13
BRANCH   5  18
ATOM     18  N   LIG d   1      -2.866  88.617 116.353  0.00  0.00     0.381 N 
ATOM     19  H   LIG d   1      -2.293  88.279 117.101  0.00  0.00    -0.090 HD
ATOM     20  H   LIG d   1      -2.443  88.343 115.484  0.00  0.00    -0.090 HD
ATOM     21  H   LIG d   1      -3.780  88.229 116.424  0.00  0.00    -0.090 HD
ENDBRANCH   5  18
BRANCH   3  22
ATOM     22  C   LIG d   1      -5.743  92.429 115.996  0.00  0.00     0.382 C 
ATOM     23  O   LIG d   1      -5.887  92.401 114.750  0.00  0.00    -0.241 OA
ATOM     24  O   LIG d   1      -6.590  93.014 116.698  0.00  0.00    -0.241 OA
ENDBRANCH   3  22
TORSDOF 7
ENDMDL
MODEL 5
REMARK VINA RESULT:      -5.0      1.956      2.523
REMARK  7 active torsions:
REMARK  status: ('A' for Active; 'I' for Inactive)
REMARK    1  A    between atoms: C_2  and  C_3 
REMARK    2  A    between atoms: C_3  and  O_6 
REMARK    3  A    between atoms: C_3  and  C_4 
REMARK    4  A    between atoms: C_7  and  O_6 
REMARK    5  A    between atoms: C_9  and  C_10 
REMARK    6  A    between atoms: N_15  and  C_14 
REMARK    7  A    between atoms: N_20  and  C_19 
REMARK       I    between atoms: C_22  and  N_20 
ROOT
ATOM      1  C   LIG d   1      -2.207  89.894 117.067  0.00  0.00     0.161 C 
ATOM      2  C   LIG d   1      -3.409  89.570 116.417  0.00  0.00     0.016 C 
ATOM      3  C   LIG d   1      -4.462  90.493 116.222  0.00  0.00     0.038 C 
ATOM      4  C   LIG d   1      -4.323  91.853 116.533  0.00  0.00     0.028 C 
ATOM      5  C   LIG d   1      -3.319  92.120 117.650  0.00  0.00    -0.047 C 
ATOM      6  C   LIG d   1      -1.992  91.402 117.314  0.00  0.00     0.091 C 
ENDROOT
BRANCH   1   7
ATOM      7  O   LIG d   1      -1.093  89.342 116.338  0.00  0.00    -0.368 OA
BRANCH   7   8
ATOM      8  C   LIG d   1      -0.768  87.959 116.621  0.00  0.00     0.119 C 
BRANCH   8   9
ATOM      9  C   LIG d   1      -0.720  87.799 118.153  0.00  0.00     0.028 C 
ATOM     10  C   LIG d   1      -0.594  86.329 118.586  0.00  0.00     0.006 C 
ENDBRANCH   8   9
BRANCH   8  11
ATOM     11  C   LIG d   1       0.640  87.606 116.132  0.00  0.00     0.028 C 
ATOM     12  C   LIG d   1       0.638  86.519 115.046  0.00  0.00     0.006 C 
ENDBRANCH   8  11
ENDBRANCH   7   8
ENDBRANCH   1   7
BRANCH   6  13
ATOM     13  N   LIG d   1      -0.982  91.542 118.396  0.00  0.00    -0.311 N 
ATOM     14  C   LIG d   1       0.292  91.859 118.173  0.00  0.00     0.210 C 
ATOM     15  C   LIG d   1       1.169  91.931 119.427  0.00  0.00     0.109 C 
ATOM     16  O   LIG d   1       0.772  92.119 117.059  0.00  0.00    -0.276 OA
ATOM     17  H   LIG d   1      -1.293  91.379 119.333  0.00  0.00     0.149 HD
ENDBRANCH   6  13
BRANCH   5  18
ATOM     18  N   LIG d   1      -3.171  93.582 117.776  0.00  0.00     0.381 N 
ATOM     19  H   LIG d   1      -3.310  93.855 118.729  0.00  0.00    -0.090 HD
ATOM     20  H   LIG d   1      -3.872  94.030 117.214  0.00  0.00    -0.090 HD
ATOM     21  H   LIG d   1      -2.263  93.860 117.473  0.00  0.00    -0.090 HD
ENDBRANCH   5  18
BRANCH   3  22
ATOM     22  C   LIG d   1      -5.687  90.048 115.747  0.00  0.00     0.382 C 
ATOM     23  O   LIG d   1      -5.762  89.509 114.616  0.00  0.00    -0.241 OA
ATOM     24  O   LIG d   1      -6.723  90.218 116.416  0.00  0.00    -0.241 OA
ENDBRANCH   3  22
TORSDOF 7
ENDMDL
MODEL 6
REMARK VINA RESULT:      -4.9      2.228      4.378
REMARK  7 active torsions:
REMARK  status: ('A' for Active; 'I' for Inactive)
REMARK    1  A    between atoms: C_2  and  C_3 
REMARK    2  A    between atoms: C_3  and  O_6 
REMARK    3  A    between atoms: C_3  and  C_4 
REMARK    4  A    between atoms: C_7  and  O_6 
REMARK    5  A    between atoms: C_9  and  C_10 
REMARK    6  A    between atoms: N_15  and  C_14 
REMARK    7  A    between atoms: N_20  and  C_19 
REMARK       I    between atoms: C_22  and  N_20 
ROOT
ATOM      1  C   LIG d   1      -5.468  91.917 117.509  0.00  0.00     0.161 C 
ATOM      2  C   LIG d   1      -6.486  92.010 116.545  0.00  0.00     0.016 C 
ATOM      3  C   LIG d   1      -6.565  91.167 115.413  0.00  0.00     0.038 C 
ATOM      4  C   LIG d   1      -5.709  90.068 115.246  0.00  0.00     0.028 C 
ATOM      5  C   LIG d   1      -4.357  90.244 115.930  0.00  0.00    -0.047 C 
ATOM      6  C   LIG d   1      -4.589  90.654 117.402  0.00  0.00     0.091 C 
ENDROOT
BRANCH   1   7
ATOM      7  O   LIG d   1      -6.034  92.024 118.830  0.00  0.00    -0.368 OA
BRANCH   7   8
ATOM      8  C   LIG d   1      -5.675  93.207 119.584  0.00  0.00     0.119 C 
BRANCH   8   9
ATOM      9  C   LIG d   1      -6.918  94.116 119.639  0.00  0.00     0.028 C 
ATOM     10  C   LIG d   1      -6.921  95.175 118.524  0.00  0.00     0.006 C 
ENDBRANCH   8   9
BRANCH   8  11
ATOM     11  C   LIG d   1      -4.605  94.027 118.858  0.00  0.00     0.028 C 
ATOM     12  C   LIG d   1      -3.361  94.284 119.723  0.00  0.00     0.006 C 
ENDBRANCH   8  11
ENDBRANCH   7   8
ENDBRANCH   1   7
BRANCH   6  13
ATOM     13  N   LIG d   1      -3.318  90.928 118.121  0.00  0.00    -0.311 N 
ATOM     14  C   LIG d   1      -2.619  89.990 118.759  0.00  0.00     0.210 C 
ATOM     15  C   LIG d   1      -1.348  90.490 119.452  0.00  0.00     0.109 C 
ATOM     16  O   LIG d   1      -2.915  88.786 118.789  0.00  0.00    -0.276 OA
ATOM     17  H   LIG d   1      -2.988  91.873 118.120  0.00  0.00     0.149 HD
ENDBRANCH   6  13
BRANCH   5  18
ATOM     18  N   LIG d   1      -3.620  88.973 115.792  0.00  0.00     0.381 N 
ATOM     19  H   LIG d   1      -3.082  88.983 114.949  0.00  0.00    -0.090 HD
ATOM     20  H   LIG d   1      -4.280  88.218 115.737  0.00  0.00    -0.090 HD
ATOM     21  H   LIG d   1      -3.019  88.842 116.576  0.00  0.00    -0.090 HD
ENDBRANCH   5  18
BRANCH   3  22
ATOM     22  C   LIG d   1      -7.483  91.444 114.412  0.00  0.00     0.382 C 
ATOM     23  O   LIG d   1      -8.618  90.909 114.437  0.00  0.00    -0.241 OA
ATOM     24  O   LIG d   1      -7.176  92.188 113.461  0.00  0.00    -0.241 OA
ENDBRANCH   3  22
TORSDOF 7
ENDMDL
MODEL 7
REMARK VINA RESULT:      -4.8      5.242      7.746
REMARK  7 active torsions:
REMARK  status: ('A' for Active; 'I' for Inactive)
REMARK    1  A    between atoms: C_2  and  C_3 
REMARK    2  A    between atoms: C_3  and  O_6 
REMARK    3  A    between atoms: C_3  and  C_4 
REMARK    4  A    between atoms: C_7  and  O_6 
REMARK    5  A    between atoms: C_9  and  C_10 
REMARK    6  A    between atoms: N_15  and  C_14 
REMARK    7  A    between atoms: N_20  and  C_19 
REMARK       I    between atoms: C_22  and  N_20 
ROOT
ATOM      1  C   LIG d   1       2.115  88.181 115.571  0.00  0.00     0.161 C 
ATOM      2  C   LIG d   1       0.878  88.085 116.229  0.00  0.00     0.016 C 
ATOM      3  C   LIG d   1       0.330  89.128 117.010  0.00  0.00     0.038 C 
ATOM      4  C   LIG d   1       0.915  90.402 117.063  0.00  0.00     0.028 C 
ATOM      5  C   LIG d   1       2.421  90.386 116.824  0.00  0.00    -0.047 C 
ATOM      6  C   LIG d   1       2.716  89.601 115.525  0.00  0.00     0.091 C 
ENDROOT
BRANCH   1   7
ATOM      7  O   LIG d   1       2.003  87.641 114.239  0.00  0.00    -0.368 OA
BRANCH   7   8
ATOM      8  C   LIG d   1       2.325  86.237 114.091  0.00  0.00     0.119 C 
BRANCH   8   9
ATOM      9  C   LIG d   1       3.845  86.132 113.859  0.00  0.00     0.028 C 
ATOM     10  C   LIG d   1       4.251  86.547 112.434  0.00  0.00     0.006 C 
ENDBRANCH   8   9
BRANCH   8  11
ATOM     11  C   LIG d   1       1.681  85.647 112.833  0.00  0.00     0.028 C 
ATOM     12  C   LIG d   1       0.150  85.771 112.833  0.00  0.00     0.006 C 
ENDBRANCH   8  11
ENDBRANCH   7   8
ENDBRANCH   1   7
BRANCH   6  13
ATOM     13  N   LIG d   1       4.172  89.466 115.262  0.00  0.00    -0.311 N 
ATOM     14  C   LIG d   1       4.740  89.784 114.100  0.00  0.00     0.210 C 
ATOM     15  C   LIG d   1       6.252  89.549 114.034  0.00  0.00     0.109 C 
ATOM     16  O   LIG d   1       4.140  90.268 113.129  0.00  0.00    -0.276 OA
ATOM     17  H   LIG d   1       4.739  89.110 116.007  0.00  0.00     0.149 HD
ENDBRANCH   6  13
BRANCH   5  18
ATOM     18  N   LIG d   1       2.878  91.788 116.769  0.00  0.00     0.381 N 
ATOM     19  H   LIG d   1       2.359  92.340 117.422  0.00  0.00    -0.090 HD
ATOM     20  H   LIG d   1       2.709  92.149 115.846  0.00  0.00    -0.090 HD
ATOM     21  H   LIG d   1       3.851  91.838 116.980  0.00  0.00    -0.090 HD
ENDBRANCH   5  18
BRANCH   3  22
ATOM     22  C   LIG d   1      -0.797  88.889 117.782  0.00  0.00     0.382 C 
ATOM     23  O   LIG d   1      -1.005  89.569 118.816  0.00  0.00    -0.241 OA
ATOM     24  O   LIG d   1      -1.585  87.973 117.482  0.00  0.00    -0.241 OA
ENDBRANCH   3  22
TORSDOF 7
ENDMDL
MODEL 8
REMARK VINA RESULT:      -4.6      2.610      6.041
REMARK  7 active torsions:
REMARK  status: ('A' for Active; 'I' for Inactive)
REMARK    1  A    between atoms: C_2  and  C_3 
REMARK    2  A    between atoms: C_3  and  O_6 
REMARK    3  A    between atoms: C_3  and  C_4 
REMARK    4  A    between atoms: C_7  and  O_6 
REMARK    5  A    between atoms: C_9  and  C_10 
REMARK    6  A    between atoms: N_15  and  C_14 
REMARK    7  A    between atoms: N_20  and  C_19 
REMARK       I    between atoms: C_22  and  N_20 
ROOT
ATOM      1  C   LIG d   1      -5.905  91.418 117.665  0.00  0.00     0.161 C 
ATOM      2  C   LIG d   1      -4.652  91.225 118.270  0.00  0.00     0.016 C 
ATOM      3  C   LIG d   1      -3.583  90.544 117.645  0.00  0.00     0.038 C 
ATOM      4  C   LIG d   1      -3.645  90.140 116.303  0.00  0.00     0.028 C 
ATOM      5  C   LIG d   1      -5.064  89.865 115.818  0.00  0.00    -0.047 C 
ATOM      6  C   LIG d   1      -5.955  91.081 116.160  0.00  0.00     0.091 C 
ENDROOT
BRANCH   1   7
ATOM      7  O   LIG d   1      -6.354  92.769 117.891  0.00  0.00    -0.368 OA
BRANCH   7   8
ATOM      8  C   LIG d   1      -6.057  93.330 119.194  0.00  0.00     0.119 C 
BRANCH   8   9
ATOM      9  C   LIG d   1      -7.397  93.535 119.926  0.00  0.00     0.028 C 
ATOM     10  C   LIG d   1      -7.845  95.006 119.928  0.00  0.00     0.006 C 
ENDBRANCH   8   9
BRANCH   8  11
ATOM     11  C   LIG d   1      -5.443  94.727 119.072  0.00  0.00     0.028 C 
ATOM     12  C   LIG d   1      -3.917  94.726 119.252  0.00  0.00     0.006 C 
ENDBRANCH   8  11
ENDBRANCH   7   8
ENDBRANCH   1   7
BRANCH   6  13
ATOM     13  N   LIG d   1      -7.379  90.861 115.796  0.00  0.00    -0.311 N 
ATOM     14  C   LIG d   1      -7.905  91.238 114.631  0.00  0.00     0.210 C 
ATOM     15  C   LIG d   1      -9.397  90.933 114.466  0.00  0.00     0.109 C 
ATOM     16  O   LIG d   1      -7.269  91.766 113.707  0.00  0.00    -0.276 OA
ATOM     17  H   LIG d   1      -7.960  90.410 116.476  0.00  0.00     0.149 HD
ENDBRANCH   6  13
BRANCH   5  18
ATOM     18  N   LIG d   1      -4.995  89.587 114.371  0.00  0.00     0.381 N 
ATOM     19  H   LIG d   1      -5.379  90.357 113.860  0.00  0.00    -0.090 HD
ATOM     20  H   LIG d   1      -5.545  88.770 114.171  0.00  0.00    -0.090 HD
ATOM     21  H   LIG d   1      -4.050  89.436 114.098  0.00  0.00    -0.090 HD
ENDBRANCH   5  18
BRANCH   3  22
ATOM     22  C   LIG d   1      -2.448  90.227 118.377  0.00  0.00     0.382 C 
ATOM     23  O   LIG d   1      -2.072  90.979 119.308  0.00  0.00    -0.241 OA
ATOM     24  O   LIG d   1      -1.772  89.222 118.088  0.00  0.00    -0.241 OA
ENDBRANCH   3  22
TORSDOF 7
ENDMDL
MODEL 9
REMARK VINA RESULT:      -4.5      6.905      9.280
REMARK  7 active torsions:
REMARK  status: ('A' for Active; 'I' for Inactive)
REMARK    1  A    between atoms: C_2  and  C_3 
REMARK    2  A    between atoms: C_3  and  O_6 
REMARK    3  A    between atoms: C_3  and  C_4 
REMARK    4  A    between atoms: C_7  and  O_6 
REMARK    5  A    between atoms: C_9  and  C_10 
REMARK    6  A    between atoms: N_15  and  C_14 
REMARK    7  A    between atoms: N_20  and  C_19 
REMARK       I    between atoms: C_22  and  N_20 
ROOT
ATOM      1  C   LIG d   1       3.872  90.149 115.920  0.00  0.00     0.161 C 
ATOM      2  C   LIG d   1       2.771  90.981 116.183  0.00  0.00     0.016 C 
ATOM      3  C   LIG d   1       2.681  91.815 117.322  0.00  0.00     0.038 C 
ATOM      4  C   LIG d   1       3.759  91.987 118.202  0.00  0.00     0.028 C 
ATOM      5  C   LIG d   1       4.698  90.786 118.252  0.00  0.00    -0.047 C 
ATOM      6  C   LIG d   1       5.105  90.407 116.810  0.00  0.00     0.091 C 
ENDROOT
BRANCH   1   7
ATOM      7  O   LIG d   1       4.231  90.241 114.527  0.00  0.00    -0.368 OA
BRANCH   7   8
ATOM      8  C   LIG d   1       3.975  89.063 113.723  0.00  0.00     0.119 C 
BRANCH   8   9
ATOM      9  C   LIG d   1       3.376  87.990 114.653  0.00  0.00     0.028 C 
ATOM     10  C   LIG d   1       4.199  86.691 114.657  0.00  0.00     0.006 C 
ENDBRANCH   8   9
BRANCH   8  11
ATOM     11  C   LIG d   1       5.277  88.457 113.191  0.00  0.00     0.028 C 
ATOM     12  C   LIG d   1       6.439  89.463 113.175  0.00  0.00     0.006 C 
ENDBRANCH   8  11
ENDBRANCH   7   8
ENDBRANCH   1   7
BRANCH   6  13
ATOM     13  N   LIG d   1       5.956  89.189 116.763  0.00  0.00    -0.311 N 
ATOM     14  C   LIG d   1       7.287  89.226 116.731  0.00  0.00     0.210 C 
ATOM     15  C   LIG d   1       7.970  87.857 116.664  0.00  0.00     0.109 C 
ATOM     16  O   LIG d   1       7.968  90.262 116.783  0.00  0.00    -0.276 OA
ATOM     17  H   LIG d   1       5.487  88.305 116.750  0.00  0.00     0.149 HD
ENDBRANCH   6  13
BRANCH   5  18
ATOM     18  N   LIG d   1       5.847  91.154 119.100  0.00  0.00     0.381 N 
ATOM     19  H   LIG d   1       5.576  91.866 119.749  0.00  0.00    -0.090 HD
ATOM     20  H   LIG d   1       6.578  91.522 118.516  0.00  0.00    -0.090 HD
ATOM     21  H   LIG d   1       6.177  90.354 119.593  0.00  0.00    -0.090 HD
ENDBRANCH   5  18
BRANCH   3  22
ATOM     22  C   LIG d   1       1.486  92.456 117.610  0.00  0.00     0.382 C 
ATOM     23  O   LIG d   1       1.459  93.380 118.460  0.00  0.00    -0.241 OA
ATOM     24  O   LIG d   1       0.426  92.094 117.065  0.00  0.00    -0.241 OA
ENDBRANCH   3  22
TORSDOF 7
ENDMDL
