MODEL 1
REMARK VINA RESULT:      -4.4      0.000      0.000
REMARK  7 active torsions:
REMARK  status: ('A' for Active; 'I' for Inactive)
REMARK    1  A    between atoms: C_2  and  C_3 
REMARK    2  A    between atoms: C_3  and  O_6 
REMARK    3  A    between atoms: C_3  and  C_4 
REMARK    4  A    between atoms: C_7  and  O_6 
REMARK    5  A    between atoms: C_9  and  C_10 
REMARK    6  A    between atoms: N_15  and  C_14 
REMARK    7  A    between atoms: N_20  and  C_19 
REMARK       I    between atoms: C_22  and  N_20 
ROOT
ATOM      1  C   LIG d   1       3.384  88.092 116.236  0.00  0.00     0.161 C 
ATOM      2  C   LIG d   1       2.732  87.406 115.198  0.00  0.00     0.016 C 
ATOM      3  C   LIG d   1       3.255  87.298 113.888  0.00  0.00     0.038 C 
ATOM      4  C   LIG d   1       4.545  87.743 113.566  0.00  0.00     0.028 C 
ATOM      5  C   LIG d   1       5.030  88.886 114.451  0.00  0.00    -0.047 C 
ATOM      6  C   LIG d   1       4.844  88.488 115.933  0.00  0.00     0.091 C 
ENDROOT
BRANCH   1   7
ATOM      7  O   LIG d   1       3.317  87.318 117.450  0.00  0.00    -0.368 OA
BRANCH   7   8
ATOM      8  C   LIG d   1       2.351  87.760 118.435  0.00  0.00     0.119 C 
BRANCH   8   9
ATOM      9  C   LIG d   1       1.072  86.923 118.238  0.00  0.00     0.028 C 
ATOM     10  C   LIG d   1      -0.117  87.773 117.760  0.00  0.00     0.006 C 
ENDBRANCH   8   9
BRANCH   8  11
ATOM     11  C   LIG d   1       1.928  89.211 118.189  0.00  0.00     0.028 C 
ATOM     12  C   LIG d   1       2.482  90.181 119.245  0.00  0.00     0.006 C 
ENDBRANCH   8  11
ENDBRANCH   7   8
ENDBRANCH   1   7
BRANCH   6  13
ATOM     13  N   LIG d   1       5.216  89.584 116.865  0.00  0.00    -0.311 N 
ATOM     14  C   LIG d   1       6.001  89.408 117.927  0.00  0.00     0.210 C 
ATOM     15  C   LIG d   1       6.242  90.666 118.768  0.00  0.00     0.109 C 
ATOM     16  O   LIG d   1       6.547  88.338 118.233  0.00  0.00    -0.276 OA
ATOM     17  H   LIG d   1       4.842  90.493 116.673  0.00  0.00     0.149 HD
ENDBRANCH   6  13
BRANCH   5  18
ATOM     18  N   LIG d   1       6.437  89.158 114.097  0.00  0.00     0.381 N 
ATOM     19  H   LIG d   1       6.775  88.444 113.483  0.00  0.00    -0.090 HD
ATOM     20  H   LIG d   1       6.991  89.142 114.935  0.00  0.00    -0.090 HD
ATOM     21  H   LIG d   1       6.512  90.048 113.657  0.00  0.00    -0.090 HD
ENDBRANCH   5  18
BRANCH   3  22
ATOM     22  C   LIG d   1       2.466  86.775 112.875  0.00  0.00     0.382 C 
ATOM     23  O   LIG d   1       1.497  87.436 112.430  0.00  0.00    -0.241 OA
ATOM     24  O   LIG d   1       2.685  85.632 112.430  0.00  0.00    -0.241 OA
ENDBRANCH   3  22
TORSDOF 7
ENDMDL
MODEL 2
REMARK VINA RESULT:      -4.1      2.109      4.414
REMARK  7 active torsions:
REMARK  status: ('A' for Active; 'I' for Inactive)
REMARK    1  A    between atoms: C_2  and  C_3 
REMARK    2  A    between atoms: C_3  and  O_6 
REMARK    3  A    between atoms: C_3  and  C_4 
REMARK    4  A    between atoms: C_7  and  O_6 
REMARK    5  A    between atoms: C_9  and  C_10 
REMARK    6  A    between atoms: N_15  and  C_14 
REMARK    7  A    between atoms: N_20  and  C_19 
REMARK       I    between atoms: C_22  and  N_20 
ROOT
ATOM      1  C   LIG d   1       3.349  87.513 117.043  0.00  0.00     0.161 C 
ATOM      2  C   LIG d   1       2.135  88.217 116.998  0.00  0.00     0.016 C 
ATOM      3  C   LIG d   1       2.004  89.569 117.387  0.00  0.00     0.038 C 
ATOM      4  C   LIG d   1       3.118  90.359 117.709  0.00  0.00     0.028 C 
ATOM      5  C   LIG d   1       4.294  89.555 118.254  0.00  0.00    -0.047 C 
ATOM      6  C   LIG d   1       4.596  88.389 117.285  0.00  0.00     0.091 C 
ENDROOT
BRANCH   1   7
ATOM      7  O   LIG d   1       3.509  86.736 115.840  0.00  0.00    -0.368 OA
BRANCH   7   8
ATOM      8  C   LIG d   1       2.970  87.319 114.628  0.00  0.00     0.119 C 
BRANCH   8   9
ATOM      9  C   LIG d   1       2.072  86.258 113.963  0.00  0.00     0.028 C 
ATOM     10  C   LIG d   1       2.051  86.383 112.431  0.00  0.00     0.006 C 
ENDBRANCH   8   9
BRANCH   8  11
ATOM     11  C   LIG d   1       4.077  87.609 113.610  0.00  0.00     0.028 C 
ATOM     12  C   LIG d   1       4.910  88.849 113.972  0.00  0.00     0.006 C 
ENDBRANCH   8  11
ENDBRANCH   7   8
ENDBRANCH   1   7
BRANCH   6  13
ATOM     13  N   LIG d   1       5.679  87.503 117.786  0.00  0.00    -0.311 N 
ATOM     14  C   LIG d   1       6.957  87.638 117.438  0.00  0.00     0.210 C 
ATOM     15  C   LIG d   1       7.908  86.606 118.053  0.00  0.00     0.109 C 
ATOM     16  O   LIG d   1       7.399  88.535 116.704  0.00  0.00    -0.276 OA
ATOM     17  H   LIG d   1       5.413  86.767 118.412  0.00  0.00     0.149 HD
ENDBRANCH   6  13
BRANCH   5  18
ATOM     18  N   LIG d   1       5.430  90.482 118.416  0.00  0.00     0.381 N 
ATOM     19  H   LIG d   1       6.161  90.236 117.779  0.00  0.00    -0.090 HD
ATOM     20  H   LIG d   1       5.786  90.399 119.352  0.00  0.00    -0.090 HD
ATOM     21  H   LIG d   1       5.133  91.418 118.247  0.00  0.00    -0.090 HD
ENDBRANCH   5  18
BRANCH   3  22
ATOM     22  C   LIG d   1       0.742  90.134 117.497  0.00  0.00     0.382 C 
ATOM     23  O   LIG d   1      -0.273  89.463 117.194  0.00  0.00    -0.241 OA
ATOM     24  O   LIG d   1       0.610  91.321 117.852  0.00  0.00    -0.241 OA
ENDBRANCH   3  22
TORSDOF 7
ENDMDL
MODEL 3
REMARK VINA RESULT:      -4.0      3.859      6.417
REMARK  7 active torsions:
REMARK  status: ('A' for Active; 'I' for Inactive)
REMARK    1  A    between atoms: C_2  and  C_3 
REMARK    2  A    between atoms: C_3  and  O_6 
REMARK    3  A    between atoms: C_3  and  C_4 
REMARK    4  A    between atoms: C_7  and  O_6 
REMARK    5  A    between atoms: C_9  and  C_10 
REMARK    6  A    between atoms: N_15  and  C_14 
REMARK    7  A    between atoms: N_20  and  C_19 
REMARK       I    between atoms: C_22  and  N_20 
ROOT
ATOM      1  C   LIG d   1       1.003  90.277 118.400  0.00  0.00     0.161 C 
ATOM      2  C   LIG d   1       1.247  88.985 118.894  0.00  0.00     0.016 C 
ATOM      3  C   LIG d   1       0.275  87.959 118.903  0.00  0.00     0.038 C 
ATOM      4  C   LIG d   1      -0.970  88.112 118.275  0.00  0.00     0.028 C 
ATOM      5  C   LIG d   1      -1.442  89.561 118.210  0.00  0.00    -0.047 C 
ATOM      6  C   LIG d   1      -0.313  90.429 117.609  0.00  0.00     0.091 C 
ENDROOT
BRANCH   1   7
ATOM      7  O   LIG d   1       2.121  90.714 117.600  0.00  0.00    -0.368 OA
BRANCH   7   8
ATOM      8  C   LIG d   1       3.301  89.874 117.642  0.00  0.00     0.119 C 
BRANCH   8   9
ATOM      9  C   LIG d   1       4.514  90.792 117.887  0.00  0.00     0.028 C 
ATOM     10  C   LIG d   1       4.865  90.916 119.379  0.00  0.00     0.006 C 
ENDBRANCH   8   9
BRANCH   8  11
ATOM     11  C   LIG d   1       3.561  89.210 116.286  0.00  0.00     0.028 C 
ATOM     12  C   LIG d   1       5.037  88.838 116.079  0.00  0.00     0.006 C 
ENDBRANCH   8  11
ENDBRANCH   7   8
ENDBRANCH   1   7
BRANCH   6  13
ATOM     13  N   LIG d   1      -0.660  91.874 117.588  0.00  0.00    -0.311 N 
ATOM     14  C   LIG d   1      -1.005  92.562 118.675  0.00  0.00     0.210 C 
ATOM     15  C   LIG d   1      -1.344  94.035 118.429  0.00  0.00     0.109 C 
ATOM     16  O   LIG d   1      -1.031  92.099 119.826  0.00  0.00    -0.276 OA
ATOM     17  H   LIG d   1      -0.635  92.336 116.700  0.00  0.00     0.149 HD
ENDBRANCH   6  13
BRANCH   5  18
ATOM     18  N   LIG d   1      -2.681  89.590 117.411  0.00  0.00     0.381 N 
ATOM     19  H   LIG d   1      -2.751  90.462 116.926  0.00  0.00    -0.090 HD
ATOM     20  H   LIG d   1      -3.469  89.509 118.030  0.00  0.00    -0.090 HD
ATOM     21  H   LIG d   1      -2.684  88.838 116.758  0.00  0.00    -0.090 HD
ENDBRANCH   5  18
BRANCH   3  22
ATOM     22  C   LIG d   1       0.530  86.777 119.581  0.00  0.00     0.382 C 
ATOM     23  O   LIG d   1      -0.417  86.012 119.887  0.00  0.00    -0.241 OA
ATOM     24  O   LIG d   1       1.690  86.486 119.930  0.00  0.00    -0.241 OA
ENDBRANCH   3  22
TORSDOF 7
ENDMDL
MODEL 4
REMARK VINA RESULT:      -4.0      2.333      5.059
REMARK  7 active torsions:
REMARK  status: ('A' for Active; 'I' for Inactive)
REMARK    1  A    between atoms: C_2  and  C_3 
REMARK    2  A    between atoms: C_3  and  O_6 
REMARK    3  A    between atoms: C_3  and  C_4 
REMARK    4  A    between atoms: C_7  and  O_6 
REMARK    5  A    between atoms: C_9  and  C_10 
REMARK    6  A    between atoms: N_15  and  C_14 
REMARK    7  A    between atoms: N_20  and  C_19 
REMARK       I    between atoms: C_22  and  N_20 
ROOT
ATOM      1  C   LIG d   1       3.997  89.320 116.310  0.00  0.00     0.161 C 
ATOM      2  C   LIG d   1       5.350  88.945 116.256  0.00  0.00     0.016 C 
ATOM      3  C   LIG d   1       6.251  89.130 117.330  0.00  0.00     0.038 C 
ATOM      4  C   LIG d   1       5.822  89.566 118.592  0.00  0.00     0.028 C 
ATOM      5  C   LIG d   1       4.567  90.431 118.539  0.00  0.00    -0.047 C 
ATOM      6  C   LIG d   1       3.485  89.695 117.716  0.00  0.00     0.091 C 
ENDROOT
BRANCH   1   7
ATOM      7  O   LIG d   1       3.179  88.279 115.740  0.00  0.00    -0.368 OA
BRANCH   7   8
ATOM      8  C   LIG d   1       3.616  86.919 115.983  0.00  0.00     0.119 C 
BRANCH   8   9
ATOM      9  C   LIG d   1       3.541  86.162 114.643  0.00  0.00     0.028 C 
ATOM     10  C   LIG d   1       3.398  87.110 113.441  0.00  0.00     0.006 C 
ENDBRANCH   8   9
BRANCH   8  11
ATOM     11  C   LIG d   1       2.653  86.183 116.919  0.00  0.00     0.028 C 
ATOM     12  C   LIG d   1       1.247  86.804 116.936  0.00  0.00     0.006 C 
ENDBRANCH   8  11
ENDBRANCH   7   8
ENDBRANCH   1   7
BRANCH   6  13
ATOM     13  N   LIG d   1       2.253  90.508 117.544  0.00  0.00    -0.311 N 
ATOM     14  C   LIG d   1       1.188  90.403 118.338  0.00  0.00     0.210 C 
ATOM     15  C   LIG d   1       0.017  91.320 117.973  0.00  0.00     0.109 C 
ATOM     16  O   LIG d   1       1.115  89.661 119.329  0.00  0.00    -0.276 OA
ATOM     17  H   LIG d   1       2.238  91.159 116.783  0.00  0.00     0.149 HD
ENDBRANCH   6  13
BRANCH   5  18
ATOM     18  N   LIG d   1       4.153  90.700 119.929  0.00  0.00     0.381 N 
ATOM     19  H   LIG d   1       3.390  90.103 120.177  0.00  0.00    -0.090 HD
ATOM     20  H   LIG d   1       3.841  91.653 119.997  0.00  0.00    -0.090 HD
ATOM     21  H   LIG d   1       4.918  90.548 120.548  0.00  0.00    -0.090 HD
ENDBRANCH   5  18
BRANCH   3  22
ATOM     22  C   LIG d   1       7.607  88.914 117.133  0.00  0.00     0.382 C 
ATOM     23  O   LIG d   1       8.418  89.861 117.269  0.00  0.00    -0.241 OA
ATOM     24  O   LIG d   1       8.024  87.795 116.779  0.00  0.00    -0.241 OA
ENDBRANCH   3  22
TORSDOF 7
ENDMDL
MODEL 5
REMARK VINA RESULT:      -3.9      7.888     10.288
REMARK  7 active torsions:
REMARK  status: ('A' for Active; 'I' for Inactive)
REMARK    1  A    between atoms: C_2  and  C_3 
REMARK    2  A    between atoms: C_3  and  O_6 
REMARK    3  A    between atoms: C_3  and  C_4 
REMARK    4  A    between atoms: C_7  and  O_6 
REMARK    5  A    between atoms: C_9  and  C_10 
REMARK    6  A    between atoms: N_15  and  C_14 
REMARK    7  A    between atoms: N_20  and  C_19 
REMARK       I    between atoms: C_22  and  N_20 
ROOT
ATOM      1  C   LIG d   1      -3.893  92.969 119.776  0.00  0.00     0.161 C 
ATOM      2  C   LIG d   1      -3.717  94.356 119.639  0.00  0.00     0.016 C 
ATOM      3  C   LIG d   1      -2.539  94.944 119.123  0.00  0.00     0.038 C 
ATOM      4  C   LIG d   1      -1.509  94.173 118.564  0.00  0.00     0.028 C 
ATOM      5  C   LIG d   1      -1.426  92.764 119.141  0.00  0.00    -0.047 C 
ATOM      6  C   LIG d   1      -2.825  92.109 119.069  0.00  0.00     0.091 C 
ENDROOT
BRANCH   1   7
ATOM      7  O   LIG d   1      -5.212  92.598 119.330  0.00  0.00    -0.368 OA
BRANCH   7   8
ATOM      8  C   LIG d   1      -6.029  93.668 118.795  0.00  0.00     0.119 C 
BRANCH   8   9
ATOM      9  C   LIG d   1      -6.969  94.139 119.922  0.00  0.00     0.028 C 
ATOM     10  C   LIG d   1      -7.397  95.607 119.753  0.00  0.00     0.006 C 
ENDBRANCH   8   9
BRANCH   8  11
ATOM     11  C   LIG d   1      -6.952  93.162 117.683  0.00  0.00     0.028 C 
ATOM     12  C   LIG d   1      -6.358  91.973 116.911  0.00  0.00     0.006 C 
ENDBRANCH   8  11
ENDBRANCH   7   8
ENDBRANCH   1   7
BRANCH   6  13
ATOM     13  N   LIG d   1      -2.851  90.759 119.690  0.00  0.00    -0.311 N 
ATOM     14  C   LIG d   1      -2.710  89.631 118.997  0.00  0.00     0.210 C 
ATOM     15  C   LIG d   1      -2.788  88.347 119.829  0.00  0.00     0.109 C 
ATOM     16  O   LIG d   1      -2.496  89.572 117.776  0.00  0.00    -0.276 OA
ATOM     17  H   LIG d   1      -2.989  90.715 120.680  0.00  0.00     0.149 HD
ENDBRANCH   6  13
BRANCH   5  18
ATOM     18  N   LIG d   1      -0.403  92.028 118.374  0.00  0.00     0.381 N 
ATOM     19  H   LIG d   1       0.421  92.588 118.284  0.00  0.00    -0.090 HD
ATOM     20  H   LIG d   1      -0.759  91.841 117.453  0.00  0.00    -0.090 HD
ATOM     21  H   LIG d   1      -0.183  91.172 118.833  0.00  0.00    -0.090 HD
ENDBRANCH   5  18
BRANCH   3  22
ATOM     22  C   LIG d   1      -2.367  96.318 119.199  0.00  0.00     0.382 C 
ATOM     23  O   LIG d   1      -1.228  96.817 119.032  0.00  0.00    -0.241 OA
ATOM     24  O   LIG d   1      -3.327  97.061 119.476  0.00  0.00    -0.241 OA
ENDBRANCH   3  22
TORSDOF 7
ENDMDL
MODEL 6
REMARK VINA RESULT:      -3.9      1.445      2.168
REMARK  7 active torsions:
REMARK  status: ('A' for Active; 'I' for Inactive)
REMARK    1  A    between atoms: C_2  and  C_3 
REMARK    2  A    between atoms: C_3  and  O_6 
REMARK    3  A    between atoms: C_3  and  C_4 
REMARK    4  A    between atoms: C_7  and  O_6 
REMARK    5  A    between atoms: C_9  and  C_10 
REMARK    6  A    between atoms: N_15  and  C_14 
REMARK    7  A    between atoms: N_20  and  C_19 
REMARK       I    between atoms: C_22  and  N_20 
ROOT
ATOM      1  C   LIG d   1       2.991  87.815 116.707  0.00  0.00     0.161 C 
ATOM      2  C   LIG d   1       2.544  87.317 115.471  0.00  0.00     0.016 C 
ATOM      3  C   LIG d   1       3.338  87.315 114.301  0.00  0.00     0.038 C 
ATOM      4  C   LIG d   1       4.693  87.674 114.324  0.00  0.00     0.028 C 
ATOM      5  C   LIG d   1       5.041  88.658 115.436  0.00  0.00    -0.047 C 
ATOM      6  C   LIG d   1       4.504  88.109 116.777  0.00  0.00     0.091 C 
ENDROOT
BRANCH   1   7
ATOM      7  O   LIG d   1       2.605  86.915 117.764  0.00  0.00    -0.368 OA
BRANCH   7   8
ATOM      8  C   LIG d   1       1.278  87.107 118.313  0.00  0.00     0.119 C 
BRANCH   8   9
ATOM      9  C   LIG d   1       1.337  88.327 119.252  0.00  0.00     0.028 C 
ATOM     10  C   LIG d   1       0.435  89.478 118.776  0.00  0.00     0.006 C 
ENDBRANCH   8   9
BRANCH   8  11
ATOM     11  C   LIG d   1       0.867  85.929 119.202  0.00  0.00     0.028 C 
ATOM     12  C   LIG d   1      -0.559  85.434 118.913  0.00  0.00     0.006 C 
ENDBRANCH   8  11
ENDBRANCH   7   8
ENDBRANCH   1   7
BRANCH   6  13
ATOM     13  N   LIG d   1       4.727  89.050 117.905  0.00  0.00    -0.311 N 
ATOM     14  C   LIG d   1       4.319  90.318 117.894  0.00  0.00     0.210 C 
ATOM     15  C   LIG d   1       4.669  91.121 119.151  0.00  0.00     0.109 C 
ATOM     16  O   LIG d   1       3.672  90.844 116.977  0.00  0.00    -0.276 OA
ATOM     17  H   LIG d   1       5.218  88.697 118.704  0.00  0.00     0.149 HD
ENDBRANCH   6  13
BRANCH   5  18
ATOM     18  N   LIG d   1       6.505  88.839 115.430  0.00  0.00     0.381 N 
ATOM     19  H   LIG d   1       6.956  87.946 115.427  0.00  0.00    -0.090 HD
ATOM     20  H   LIG d   1       6.776  89.327 116.265  0.00  0.00    -0.090 HD
ATOM     21  H   LIG d   1       6.781  89.361 114.627  0.00  0.00    -0.090 HD
ENDBRANCH   5  18
BRANCH   3  22
ATOM     22  C   LIG d   1       2.763  86.987 113.082  0.00  0.00     0.382 C 
ATOM     23  O   LIG d   1       3.194  86.006 112.430  0.00  0.00    -0.241 OA
ATOM     24  O   LIG d   1       1.850  87.688 112.606  0.00  0.00    -0.241 OA
ENDBRANCH   3  22
TORSDOF 7
ENDMDL
MODEL 7
REMARK VINA RESULT:      -3.6      9.170     11.472
REMARK  7 active torsions:
REMARK  status: ('A' for Active; 'I' for Inactive)
REMARK    1  A    between atoms: C_2  and  C_3 
REMARK    2  A    between atoms: C_3  and  O_6 
REMARK    3  A    between atoms: C_3  and  C_4 
REMARK    4  A    between atoms: C_7  and  O_6 
REMARK    5  A    between atoms: C_9  and  C_10 
REMARK    6  A    between atoms: N_15  and  C_14 
REMARK    7  A    between atoms: N_20  and  C_19 
REMARK       I    between atoms: C_22  and  N_20 
ROOT
ATOM      1  C   LIG d   1      -5.284  93.400 119.596  0.00  0.00     0.161 C 
ATOM      2  C   LIG d   1      -4.286  92.444 119.347  0.00  0.00     0.016 C 
ATOM      3  C   LIG d   1      -4.333  91.532 118.267  0.00  0.00     0.038 C 
ATOM      4  C   LIG d   1      -5.316  91.615 117.270  0.00  0.00     0.028 C 
ATOM      5  C   LIG d   1      -6.621  92.236 117.755  0.00  0.00    -0.047 C 
ATOM      6  C   LIG d   1      -6.308  93.578 118.455  0.00  0.00     0.091 C 
ENDROOT
BRANCH   1   7
ATOM      7  O   LIG d   1      -4.678  94.664 119.928  0.00  0.00    -0.368 OA
BRANCH   7   8
ATOM      8  C   LIG d   1      -3.627  95.120 119.042  0.00  0.00     0.119 C 
BRANCH   8   9
ATOM      9  C   LIG d   1      -2.318  94.442 119.489  0.00  0.00     0.028 C 
ATOM     10  C   LIG d   1      -1.370  94.160 118.311  0.00  0.00     0.006 C 
ENDBRANCH   8   9
BRANCH   8  11
ATOM     11  C   LIG d   1      -3.379  96.623 119.197  0.00  0.00     0.028 C 
ATOM     12  C   LIG d   1      -4.670  97.416 119.456  0.00  0.00     0.006 C 
ENDBRANCH   8  11
ENDBRANCH   7   8
ENDBRANCH   1   7
BRANCH   6  13
ATOM     13  N   LIG d   1      -7.521  94.213 119.034  0.00  0.00    -0.311 N 
ATOM     14  C   LIG d   1      -7.930  95.439 118.714  0.00  0.00     0.210 C 
ATOM     15  C   LIG d   1      -9.194  95.909 119.442  0.00  0.00     0.109 C 
ATOM     16  O   LIG d   1      -7.386  96.170 117.873  0.00  0.00    -0.276 OA
ATOM     17  H   LIG d   1      -8.040  93.678 119.702  0.00  0.00     0.149 HD
ENDBRANCH   6  13
BRANCH   5  18
ATOM     18  N   LIG d   1      -7.505  92.388 116.584  0.00  0.00     0.381 N 
ATOM     19  H   LIG d   1      -8.412  92.690 116.881  0.00  0.00    -0.090 HD
ATOM     20  H   LIG d   1      -7.602  91.496 116.132  0.00  0.00    -0.090 HD
ATOM     21  H   LIG d   1      -7.118  93.050 115.948  0.00  0.00    -0.090 HD
ENDBRANCH   5  18
BRANCH   3  22
ATOM     22  C   LIG d   1      -3.413  90.497 118.201  0.00  0.00     0.382 C 
ATOM     23  O   LIG d   1      -3.519  89.620 117.310  0.00  0.00    -0.241 OA
ATOM     24  O   LIG d   1      -2.503  90.405 119.047  0.00  0.00    -0.241 OA
ENDBRANCH   3  22
TORSDOF 7
ENDMDL
MODEL 8
REMARK VINA RESULT:      -3.4      3.593      6.260
REMARK  7 active torsions:
REMARK  status: ('A' for Active; 'I' for Inactive)
REMARK    1  A    between atoms: C_2  and  C_3 
REMARK    2  A    between atoms: C_3  and  O_6 
REMARK    3  A    between atoms: C_3  and  C_4 
REMARK    4  A    between atoms: C_7  and  O_6 
REMARK    5  A    between atoms: C_9  and  C_10 
REMARK    6  A    between atoms: N_15  and  C_14 
REMARK    7  A    between atoms: N_20  and  C_19 
REMARK       I    between atoms: C_22  and  N_20 
ROOT
ATOM      1  C   LIG d   1       0.562  89.003 117.140  0.00  0.00     0.161 C 
ATOM      2  C   LIG d   1       1.962  89.025 117.244  0.00  0.00     0.016 C 
ATOM      3  C   LIG d   1       2.661  89.842 118.163  0.00  0.00     0.038 C 
ATOM      4  C   LIG d   1       1.996  90.585 119.150  0.00  0.00     0.028 C 
ATOM      5  C   LIG d   1       0.578  90.982 118.755  0.00  0.00    -0.047 C 
ATOM      6  C   LIG d   1      -0.184  89.723 118.283  0.00  0.00     0.091 C 
ENDROOT
BRANCH   1   7
ATOM      7  O   LIG d   1       0.102  87.642 117.022  0.00  0.00    -0.368 OA
BRANCH   7   8
ATOM      8  C   LIG d   1       1.045  86.614 117.416  0.00  0.00     0.119 C 
BRANCH   8   9
ATOM      9  C   LIG d   1       1.077  85.560 116.292  0.00  0.00     0.028 C 
ATOM     10  C   LIG d   1       2.057  85.931 115.167  0.00  0.00     0.006 C 
ENDBRANCH   8   9
BRANCH   8  11
ATOM     11  C   LIG d   1       0.564  85.865 118.662  0.00  0.00     0.028 C 
ATOM     12  C   LIG d   1      -0.895  86.185 119.023  0.00  0.00     0.006 C 
ENDBRANCH   8  11
ENDBRANCH   7   8
ENDBRANCH   1   7
BRANCH   6  13
ATOM     13  N   LIG d   1      -1.553  90.037 117.800  0.00  0.00    -0.311 N 
ATOM     14  C   LIG d   1      -2.635  89.985 118.576  0.00  0.00     0.210 C 
ATOM     15  C   LIG d   1      -3.952  90.327 117.873  0.00  0.00     0.109 C 
ATOM     16  O   LIG d   1      -2.624  89.720 119.787  0.00  0.00    -0.276 OA
ATOM     17  H   LIG d   1      -1.650  90.292 116.836  0.00  0.00     0.149 HD
ENDBRANCH   6  13
BRANCH   5  18
ATOM     18  N   LIG d   1      -0.045  91.630 119.925  0.00  0.00     0.381 N 
ATOM     19  H   LIG d   1       0.577  91.585 120.708  0.00  0.00    -0.090 HD
ATOM     20  H   LIG d   1      -0.886  91.134 120.162  0.00  0.00    -0.090 HD
ATOM     21  H   LIG d   1      -0.259  92.580 119.716  0.00  0.00    -0.090 HD
ENDBRANCH   5  18
BRANCH   3  22
ATOM     22  C   LIG d   1       4.041  89.952 118.073  0.00  0.00     0.382 C 
ATOM     23  O   LIG d   1       4.769  89.452 118.964  0.00  0.00    -0.241 OA
ATOM     24  O   LIG d   1       4.565  90.583 117.136  0.00  0.00    -0.241 OA
ENDBRANCH   3  22
TORSDOF 7
ENDMDL
MODEL 9
REMARK VINA RESULT:      -3.4      8.887     11.423
REMARK  7 active torsions:
REMARK  status: ('A' for Active; 'I' for Inactive)
REMARK    1  A    between atoms: C_2  and  C_3 
REMARK    2  A    between atoms: C_3  and  O_6 
REMARK    3  A    between atoms: C_3  and  C_4 
REMARK    4  A    between atoms: C_7  and  O_6 
REMARK    5  A    between atoms: C_9  and  C_10 
REMARK    6  A    between atoms: N_15  and  C_14 
REMARK    7  A    between atoms: N_20  and  C_19 
REMARK       I    between atoms: C_22  and  N_20 
ROOT
ATOM      1  C   LIG d   1      -5.980  91.816 116.931  0.00  0.00     0.161 C 
ATOM      2  C   LIG d   1      -4.944  90.879 117.074  0.00  0.00     0.016 C 
ATOM      3  C   LIG d   1      -3.955  90.960 118.082  0.00  0.00     0.038 C 
ATOM      4  C   LIG d   1      -4.025  91.907 119.115  0.00  0.00     0.028 C 
ATOM      5  C   LIG d   1      -4.769  93.179 118.721  0.00  0.00    -0.047 C 
ATOM      6  C   LIG d   1      -6.137  92.793 118.115  0.00  0.00     0.091 C 
ENDROOT
BRANCH   1   7
ATOM      7  O   LIG d   1      -7.224  91.134 116.676  0.00  0.00    -0.368 OA
BRANCH   7   8
ATOM      8  C   LIG d   1      -7.278  90.337 115.468  0.00  0.00     0.119 C 
BRANCH   8   9
ATOM      9  C   LIG d   1      -7.055  91.287 114.276  0.00  0.00     0.028 C 
ATOM     10  C   LIG d   1      -8.146  91.146 113.201  0.00  0.00     0.006 C 
ENDBRANCH   8   9
BRANCH   8  11
ATOM     11  C   LIG d   1      -8.672  89.739 115.255  0.00  0.00     0.028 C 
ATOM     12  C   LIG d   1      -9.323  89.265 116.565  0.00  0.00     0.006 C 
ENDBRANCH   8  11
ENDBRANCH   7   8
ENDBRANCH   1   7
BRANCH   6  13
ATOM     13  N   LIG d   1      -6.894  93.975 117.626  0.00  0.00    -0.311 N 
ATOM     14  C   LIG d   1      -7.661  94.730 118.411  0.00  0.00     0.210 C 
ATOM     15  C   LIG d   1      -8.369  95.888 117.701  0.00  0.00     0.109 C 
ATOM     16  O   LIG d   1      -7.797  94.570 119.633  0.00  0.00    -0.276 OA
ATOM     17  H   LIG d   1      -6.816  94.195 116.653  0.00  0.00     0.149 HD
ENDBRANCH   6  13
BRANCH   5  18
ATOM     18  N   LIG d   1      -4.887  94.018 119.929  0.00  0.00     0.381 N 
ATOM     19  H   LIG d   1      -3.988  94.126 120.355  0.00  0.00    -0.090 HD
ATOM     20  H   LIG d   1      -5.494  93.560 120.585  0.00  0.00    -0.090 HD
ATOM     21  H   LIG d   1      -5.258  94.911 119.689  0.00  0.00    -0.090 HD
ENDBRANCH   5  18
BRANCH   3  22
ATOM     22  C   LIG d   1      -2.860  90.111 118.040  0.00  0.00     0.382 C 
ATOM     23  O   LIG d   1      -3.030  88.869 117.999  0.00  0.00    -0.241 OA
ATOM     24  O   LIG d   1      -1.703  90.570 118.087  0.00  0.00    -0.241 OA
ENDBRANCH   3  22
TORSDOF 7
ENDMDL
