MODEL 1
REMARK VINA RESULT:      -5.0      0.000      0.000
REMARK  7 active torsions:
REMARK  status: ('A' for Active; 'I' for Inactive)
REMARK    1  A    between atoms: C_2  and  C_3 
REMARK    2  A    between atoms: C_3  and  O_6 
REMARK    3  A    between atoms: C_3  and  C_4 
REMARK    4  A    between atoms: C_7  and  O_6 
REMARK    5  A    between atoms: C_9  and  C_10 
REMARK    6  A    between atoms: N_15  and  C_14 
REMARK    7  A    between atoms: N_20  and  C_19 
REMARK       I    between atoms: C_22  and  N_20 
ROOT
ATOM      1  C   LIG d   1      -6.463  93.056 119.306  0.00  0.00     0.161 C 
ATOM      2  C   LIG d   1      -7.698  93.713 119.179  0.00  0.00     0.016 C 
ATOM      3  C   LIG d   1      -7.825  95.118 119.081  0.00  0.00     0.038 C 
ATOM      4  C   LIG d   1      -6.708  95.957 118.951  0.00  0.00     0.028 C 
ATOM      5  C   LIG d   1      -5.444  95.383 119.581  0.00  0.00    -0.047 C 
ATOM      6  C   LIG d   1      -5.228  93.946 119.054  0.00  0.00     0.091 C 
ENDROOT
BRANCH   1   7
ATOM      7  O   LIG d   1      -6.433  91.902 118.443  0.00  0.00    -0.368 OA
BRANCH   7   8
ATOM      8  C   LIG d   1      -5.832  92.096 117.139  0.00  0.00     0.119 C 
BRANCH   8   9
ATOM      9  C   LIG d   1      -6.977  92.281 116.124  0.00  0.00     0.028 C 
ATOM     10  C   LIG d   1      -6.618  91.743 114.729  0.00  0.00     0.006 C 
ENDBRANCH   8   9
BRANCH   8  11
ATOM     11  C   LIG d   1      -5.081  90.843 116.679  0.00  0.00     0.028 C 
ATOM     12  C   LIG d   1      -4.350  90.131 117.828  0.00  0.00     0.006 C 
ENDBRANCH   8  11
ENDBRANCH   7   8
ENDBRANCH   1   7
BRANCH   6  13
ATOM     13  N   LIG d   1      -4.058  93.281 119.684  0.00  0.00    -0.311 N 
ATOM     14  C   LIG d   1      -2.853  93.227 119.119  0.00  0.00     0.210 C 
ATOM     15  C   LIG d   1      -1.792  92.476 119.930  0.00  0.00     0.109 C 
ATOM     16  O   LIG d   1      -2.554  93.758 118.039  0.00  0.00    -0.276 OA
ATOM     17  H   LIG d   1      -4.204  92.851 120.576  0.00  0.00     0.149 HD
ENDBRANCH   6  13
BRANCH   5  18
ATOM     18  N   LIG d   1      -4.330  96.293 119.253  0.00  0.00     0.381 N 
ATOM     19  H   LIG d   1      -3.862  95.972 118.429  0.00  0.00    -0.090 HD
ATOM     20  H   LIG d   1      -3.672  96.288 120.012  0.00  0.00    -0.090 HD
ATOM     21  H   LIG d   1      -4.675  97.216 119.109  0.00  0.00    -0.090 HD
ENDBRANCH   5  18
BRANCH   3  22
ATOM     22  C   LIG d   1      -9.082  95.701 119.154  0.00  0.00     0.382 C 
ATOM     23  O   LIG d   1      -9.192  96.949 119.205  0.00  0.00    -0.241 OA
ATOM     24  O   LIG d   1     -10.104  94.992 119.213  0.00  0.00    -0.241 OA
ENDBRANCH   3  22
TORSDOF 7
ENDMDL
MODEL 2
REMARK VINA RESULT:      -4.7      2.134      3.980
REMARK  7 active torsions:
REMARK  status: ('A' for Active; 'I' for Inactive)
REMARK    1  A    between atoms: C_2  and  C_3 
REMARK    2  A    between atoms: C_3  and  O_6 
REMARK    3  A    between atoms: C_3  and  C_4 
REMARK    4  A    between atoms: C_7  and  O_6 
REMARK    5  A    between atoms: C_9  and  C_10 
REMARK    6  A    between atoms: N_15  and  C_14 
REMARK    7  A    between atoms: N_20  and  C_19 
REMARK       I    between atoms: C_22  and  N_20 
ROOT
ATOM      1  C   LIG d   1      -5.414  93.003 118.624  0.00  0.00     0.161 C 
ATOM      2  C   LIG d   1      -5.955  94.176 119.175  0.00  0.00     0.016 C 
ATOM      3  C   LIG d   1      -7.111  94.813 118.667  0.00  0.00     0.038 C 
ATOM      4  C   LIG d   1      -7.896  94.232 117.660  0.00  0.00     0.028 C 
ATOM      5  C   LIG d   1      -7.109  93.308 116.737  0.00  0.00    -0.047 C 
ATOM      6  C   LIG d   1      -6.319  92.294 117.596  0.00  0.00     0.091 C 
ENDROOT
BRANCH   1   7
ATOM      7  O   LIG d   1      -5.045  92.093 119.679  0.00  0.00    -0.368 OA
BRANCH   7   8
ATOM      8  C   LIG d   1      -3.626  91.855 119.850  0.00  0.00     0.119 C 
BRANCH   8   9
ATOM      9  C   LIG d   1      -2.876  92.926 119.034  0.00  0.00     0.028 C 
ATOM     10  C   LIG d   1      -2.254  94.014 119.926  0.00  0.00     0.006 C 
ENDBRANCH   8   9
BRANCH   8  11
ATOM     11  C   LIG d   1      -3.209  90.514 119.239  0.00  0.00     0.028 C 
ATOM     12  C   LIG d   1      -2.202  90.671 118.089  0.00  0.00     0.006 C 
ENDBRANCH   8  11
ENDBRANCH   7   8
ENDBRANCH   1   7
BRANCH   6  13
ATOM     13  N   LIG d   1      -5.456  91.406 116.774  0.00  0.00    -0.311 N 
ATOM     14  C   LIG d   1      -5.899  90.300 116.177  0.00  0.00     0.210 C 
ATOM     15  C   LIG d   1      -4.839  89.519 115.395  0.00  0.00     0.109 C 
ATOM     16  O   LIG d   1      -7.076  89.910 116.195  0.00  0.00    -0.276 OA
ATOM     17  H   LIG d   1      -4.493  91.664 116.681  0.00  0.00     0.149 HD
ENDBRANCH   6  13
BRANCH   5  18
ATOM     18  N   LIG d   1      -8.072  92.665 115.823  0.00  0.00     0.381 N 
ATOM     19  H   LIG d   1      -7.659  92.554 114.919  0.00  0.00    -0.090 HD
ATOM     20  H   LIG d   1      -8.878  93.258 115.731  0.00  0.00    -0.090 HD
ATOM     21  H   LIG d   1      -8.343  91.777 116.183  0.00  0.00    -0.090 HD
ENDBRANCH   5  18
BRANCH   3  22
ATOM     22  C   LIG d   1      -7.470  96.066 119.141  0.00  0.00     0.382 C 
ATOM     23  O   LIG d   1      -8.516  96.203 119.820  0.00  0.00    -0.241 OA
ATOM     24  O   LIG d   1      -6.785  97.067 118.861  0.00  0.00    -0.241 OA
ENDBRANCH   3  22
TORSDOF 7
ENDMDL
MODEL 3
REMARK VINA RESULT:      -4.7      2.002      4.749
REMARK  7 active torsions:
REMARK  status: ('A' for Active; 'I' for Inactive)
REMARK    1  A    between atoms: C_2  and  C_3 
REMARK    2  A    between atoms: C_3  and  O_6 
REMARK    3  A    between atoms: C_3  and  C_4 
REMARK    4  A    between atoms: C_7  and  O_6 
REMARK    5  A    between atoms: C_9  and  C_10 
REMARK    6  A    between atoms: N_15  and  C_14 
REMARK    7  A    between atoms: N_20  and  C_19 
REMARK       I    between atoms: C_22  and  N_20 
ROOT
ATOM      1  C   LIG d   1      -6.329  92.834 117.989  0.00  0.00     0.161 C 
ATOM      2  C   LIG d   1      -7.266  92.062 117.283  0.00  0.00     0.016 C 
ATOM      3  C   LIG d   1      -6.932  90.878 116.586  0.00  0.00     0.038 C 
ATOM      4  C   LIG d   1      -5.657  90.300 116.675  0.00  0.00     0.028 C 
ATOM      5  C   LIG d   1      -4.553  91.311 116.961  0.00  0.00    -0.047 C 
ATOM      6  C   LIG d   1      -4.955  92.160 118.189  0.00  0.00     0.091 C 
ENDROOT
BRANCH   1   7
ATOM      7  O   LIG d   1      -6.881  93.233 119.259  0.00  0.00    -0.368 OA
BRANCH   7   8
ATOM      8  C   LIG d   1      -7.153  94.647 119.420  0.00  0.00     0.119 C 
BRANCH   8   9
ATOM      9  C   LIG d   1      -7.734  95.161 118.089  0.00  0.00     0.028 C 
ATOM     10  C   LIG d   1      -9.189  95.639 118.230  0.00  0.00     0.006 C 
ENDBRANCH   8   9
BRANCH   8  11
ATOM     11  C   LIG d   1      -5.862  95.441 119.634  0.00  0.00     0.028 C 
ATOM     12  C   LIG d   1      -6.105  96.954 119.750  0.00  0.00     0.006 C 
ENDBRANCH   8  11
ENDBRANCH   7   8
ENDBRANCH   1   7
BRANCH   6  13
ATOM     13  N   LIG d   1      -3.968  93.230 118.487  0.00  0.00    -0.311 N 
ATOM     14  C   LIG d   1      -2.952  93.075 119.334  0.00  0.00     0.210 C 
ATOM     15  C   LIG d   1      -2.064  94.310 119.512  0.00  0.00     0.109 C 
ATOM     16  O   LIG d   1      -2.683  92.021 119.930  0.00  0.00    -0.276 OA
ATOM     17  H   LIG d   1      -4.093  94.108 118.023  0.00  0.00     0.149 HD
ENDBRANCH   6  13
BRANCH   5  18
ATOM     18  N   LIG d   1      -3.301  90.558 117.165  0.00  0.00     0.381 N 
ATOM     19  H   LIG d   1      -2.521  91.110 116.867  0.00  0.00    -0.090 HD
ATOM     20  H   LIG d   1      -3.329  89.724 116.605  0.00  0.00    -0.090 HD
ATOM     21  H   LIG d   1      -3.199  90.318 118.126  0.00  0.00    -0.090 HD
ENDBRANCH   5  18
BRANCH   3  22
ATOM     22  C   LIG d   1      -7.870  90.281 115.757  0.00  0.00     0.382 C 
ATOM     23  O   LIG d   1      -8.705  89.475 116.233  0.00  0.00    -0.241 OA
ATOM     24  O   LIG d   1      -7.863  90.505 114.532  0.00  0.00    -0.241 OA
ENDBRANCH   3  22
TORSDOF 7
ENDMDL
MODEL 4
REMARK VINA RESULT:      -4.7      2.476      5.809
REMARK  7 active torsions:
REMARK  status: ('A' for Active; 'I' for Inactive)
REMARK    1  A    between atoms: C_2  and  C_3 
REMARK    2  A    between atoms: C_3  and  O_6 
REMARK    3  A    between atoms: C_3  and  C_4 
REMARK    4  A    between atoms: C_7  and  O_6 
REMARK    5  A    between atoms: C_9  and  C_10 
REMARK    6  A    between atoms: N_15  and  C_14 
REMARK    7  A    between atoms: N_20  and  C_19 
REMARK       I    between atoms: C_22  and  N_20 
ROOT
ATOM      1  C   LIG d   1      -5.510  91.855 118.204  0.00  0.00     0.161 C 
ATOM      2  C   LIG d   1      -4.966  90.893 117.337  0.00  0.00     0.016 C 
ATOM      3  C   LIG d   1      -5.474  90.635 116.043  0.00  0.00     0.038 C 
ATOM      4  C   LIG d   1      -6.474  91.432 115.467  0.00  0.00     0.028 C 
ATOM      5  C   LIG d   1      -7.394  92.086 116.493  0.00  0.00    -0.047 C 
ATOM      6  C   LIG d   1      -6.531  92.810 117.551  0.00  0.00     0.091 C 
ENDROOT
BRANCH   1   7
ATOM      7  O   LIG d   1      -4.450  92.605 118.829  0.00  0.00    -0.368 OA
BRANCH   7   8
ATOM      8  C   LIG d   1      -3.100  92.186 118.513  0.00  0.00     0.119 C 
BRANCH   8   9
ATOM      9  C   LIG d   1      -2.470  91.636 119.807  0.00  0.00     0.028 C 
ATOM     10  C   LIG d   1      -0.990  91.259 119.626  0.00  0.00     0.006 C 
ENDBRANCH   8   9
BRANCH   8  11
ATOM     11  C   LIG d   1      -2.226  93.377 118.111  0.00  0.00     0.028 C 
ATOM     12  C   LIG d   1      -2.434  94.601 119.017  0.00  0.00     0.006 C 
ENDBRANCH   8  11
ENDBRANCH   7   8
ENDBRANCH   1   7
BRANCH   6  13
ATOM     13  N   LIG d   1      -7.349  93.406 118.639  0.00  0.00    -0.311 N 
ATOM     14  C   LIG d   1      -7.704  94.690 118.671  0.00  0.00     0.210 C 
ATOM     15  C   LIG d   1      -8.531  95.102 119.892  0.00  0.00     0.109 C 
ATOM     16  O   LIG d   1      -7.440  95.519 117.787  0.00  0.00    -0.276 OA
ATOM     17  H   LIG d   1      -7.634  92.798 119.381  0.00  0.00     0.149 HD
ENDBRANCH   6  13
BRANCH   5  18
ATOM     18  N   LIG d   1      -8.299  92.994 115.765  0.00  0.00     0.381 N 
ATOM     19  H   LIG d   1      -9.170  93.066 116.252  0.00  0.00    -0.090 HD
ATOM     20  H   LIG d   1      -8.478  92.613 114.853  0.00  0.00    -0.090 HD
ATOM     21  H   LIG d   1      -7.883  93.895 115.680  0.00  0.00    -0.090 HD
ENDBRANCH   5  18
BRANCH   3  22
ATOM     22  C   LIG d   1      -5.008  89.543 115.327  0.00  0.00     0.382 C 
ATOM     23  O   LIG d   1      -5.714  89.040 114.420  0.00  0.00    -0.241 OA
ATOM     24  O   LIG d   1      -3.909  89.027 115.606  0.00  0.00    -0.241 OA
ENDBRANCH   3  22
TORSDOF 7
ENDMDL
MODEL 5
REMARK VINA RESULT:      -4.5      8.723     11.463
REMARK  7 active torsions:
REMARK  status: ('A' for Active; 'I' for Inactive)
REMARK    1  A    between atoms: C_2  and  C_3 
REMARK    2  A    between atoms: C_3  and  O_6 
REMARK    3  A    between atoms: C_3  and  C_4 
REMARK    4  A    between atoms: C_7  and  O_6 
REMARK    5  A    between atoms: C_9  and  C_10 
REMARK    6  A    between atoms: N_15  and  C_14 
REMARK    7  A    between atoms: N_20  and  C_19 
REMARK       I    between atoms: C_22  and  N_20 
ROOT
ATOM      1  C   LIG d   1       3.687  89.163 115.810  0.00  0.00     0.161 C 
ATOM      2  C   LIG d   1       2.497  89.805 116.194  0.00  0.00     0.016 C 
ATOM      3  C   LIG d   1       2.341  90.482 117.426  0.00  0.00     0.038 C 
ATOM      4  C   LIG d   1       3.420  90.694 118.297  0.00  0.00     0.028 C 
ATOM      5  C   LIG d   1       4.508  89.631 118.184  0.00  0.00    -0.047 C 
ATOM      6  C   LIG d   1       4.908  89.479 116.698  0.00  0.00     0.091 C 
ENDROOT
BRANCH   1   7
ATOM      7  O   LIG d   1       3.980  89.462 114.431  0.00  0.00    -0.368 OA
BRANCH   7   8
ATOM      8  C   LIG d   1       3.773  88.383 113.487  0.00  0.00     0.119 C 
BRANCH   8   9
ATOM      9  C   LIG d   1       3.328  87.145 114.289  0.00  0.00     0.028 C 
ATOM     10  C   LIG d   1       4.178  85.903 113.971  0.00  0.00     0.006 C 
ENDBRANCH   8   9
BRANCH   8  11
ATOM     11  C   LIG d   1       5.085  87.977 112.809  0.00  0.00     0.028 C 
ATOM     12  C   LIG d   1       6.188  89.037 112.962  0.00  0.00     0.006 C 
ENDBRANCH   8  11
ENDBRANCH   7   8
ENDBRANCH   1   7
BRANCH   6  13
ATOM     13  N   LIG d   1       5.908  88.400 116.488  0.00  0.00    -0.311 N 
ATOM     14  C   LIG d   1       7.223  88.612 116.473  0.00  0.00     0.210 C 
ATOM     15  C   LIG d   1       8.076  87.364 116.221  0.00  0.00     0.109 C 
ATOM     16  O   LIG d   1       7.765  89.708 116.675  0.00  0.00    -0.276 OA
ATOM     17  H   LIG d   1       5.556  87.473 116.347  0.00  0.00     0.149 HD
ENDBRANCH   6  13
BRANCH   5  18
ATOM     18  N   LIG d   1       5.631  90.050 119.045  0.00  0.00     0.381 N 
ATOM     19  H   LIG d   1       6.493  89.715 118.663  0.00  0.00    -0.090 HD
ATOM     20  H   LIG d   1       5.510  89.644 119.956  0.00  0.00    -0.090 HD
ATOM     21  H   LIG d   1       5.654  91.043 119.116  0.00  0.00    -0.090 HD
ENDBRANCH   5  18
BRANCH   3  22
ATOM     22  C   LIG d   1       1.085  90.920 117.814  0.00  0.00     0.382 C 
ATOM     23  O   LIG d   1       0.976  91.849 118.651  0.00  0.00    -0.241 OA
ATOM     24  O   LIG d   1       0.059  90.370 117.372  0.00  0.00    -0.241 OA
ENDBRANCH   3  22
TORSDOF 7
ENDMDL
MODEL 6
REMARK VINA RESULT:      -4.4      2.010      5.327
REMARK  7 active torsions:
REMARK  status: ('A' for Active; 'I' for Inactive)
REMARK    1  A    between atoms: C_2  and  C_3 
REMARK    2  A    between atoms: C_3  and  O_6 
REMARK    3  A    between atoms: C_3  and  C_4 
REMARK    4  A    between atoms: C_7  and  O_6 
REMARK    5  A    between atoms: C_9  and  C_10 
REMARK    6  A    between atoms: N_15  and  C_14 
REMARK    7  A    between atoms: N_20  and  C_19 
REMARK       I    between atoms: C_22  and  N_20 
ROOT
ATOM      1  C   LIG d   1      -4.767  91.658 117.694  0.00  0.00     0.161 C 
ATOM      2  C   LIG d   1      -3.535  91.009 117.884  0.00  0.00     0.016 C 
ATOM      3  C   LIG d   1      -2.497  91.531 118.689  0.00  0.00     0.038 C 
ATOM      4  C   LIG d   1      -2.677  92.673 119.484  0.00  0.00     0.028 C 
ATOM      5  C   LIG d   1      -3.725  93.635 118.934  0.00  0.00    -0.047 C 
ATOM      6  C   LIG d   1      -5.023  92.848 118.642  0.00  0.00     0.091 C 
ENDROOT
BRANCH   1   7
ATOM      7  O   LIG d   1      -5.842  90.703 117.787  0.00  0.00    -0.368 OA
BRANCH   7   8
ATOM      8  C   LIG d   1      -6.494  90.353 116.542  0.00  0.00     0.119 C 
BRANCH   8   9
ATOM      9  C   LIG d   1      -5.879  91.231 115.435  0.00  0.00     0.028 C 
ATOM     10  C   LIG d   1      -6.898  92.209 114.828  0.00  0.00     0.006 C 
ENDBRANCH   8   9
BRANCH   8  11
ATOM     11  C   LIG d   1      -7.981  90.717 116.569  0.00  0.00     0.028 C 
ATOM     12  C   LIG d   1      -8.875  89.617 115.975  0.00  0.00     0.006 C 
ENDBRANCH   8  11
ENDBRANCH   7   8
ENDBRANCH   1   7
BRANCH   6  13
ATOM     13  N   LIG d   1      -6.073  93.698 118.022  0.00  0.00    -0.311 N 
ATOM     14  C   LIG d   1      -7.213  94.018 118.632  0.00  0.00     0.210 C 
ATOM     15  C   LIG d   1      -8.167  94.888 117.808  0.00  0.00     0.109 C 
ATOM     16  O   LIG d   1      -7.510  93.690 119.791  0.00  0.00    -0.276 OA
ATOM     17  H   LIG d   1      -5.900  94.033 117.094  0.00  0.00     0.149 HD
ENDBRANCH   6  13
BRANCH   5  18
ATOM     18  N   LIG d   1      -3.910  94.708 119.928  0.00  0.00     0.381 N 
ATOM     19  H   LIG d   1      -4.497  94.385 120.670  0.00  0.00    -0.090 HD
ATOM     20  H   LIG d   1      -4.363  95.488 119.484  0.00  0.00    -0.090 HD
ATOM     21  H   LIG d   1      -3.027  94.991 120.293  0.00  0.00    -0.090 HD
ENDBRANCH   5  18
BRANCH   3  22
ATOM     22  C   LIG d   1      -1.247  90.931 118.672  0.00  0.00     0.382 C 
ATOM     23  O   LIG d   1      -0.696  90.660 117.577  0.00  0.00    -0.241 OA
ATOM     24  O   LIG d   1      -0.682  90.617 119.737  0.00  0.00    -0.241 OA
ENDBRANCH   3  22
TORSDOF 7
ENDMDL
MODEL 7
REMARK VINA RESULT:      -4.2      8.735     11.468
REMARK  7 active torsions:
REMARK  status: ('A' for Active; 'I' for Inactive)
REMARK    1  A    between atoms: C_2  and  C_3 
REMARK    2  A    between atoms: C_3  and  O_6 
REMARK    3  A    between atoms: C_3  and  C_4 
REMARK    4  A    between atoms: C_7  and  O_6 
REMARK    5  A    between atoms: C_9  and  C_10 
REMARK    6  A    between atoms: N_15  and  C_14 
REMARK    7  A    between atoms: N_20  and  C_19 
REMARK       I    between atoms: C_22  and  N_20 
ROOT
ATOM      1  C   LIG d   1       3.652  88.835 115.791  0.00  0.00     0.161 C 
ATOM      2  C   LIG d   1       2.449  89.478 116.128  0.00  0.00     0.016 C 
ATOM      3  C   LIG d   1       2.311  90.335 117.245  0.00  0.00     0.038 C 
ATOM      4  C   LIG d   1       3.413  90.728 118.018  0.00  0.00     0.028 C 
ATOM      5  C   LIG d   1       4.547  89.708 118.019  0.00  0.00    -0.047 C 
ATOM      6  C   LIG d   1       4.892  89.340 116.558  0.00  0.00     0.091 C 
ENDROOT
BRANCH   1   7
ATOM      7  O   LIG d   1       3.871  88.925 114.369  0.00  0.00    -0.368 OA
BRANCH   7   8
ATOM      8  C   LIG d   1       4.131  87.675 113.684  0.00  0.00     0.119 C 
BRANCH   8   9
ATOM      9  C   LIG d   1       5.159  87.960 112.573  0.00  0.00     0.028 C 
ATOM     10  C   LIG d   1       6.164  89.054 112.970  0.00  0.00     0.006 C 
ENDBRANCH   8   9
BRANCH   8  11
ATOM     11  C   LIG d   1       2.881  87.166 112.960  0.00  0.00     0.028 C 
ATOM     12  C   LIG d   1       2.137  86.077 113.748  0.00  0.00     0.006 C 
ENDBRANCH   8  11
ENDBRANCH   7   8
ENDBRANCH   1   7
BRANCH   6  13
ATOM     13  N   LIG d   1       5.935  88.285 116.470  0.00  0.00    -0.311 N 
ATOM     14  C   LIG d   1       7.238  88.547 116.387  0.00  0.00     0.210 C 
ATOM     15  C   LIG d   1       8.141  87.313 116.285  0.00  0.00     0.109 C 
ATOM     16  O   LIG d   1       7.734  89.683 116.420  0.00  0.00    -0.276 OA
ATOM     17  H   LIG d   1       5.622  87.333 116.469  0.00  0.00     0.149 HD
ENDBRANCH   6  13
BRANCH   5  18
ATOM     18  N   LIG d   1       5.683  90.305 118.748  0.00  0.00     0.381 N 
ATOM     19  H   LIG d   1       5.830  89.813 119.607  0.00  0.00    -0.090 HD
ATOM     20  H   LIG d   1       5.463  91.261 118.965  0.00  0.00    -0.090 HD
ATOM     21  H   LIG d   1       6.506  90.265 118.188  0.00  0.00    -0.090 HD
ENDBRANCH   5  18
BRANCH   3  22
ATOM     22  C   LIG d   1       1.051  90.775 117.621  0.00  0.00     0.382 C 
ATOM     23  O   LIG d   1       0.028  90.224 117.151  0.00  0.00    -0.241 OA
ATOM     24  O   LIG d   1       0.926  91.746 118.391  0.00  0.00    -0.241 OA
ENDBRANCH   3  22
TORSDOF 7
ENDMDL
MODEL 8
REMARK VINA RESULT:      -4.1     10.267     13.210
REMARK  7 active torsions:
REMARK  status: ('A' for Active; 'I' for Inactive)
REMARK    1  A    between atoms: C_2  and  C_3 
REMARK    2  A    between atoms: C_3  and  O_6 
REMARK    3  A    between atoms: C_3  and  C_4 
REMARK    4  A    between atoms: C_7  and  O_6 
REMARK    5  A    between atoms: C_9  and  C_10 
REMARK    6  A    between atoms: N_15  and  C_14 
REMARK    7  A    between atoms: N_20  and  C_19 
REMARK       I    between atoms: C_22  and  N_20 
ROOT
ATOM      1  C   LIG d   1       5.502  90.099 117.174  0.00  0.00     0.161 C 
ATOM      2  C   LIG d   1       4.692  89.938 116.038  0.00  0.00     0.016 C 
ATOM      3  C   LIG d   1       5.053  89.135 114.932  0.00  0.00     0.038 C 
ATOM      4  C   LIG d   1       6.190  88.313 114.952  0.00  0.00     0.028 C 
ATOM      5  C   LIG d   1       7.294  88.829 115.868  0.00  0.00    -0.047 C 
ATOM      6  C   LIG d   1       6.694  89.123 117.262  0.00  0.00     0.091 C 
ENDROOT
BRANCH   1   7
ATOM      7  O   LIG d   1       4.696  90.014 118.366  0.00  0.00    -0.368 OA
BRANCH   7   8
ATOM      8  C   LIG d   1       4.389  91.270 119.019  0.00  0.00     0.119 C 
BRANCH   8   9
ATOM      9  C   LIG d   1       3.003  91.724 118.521  0.00  0.00     0.028 C 
ATOM     10  C   LIG d   1       2.335  92.727 119.477  0.00  0.00     0.006 C 
ENDBRANCH   8   9
BRANCH   8  11
ATOM     11  C   LIG d   1       5.357  92.375 118.585  0.00  0.00     0.028 C 
ATOM     12  C   LIG d   1       6.318  92.799 119.707  0.00  0.00     0.006 C 
ENDBRANCH   8  11
ENDBRANCH   7   8
ENDBRANCH   1   7
BRANCH   6  13
ATOM     13  N   LIG d   1       7.690  89.712 118.195  0.00  0.00    -0.311 N 
ATOM     14  C   LIG d   1       8.419  88.987 119.042  0.00  0.00     0.210 C 
ATOM     15  C   LIG d   1       9.371  89.794 119.930  0.00  0.00     0.109 C 
ATOM     16  O   LIG d   1       8.391  87.749 119.119  0.00  0.00    -0.276 OA
ATOM     17  H   LIG d   1       7.799  90.707 118.177  0.00  0.00     0.149 HD
ENDBRANCH   6  13
BRANCH   5  18
ATOM     18  N   LIG d   1       8.359  87.810 115.900  0.00  0.00     0.381 N 
ATOM     19  H   LIG d   1       8.824  87.777 115.015  0.00  0.00    -0.090 HD
ATOM     20  H   LIG d   1       7.944  86.911 116.072  0.00  0.00    -0.090 HD
ATOM     21  H   LIG d   1       9.015  88.024 116.620  0.00  0.00    -0.090 HD
ENDBRANCH   5  18
BRANCH   3  22
ATOM     22  C   LIG d   1       4.293  89.180 113.773  0.00  0.00     0.382 C 
ATOM     23  O   LIG d   1       3.254  88.484 113.677  0.00  0.00    -0.241 OA
ATOM     24  O   LIG d   1       4.658  89.874 112.805  0.00  0.00    -0.241 OA
ENDBRANCH   3  22
TORSDOF 7
ENDMDL
MODEL 9
REMARK VINA RESULT:      -4.0      3.496      6.700
REMARK  7 active torsions:
REMARK  status: ('A' for Active; 'I' for Inactive)
REMARK    1  A    between atoms: C_2  and  C_3 
REMARK    2  A    between atoms: C_3  and  O_6 
REMARK    3  A    between atoms: C_3  and  C_4 
REMARK    4  A    between atoms: C_7  and  O_6 
REMARK    5  A    between atoms: C_9  and  C_10 
REMARK    6  A    between atoms: N_15  and  C_14 
REMARK    7  A    between atoms: N_20  and  C_19 
REMARK       I    between atoms: C_22  and  N_20 
ROOT
ATOM      1  C   LIG d   1      -1.792  91.972 118.794  0.00  0.00     0.161 C 
ATOM      2  C   LIG d   1      -0.938  91.092 118.108  0.00  0.00     0.016 C 
ATOM      3  C   LIG d   1       0.461  91.275 118.021  0.00  0.00     0.038 C 
ATOM      4  C   LIG d   1       1.125  92.276 118.746  0.00  0.00     0.028 C 
ATOM      5  C   LIG d   1       0.249  93.489 119.044  0.00  0.00    -0.047 C 
ATOM      6  C   LIG d   1      -1.073  93.008 119.683  0.00  0.00     0.091 C 
ENDROOT
BRANCH   1   7
ATOM      7  O   LIG d   1      -2.746  91.222 119.570  0.00  0.00    -0.368 OA
BRANCH   7   8
ATOM      8  C   LIG d   1      -4.113  91.239 119.089  0.00  0.00     0.119 C 
BRANCH   8   9
ATOM      9  C   LIG d   1      -4.346  89.930 118.309  0.00  0.00     0.028 C 
ATOM     10  C   LIG d   1      -4.420  90.158 116.790  0.00  0.00     0.006 C 
ENDBRANCH   8   9
BRANCH   8  11
ATOM     11  C   LIG d   1      -4.332  92.362 118.071  0.00  0.00     0.028 C 
ATOM     12  C   LIG d   1      -5.497  93.290 118.449  0.00  0.00     0.006 C 
ENDBRANCH   8  11
ENDBRANCH   7   8
ENDBRANCH   1   7
BRANCH   6  13
ATOM     13  N   LIG d   1      -2.022  94.125 119.929  0.00  0.00    -0.311 N 
ATOM     14  C   LIG d   1      -2.149  95.172 119.116  0.00  0.00     0.210 C 
ATOM     15  C   LIG d   1      -3.172  96.221 119.566  0.00  0.00     0.109 C 
ATOM     16  O   LIG d   1      -1.535  95.317 118.048  0.00  0.00    -0.276 OA
ATOM     17  H   LIG d   1      -2.583  94.074 120.757  0.00  0.00     0.149 HD
ENDBRANCH   6  13
BRANCH   5  18
ATOM     18  N   LIG d   1       1.021  94.391 119.919  0.00  0.00     0.381 N 
ATOM     19  H   LIG d   1       1.221  95.244 119.436  0.00  0.00    -0.090 HD
ATOM     20  H   LIG d   1       1.893  93.950 120.154  0.00  0.00    -0.090 HD
ATOM     21  H   LIG d   1       0.505  94.585 120.749  0.00  0.00    -0.090 HD
ENDBRANCH   5  18
BRANCH   3  22
ATOM     22  C   LIG d   1       1.207  90.474 117.169  0.00  0.00     0.382 C 
ATOM     23  O   LIG d   1       0.655  89.534 116.550  0.00  0.00    -0.241 OA
ATOM     24  O   LIG d   1       2.434  90.653 117.047  0.00  0.00    -0.241 OA
ENDBRANCH   3  22
TORSDOF 7
ENDMDL
