MODEL 1
REMARK VINA RESULT:      -5.1      0.000      0.000
REMARK  7 active torsions:
REMARK  status: ('A' for Active; 'I' for Inactive)
REMARK    1  A    between atoms: C_2  and  C_3 
REMARK    2  A    between atoms: C_3  and  O_6 
REMARK    3  A    between atoms: C_3  and  C_4 
REMARK    4  A    between atoms: C_7  and  O_6 
REMARK    5  A    between atoms: C_9  and  C_10 
REMARK    6  A    between atoms: N_15  and  C_14 
REMARK    7  A    between atoms: N_20  and  C_19 
REMARK       I    between atoms: C_22  and  N_20 
ROOT
ATOM      1  C   LIG d   1       2.204  90.584 117.225  0.00  0.00     0.161 C 
ATOM      2  C   LIG d   1       2.168  89.925 115.985  0.00  0.00     0.016 C 
ATOM      3  C   LIG d   1       3.319  89.422 115.337  0.00  0.00     0.038 C 
ATOM      4  C   LIG d   1       4.576  89.411 115.961  0.00  0.00     0.028 C 
ATOM      5  C   LIG d   1       4.748  90.518 116.996  0.00  0.00    -0.047 C 
ATOM      6  C   LIG d   1       3.550  90.483 117.972  0.00  0.00     0.091 C 
ENDROOT
BRANCH   1   7
ATOM      7  O   LIG d   1       1.130  90.111 118.062  0.00  0.00    -0.368 OA
BRANCH   7   8
ATOM      8  C   LIG d   1      -0.156  90.752 117.871  0.00  0.00     0.119 C 
BRANCH   8   9
ATOM      9  C   LIG d   1       0.086  92.273 117.833  0.00  0.00     0.028 C 
ATOM     10  C   LIG d   1       0.069  92.905 119.235  0.00  0.00     0.006 C 
ENDBRANCH   8   9
BRANCH   8  11
ATOM     11  C   LIG d   1      -1.078  90.518 119.071  0.00  0.00     0.028 C 
ATOM     12  C   LIG d   1      -2.506  90.127 118.657  0.00  0.00     0.006 C 
ENDBRANCH   8  11
ENDBRANCH   7   8
ENDBRANCH   1   7
BRANCH   6  13
ATOM     13  N   LIG d   1       3.597  91.587 118.966  0.00  0.00    -0.311 N 
ATOM     14  C   LIG d   1       3.699  92.872 118.631  0.00  0.00     0.210 C 
ATOM     15  C   LIG d   1       3.751  93.846 119.811  0.00  0.00     0.109 C 
ATOM     16  O   LIG d   1       3.718  93.299 117.467  0.00  0.00    -0.276 OA
ATOM     17  H   LIG d   1       3.556  91.332 119.933  0.00  0.00     0.149 HD
ENDBRANCH   6  13
BRANCH   5  18
ATOM     18  N   LIG d   1       6.046  90.305 117.664  0.00  0.00     0.381 N 
ATOM     19  H   LIG d   1       5.951  90.468 118.647  0.00  0.00    -0.090 HD
ATOM     20  H   LIG d   1       6.712  90.962 117.298  0.00  0.00    -0.090 HD
ATOM     21  H   LIG d   1       6.363  89.374 117.504  0.00  0.00    -0.090 HD
ENDBRANCH   5  18
BRANCH   3  22
ATOM     22  C   LIG d   1       3.227  88.958 114.034  0.00  0.00     0.382 C 
ATOM     23  O   LIG d   1       3.579  89.694 113.080  0.00  0.00    -0.241 OA
ATOM     24  O   LIG d   1       2.755  87.830 113.796  0.00  0.00    -0.241 OA
ENDBRANCH   3  22
TORSDOF 7
ENDMDL
MODEL 2
REMARK VINA RESULT:      -5.1      2.182      5.190
REMARK  7 active torsions:
REMARK  status: ('A' for Active; 'I' for Inactive)
REMARK    1  A    between atoms: C_2  and  C_3 
REMARK    2  A    between atoms: C_3  and  O_6 
REMARK    3  A    between atoms: C_3  and  C_4 
REMARK    4  A    between atoms: C_7  and  O_6 
REMARK    5  A    between atoms: C_9  and  C_10 
REMARK    6  A    between atoms: N_15  and  C_14 
REMARK    7  A    between atoms: N_20  and  C_19 
REMARK       I    between atoms: C_22  and  N_20 
ROOT
ATOM      1  C   LIG d   1       0.773  90.222 117.051  0.00  0.00     0.161 C 
ATOM      2  C   LIG d   1      -0.631  90.178 117.048  0.00  0.00     0.016 C 
ATOM      3  C   LIG d   1      -1.441  91.145 117.686  0.00  0.00     0.038 C 
ATOM      4  C   LIG d   1      -0.900  92.313 118.245  0.00  0.00     0.028 C 
ATOM      5  C   LIG d   1       0.542  92.149 118.713  0.00  0.00    -0.047 C 
ATOM      6  C   LIG d   1       1.378  91.547 117.560  0.00  0.00     0.091 C 
ENDROOT
BRANCH   1   7
ATOM      7  O   LIG d   1       1.274  89.916 115.734  0.00  0.00    -0.368 OA
BRANCH   7   8
ATOM      8  C   LIG d   1       2.266  88.863 115.658  0.00  0.00     0.119 C 
BRANCH   8   9
ATOM      9  C   LIG d   1       3.348  89.318 114.659  0.00  0.00     0.028 C 
ATOM     10  C   LIG d   1       4.739  89.418 115.306  0.00  0.00     0.006 C 
ENDBRANCH   8   9
BRANCH   8  11
ATOM     11  C   LIG d   1       1.676  87.582 115.062  0.00  0.00     0.028 C 
ATOM     12  C   LIG d   1       2.249  86.308 115.702  0.00  0.00     0.006 C 
ENDBRANCH   8  11
ENDBRANCH   7   8
ENDBRANCH   1   7
BRANCH   6  13
ATOM     13  N   LIG d   1       2.783  91.275 117.961  0.00  0.00    -0.311 N 
ATOM     14  C   LIG d   1       3.770  92.158 117.818  0.00  0.00     0.210 C 
ATOM     15  C   LIG d   1       5.147  91.668 118.277  0.00  0.00     0.109 C 
ATOM     16  O   LIG d   1       3.629  93.312 117.385  0.00  0.00    -0.276 OA
ATOM     17  H   LIG d   1       2.980  90.374 118.350  0.00  0.00     0.149 HD
ENDBRANCH   6  13
BRANCH   5  18
ATOM     18  N   LIG d   1       1.024  93.474 119.145  0.00  0.00     0.381 N 
ATOM     19  H   LIG d   1       0.336  94.169 118.936  0.00  0.00    -0.090 HD
ATOM     20  H   LIG d   1       1.862  93.697 118.638  0.00  0.00    -0.090 HD
ATOM     21  H   LIG d   1       1.211  93.466 120.124  0.00  0.00    -0.090 HD
ENDBRANCH   5  18
BRANCH   3  22
ATOM     22  C   LIG d   1      -2.806  90.930 117.804  0.00  0.00     0.382 C 
ATOM     23  O   LIG d   1      -3.233  89.813 118.184  0.00  0.00    -0.241 OA
ATOM     24  O   LIG d   1      -3.616  91.823 117.492  0.00  0.00    -0.241 OA
ENDBRANCH   3  22
TORSDOF 7
ENDMDL
MODEL 3
REMARK VINA RESULT:      -4.9      2.612      5.744
REMARK  7 active torsions:
REMARK  status: ('A' for Active; 'I' for Inactive)
REMARK    1  A    between atoms: C_2  and  C_3 
REMARK    2  A    between atoms: C_3  and  O_6 
REMARK    3  A    between atoms: C_3  and  C_4 
REMARK    4  A    between atoms: C_7  and  O_6 
REMARK    5  A    between atoms: C_9  and  C_10 
REMARK    6  A    between atoms: N_15  and  C_14 
REMARK    7  A    between atoms: N_20  and  C_19 
REMARK       I    between atoms: C_22  and  N_20 
ROOT
ATOM      1  C   LIG d   1       1.292  90.925 116.982  0.00  0.00     0.161 C 
ATOM      2  C   LIG d   1       2.488  91.574 117.332  0.00  0.00     0.016 C 
ATOM      3  C   LIG d   1       2.551  92.644 118.254  0.00  0.00     0.038 C 
ATOM      4  C   LIG d   1       1.435  93.040 119.008  0.00  0.00     0.028 C 
ATOM      5  C   LIG d   1       0.106  92.749 118.320  0.00  0.00    -0.047 C 
ATOM      6  C   LIG d   1       0.083  91.269 117.876  0.00  0.00     0.091 C 
ENDROOT
BRANCH   1   7
ATOM      7  O   LIG d   1       1.502  89.499 116.950  0.00  0.00    -0.368 OA
BRANCH   7   8
ATOM      8  C   LIG d   1       2.830  89.058 116.573  0.00  0.00     0.119 C 
BRANCH   8   9
ATOM      9  C   LIG d   1       2.786  88.681 115.079  0.00  0.00     0.028 C 
ATOM     10  C   LIG d   1       3.844  89.432 114.253  0.00  0.00     0.006 C 
ENDBRANCH   8   9
BRANCH   8  11
ATOM     11  C   LIG d   1       3.219  87.771 117.305  0.00  0.00     0.028 C 
ATOM     12  C   LIG d   1       2.682  86.507 116.614  0.00  0.00     0.006 C 
ENDBRANCH   8  11
ENDBRANCH   7   8
ENDBRANCH   1   7
BRANCH   6  13
ATOM     13  N   LIG d   1      -1.149  90.922 117.120  0.00  0.00    -0.311 N 
ATOM     14  C   LIG d   1      -2.214  90.349 117.677  0.00  0.00     0.210 C 
ATOM     15  C   LIG d   1      -3.369  90.058 116.715  0.00  0.00     0.109 C 
ATOM     16  O   LIG d   1      -2.323  90.082 118.884  0.00  0.00    -0.276 OA
ATOM     17  H   LIG d   1      -1.158  91.133 116.142  0.00  0.00     0.149 HD
ENDBRANCH   6  13
BRANCH   5  18
ATOM     18  N   LIG d   1      -0.971  93.084 119.272  0.00  0.00     0.381 N 
ATOM     19  H   LIG d   1      -1.812  93.292 118.772  0.00  0.00    -0.090 HD
ATOM     20  H   LIG d   1      -0.702  93.901 119.792  0.00  0.00    -0.090 HD
ATOM     21  H   LIG d   1      -1.125  92.321 119.894  0.00  0.00    -0.090 HD
ENDBRANCH   5  18
BRANCH   3  22
ATOM     22  C   LIG d   1       3.731  93.356 118.401  0.00  0.00     0.382 C 
ATOM     23  O   LIG d   1       4.377  93.714 117.387  0.00  0.00    -0.241 OA
ATOM     24  O   LIG d   1       4.181  93.608 119.535  0.00  0.00    -0.241 OA
ENDBRANCH   3  22
TORSDOF 7
ENDMDL
MODEL 4
REMARK VINA RESULT:      -4.7      2.186      3.463
REMARK  7 active torsions:
REMARK  status: ('A' for Active; 'I' for Inactive)
REMARK    1  A    between atoms: C_2  and  C_3 
REMARK    2  A    between atoms: C_3  and  O_6 
REMARK    3  A    between atoms: C_3  and  C_4 
REMARK    4  A    between atoms: C_7  and  O_6 
REMARK    5  A    between atoms: C_9  and  C_10 
REMARK    6  A    between atoms: N_15  and  C_14 
REMARK    7  A    between atoms: N_20  and  C_19 
REMARK       I    between atoms: C_22  and  N_20 
ROOT
ATOM      1  C   LIG d   1      -0.285  91.036 117.994  0.00  0.00     0.161 C 
ATOM      2  C   LIG d   1       0.279  90.190 117.025  0.00  0.00     0.016 C 
ATOM      3  C   LIG d   1       1.600  90.334 116.541  0.00  0.00     0.038 C 
ATOM      4  C   LIG d   1       2.502  91.247 117.106  0.00  0.00     0.028 C 
ATOM      5  C   LIG d   1       1.822  92.458 117.737  0.00  0.00    -0.047 C 
ATOM      6  C   LIG d   1       0.720  91.968 118.703  0.00  0.00     0.091 C 
ENDROOT
BRANCH   1   7
ATOM      7  O   LIG d   1      -1.012  90.254 118.962  0.00  0.00    -0.368 OA
BRANCH   7   8
ATOM      8  C   LIG d   1      -2.457  90.301 118.865  0.00  0.00     0.119 C 
BRANCH   8   9
ATOM      9  C   LIG d   1      -2.808  90.954 117.514  0.00  0.00     0.028 C 
ATOM     10  C   LIG d   1      -3.448  89.960 116.531  0.00  0.00     0.006 C 
ENDBRANCH   8   9
BRANCH   8  11
ATOM     11  C   LIG d   1      -3.057  91.224 119.930  0.00  0.00     0.028 C 
ATOM     12  C   LIG d   1      -4.093  92.202 119.355  0.00  0.00     0.006 C 
ENDBRANCH   8  11
ENDBRANCH   7   8
ENDBRANCH   1   7
BRANCH   6  13
ATOM     13  N   LIG d   1      -0.051  93.090 119.299  0.00  0.00    -0.311 N 
ATOM     14  C   LIG d   1      -0.787  93.937 118.581  0.00  0.00     0.210 C 
ATOM     15  C   LIG d   1      -1.485  95.034 119.391  0.00  0.00     0.109 C 
ATOM     16  O   LIG d   1      -0.954  93.864 117.355  0.00  0.00    -0.276 OA
ATOM     17  H   LIG d   1       0.003  93.204 120.293  0.00  0.00     0.149 HD
ENDBRANCH   6  13
BRANCH   5  18
ATOM     18  N   LIG d   1       2.866  93.256 118.407  0.00  0.00     0.381 N 
ATOM     19  H   LIG d   1       3.765  92.852 118.234  0.00  0.00    -0.090 HD
ATOM     20  H   LIG d   1       2.700  93.242 119.398  0.00  0.00    -0.090 HD
ATOM     21  H   LIG d   1       2.846  94.194 118.073  0.00  0.00    -0.090 HD
ENDBRANCH   5  18
BRANCH   3  22
ATOM     22  C   LIG d   1       2.017  89.585 115.451  0.00  0.00     0.382 C 
ATOM     23  O   LIG d   1       1.537  88.443 115.254  0.00  0.00    -0.241 OA
ATOM     24  O   LIG d   1       2.900  90.019 114.687  0.00  0.00    -0.241 OA
ENDBRANCH   3  22
TORSDOF 7
ENDMDL
MODEL 5
REMARK VINA RESULT:      -4.5      2.775      3.991
REMARK  7 active torsions:
REMARK  status: ('A' for Active; 'I' for Inactive)
REMARK    1  A    between atoms: C_2  and  C_3 
REMARK    2  A    between atoms: C_3  and  O_6 
REMARK    3  A    between atoms: C_3  and  C_4 
REMARK    4  A    between atoms: C_7  and  O_6 
REMARK    5  A    between atoms: C_9  and  C_10 
REMARK    6  A    between atoms: N_15  and  C_14 
REMARK    7  A    between atoms: N_20  and  C_19 
REMARK       I    between atoms: C_22  and  N_20 
ROOT
ATOM      1  C   LIG d   1       5.302  89.548 116.933  0.00  0.00     0.161 C 
ATOM      2  C   LIG d   1       4.822  89.668 115.618  0.00  0.00     0.016 C 
ATOM      3  C   LIG d   1       4.778  88.589 114.705  0.00  0.00     0.038 C 
ATOM      4  C   LIG d   1       5.070  87.274 115.096  0.00  0.00     0.028 C 
ATOM      5  C   LIG d   1       6.039  87.193 116.270  0.00  0.00    -0.047 C 
ATOM      6  C   LIG d   1       5.521  88.098 117.412  0.00  0.00     0.091 C 
ENDROOT
BRANCH   1   7
ATOM      7  O   LIG d   1       4.424  90.248 117.838  0.00  0.00    -0.368 OA
BRANCH   7   8
ATOM      8  C   LIG d   1       3.274  90.893 117.239  0.00  0.00     0.119 C 
BRANCH   8   9
ATOM      9  C   LIG d   1       3.106  92.265 117.920  0.00  0.00     0.028 C 
ATOM     10  C   LIG d   1       4.404  93.090 117.904  0.00  0.00     0.006 C 
ENDBRANCH   8   9
BRANCH   8  11
ATOM     11  C   LIG d   1       1.983  90.128 117.546  0.00  0.00     0.028 C 
ATOM     12  C   LIG d   1       1.213  89.726 116.279  0.00  0.00     0.006 C 
ENDBRANCH   8  11
ENDBRANCH   7   8
ENDBRANCH   1   7
BRANCH   6  13
ATOM     13  N   LIG d   1       6.454  88.142 118.568  0.00  0.00    -0.311 N 
ATOM     14  C   LIG d   1       7.754  88.405 118.451  0.00  0.00     0.210 C 
ATOM     15  C   LIG d   1       8.539  88.381 119.766  0.00  0.00     0.109 C 
ATOM     16  O   LIG d   1       8.326  88.687 117.387  0.00  0.00    -0.276 OA
ATOM     17  H   LIG d   1       6.068  87.956 119.473  0.00  0.00     0.149 HD
ENDBRANCH   6  13
BRANCH   5  18
ATOM     18  N   LIG d   1       6.148  85.775 116.661  0.00  0.00     0.381 N 
ATOM     19  H   LIG d   1       6.840  85.673 117.376  0.00  0.00    -0.090 HD
ATOM     20  H   LIG d   1       6.438  85.239 115.862  0.00  0.00    -0.090 HD
ATOM     21  H   LIG d   1       5.268  85.443 116.991  0.00  0.00    -0.090 HD
ENDBRANCH   5  18
BRANCH   3  22
ATOM     22  C   LIG d   1       4.475  88.829 113.373  0.00  0.00     0.382 C 
ATOM     23  O   LIG d   1       5.209  88.362 112.469  0.00  0.00    -0.241 OA
ATOM     24  O   LIG d   1       3.502  89.543 113.064  0.00  0.00    -0.241 OA
ENDBRANCH   3  22
TORSDOF 7
ENDMDL
MODEL 6
REMARK VINA RESULT:      -4.5      2.588      6.514
REMARK  7 active torsions:
REMARK  status: ('A' for Active; 'I' for Inactive)
REMARK    1  A    between atoms: C_2  and  C_3 
REMARK    2  A    between atoms: C_3  and  O_6 
REMARK    3  A    between atoms: C_3  and  C_4 
REMARK    4  A    between atoms: C_7  and  O_6 
REMARK    5  A    between atoms: C_9  and  C_10 
REMARK    6  A    between atoms: N_15  and  C_14 
REMARK    7  A    between atoms: N_20  and  C_19 
REMARK       I    between atoms: C_22  and  N_20 
ROOT
ATOM      1  C   LIG d   1       4.521  89.766 116.672  0.00  0.00     0.161 C 
ATOM      2  C   LIG d   1       4.595  90.987 117.362  0.00  0.00     0.016 C 
ATOM      3  C   LIG d   1       3.472  91.807 117.617  0.00  0.00     0.038 C 
ATOM      4  C   LIG d   1       2.166  91.385 117.328  0.00  0.00     0.028 C 
ATOM      5  C   LIG d   1       2.092  90.387 116.178  0.00  0.00    -0.047 C 
ATOM      6  C   LIG d   1       3.089  89.237 116.447  0.00  0.00     0.091 C 
ENDROOT
BRANCH   1   7
ATOM      7  O   LIG d   1       5.321  88.775 117.345  0.00  0.00    -0.368 OA
BRANCH   7   8
ATOM      8  C   LIG d   1       6.551  88.391 116.683  0.00  0.00     0.119 C 
BRANCH   8   9
ATOM      9  C   LIG d   1       6.452  86.889 116.354  0.00  0.00     0.028 C 
ATOM     10  C   LIG d   1       7.828  86.203 116.320  0.00  0.00     0.006 C 
ENDBRANCH   8   9
BRANCH   8  11
ATOM     11  C   LIG d   1       7.755  88.522 117.621  0.00  0.00     0.028 C 
ATOM     12  C   LIG d   1       8.250  89.971 117.756  0.00  0.00     0.006 C 
ENDBRANCH   8  11
ENDBRANCH   7   8
ENDBRANCH   1   7
BRANCH   6  13
ATOM     13  N   LIG d   1       3.141  88.258 115.330  0.00  0.00    -0.311 N 
ATOM     14  C   LIG d   1       3.356  88.605 114.062  0.00  0.00     0.210 C 
ATOM     15  C   LIG d   1       3.351  87.442 113.064  0.00  0.00     0.109 C 
ATOM     16  O   LIG d   1       3.583  89.761 113.673  0.00  0.00    -0.276 OA
ATOM     17  H   LIG d   1       2.999  87.295 115.560  0.00  0.00     0.149 HD
ENDBRANCH   6  13
BRANCH   5  18
ATOM     18  N   LIG d   1       0.694  89.928 116.075  0.00  0.00     0.381 N 
ATOM     19  H   LIG d   1       0.145  90.616 115.599  0.00  0.00    -0.090 HD
ATOM     20  H   LIG d   1       0.321  89.813 117.001  0.00  0.00    -0.090 HD
ATOM     21  H   LIG d   1       0.654  89.062 115.583  0.00  0.00    -0.090 HD
ENDBRANCH   5  18
BRANCH   3  22
ATOM     22  C   LIG d   1       3.654  93.082 118.130  0.00  0.00     0.382 C 
ATOM     23  O   LIG d   1       4.374  93.908 117.518  0.00  0.00    -0.241 OA
ATOM     24  O   LIG d   1       3.143  93.403 119.220  0.00  0.00    -0.241 OA
ENDBRANCH   3  22
TORSDOF 7
ENDMDL
MODEL 7
REMARK VINA RESULT:      -4.5      2.468      3.712
REMARK  7 active torsions:
REMARK  status: ('A' for Active; 'I' for Inactive)
REMARK    1  A    between atoms: C_2  and  C_3 
REMARK    2  A    between atoms: C_3  and  O_6 
REMARK    3  A    between atoms: C_3  and  C_4 
REMARK    4  A    between atoms: C_7  and  O_6 
REMARK    5  A    between atoms: C_9  and  C_10 
REMARK    6  A    between atoms: N_15  and  C_14 
REMARK    7  A    between atoms: N_20  and  C_19 
REMARK       I    between atoms: C_22  and  N_20 
ROOT
ATOM      1  C   LIG d   1       4.522  89.612 115.480  0.00  0.00     0.161 C 
ATOM      2  C   LIG d   1       3.504  88.937 114.785  0.00  0.00     0.016 C 
ATOM      3  C   LIG d   1       3.422  87.528 114.702  0.00  0.00     0.038 C 
ATOM      4  C   LIG d   1       4.273  86.690 115.439  0.00  0.00     0.028 C 
ATOM      5  C   LIG d   1       5.625  87.323 115.750  0.00  0.00    -0.047 C 
ATOM      6  C   LIG d   1       5.394  88.714 116.382  0.00  0.00     0.091 C 
ENDROOT
BRANCH   1   7
ATOM      7  O   LIG d   1       3.955  90.693 116.247  0.00  0.00    -0.368 OA
BRANCH   7   8
ATOM      8  C   LIG d   1       2.952  90.324 117.224  0.00  0.00     0.119 C 
BRANCH   8   9
ATOM      9  C   LIG d   1       1.705  91.189 116.957  0.00  0.00     0.028 C 
ATOM     10  C   LIG d   1       0.533  90.369 116.390  0.00  0.00     0.006 C 
ENDBRANCH   8   9
BRANCH   8  11
ATOM     11  C   LIG d   1       3.398  90.684 118.644  0.00  0.00     0.028 C 
ATOM     12  C   LIG d   1       2.255  90.599 119.668  0.00  0.00     0.006 C 
ENDBRANCH   8  11
ENDBRANCH   7   8
ENDBRANCH   1   7
BRANCH   6  13
ATOM     13  N   LIG d   1       6.666  89.438 116.641  0.00  0.00    -0.311 N 
ATOM     14  C   LIG d   1       7.141  89.672 117.863  0.00  0.00     0.210 C 
ATOM     15  C   LIG d   1       8.459  90.452 117.906  0.00  0.00     0.109 C 
ATOM     16  O   LIG d   1       6.613  89.281 118.914  0.00  0.00    -0.276 OA
ATOM     17  H   LIG d   1       7.176  89.763 115.843  0.00  0.00     0.149 HD
ENDBRANCH   6  13
BRANCH   5  18
ATOM     18  N   LIG d   1       6.356  86.398 116.637  0.00  0.00     0.381 N 
ATOM     19  H   LIG d   1       7.329  86.631 116.641  0.00  0.00    -0.090 HD
ATOM     20  H   LIG d   1       6.257  85.463 116.284  0.00  0.00    -0.090 HD
ATOM     21  H   LIG d   1       5.990  86.453 117.562  0.00  0.00    -0.090 HD
ENDBRANCH   5  18
BRANCH   3  22
ATOM     22  C   LIG d   1       2.505  86.943 113.841  0.00  0.00     0.382 C 
ATOM     23  O   LIG d   1       1.277  87.131 114.012  0.00  0.00    -0.241 OA
ATOM     24  O   LIG d   1       2.889  86.193 112.924  0.00  0.00    -0.241 OA
ENDBRANCH   3  22
TORSDOF 7
ENDMDL
MODEL 8
REMARK VINA RESULT:      -4.4      2.082      5.304
REMARK  7 active torsions:
REMARK  status: ('A' for Active; 'I' for Inactive)
REMARK    1  A    between atoms: C_2  and  C_3 
REMARK    2  A    between atoms: C_3  and  O_6 
REMARK    3  A    between atoms: C_3  and  C_4 
REMARK    4  A    between atoms: C_7  and  O_6 
REMARK    5  A    between atoms: C_9  and  C_10 
REMARK    6  A    between atoms: N_15  and  C_14 
REMARK    7  A    between atoms: N_20  and  C_19 
REMARK       I    between atoms: C_22  and  N_20 
ROOT
ATOM      1  C   LIG d   1       2.501  89.250 115.826  0.00  0.00     0.161 C 
ATOM      2  C   LIG d   1       1.193  89.638 116.160  0.00  0.00     0.016 C 
ATOM      3  C   LIG d   1       0.896  90.760 116.968  0.00  0.00     0.038 C 
ATOM      4  C   LIG d   1       1.888  91.665 117.374  0.00  0.00     0.028 C 
ATOM      5  C   LIG d   1       3.273  91.036 117.483  0.00  0.00    -0.047 C 
ATOM      6  C   LIG d   1       3.590  90.288 116.168  0.00  0.00     0.091 C 
ENDROOT
BRANCH   1   7
ATOM      7  O   LIG d   1       2.565  88.898 114.430  0.00  0.00    -0.368 OA
BRANCH   7   8
ATOM      8  C   LIG d   1       2.943  87.531 114.134  0.00  0.00     0.119 C 
BRANCH   8   9
ATOM      9  C   LIG d   1       3.741  87.547 112.816  0.00  0.00     0.028 C 
ATOM     10  C   LIG d   1       5.115  88.220 112.970  0.00  0.00     0.006 C 
ENDBRANCH   8   9
BRANCH   8  11
ATOM     11  C   LIG d   1       1.714  86.661 113.854  0.00  0.00     0.028 C 
ATOM     12  C   LIG d   1       1.355  85.740 115.031  0.00  0.00     0.006 C 
ENDBRANCH   8  11
ENDBRANCH   7   8
ENDBRANCH   1   7
BRANCH   6  13
ATOM     13  N   LIG d   1       4.892  89.573 116.222  0.00  0.00    -0.311 N 
ATOM     14  C   LIG d   1       5.143  88.570 117.061  0.00  0.00     0.210 C 
ATOM     15  C   LIG d   1       6.556  87.986 116.966  0.00  0.00     0.109 C 
ATOM     16  O   LIG d   1       4.319  88.088 117.853  0.00  0.00    -0.276 OA
ATOM     17  H   LIG d   1       5.607  89.879 115.592  0.00  0.00     0.149 HD
ENDBRANCH   6  13
BRANCH   5  18
ATOM     18  N   LIG d   1       4.232  92.117 117.780  0.00  0.00     0.381 N 
ATOM     19  H   LIG d   1       5.167  91.769 117.711  0.00  0.00    -0.090 HD
ATOM     20  H   LIG d   1       4.082  92.435 118.721  0.00  0.00    -0.090 HD
ATOM     21  H   LIG d   1       4.102  92.871 117.142  0.00  0.00    -0.090 HD
ENDBRANCH   5  18
BRANCH   3  22
ATOM     22  C   LIG d   1      -0.402  90.964 117.410  0.00  0.00     0.382 C 
ATOM     23  O   LIG d   1      -0.638  91.834 118.283  0.00  0.00    -0.241 OA
ATOM     24  O   LIG d   1      -1.335  90.259 116.980  0.00  0.00    -0.241 OA
ENDBRANCH   3  22
TORSDOF 7
ENDMDL
MODEL 9
REMARK VINA RESULT:      -4.4      2.766      5.753
REMARK  7 active torsions:
REMARK  status: ('A' for Active; 'I' for Inactive)
REMARK    1  A    between atoms: C_2  and  C_3 
REMARK    2  A    between atoms: C_3  and  O_6 
REMARK    3  A    between atoms: C_3  and  C_4 
REMARK    4  A    between atoms: C_7  and  O_6 
REMARK    5  A    between atoms: C_9  and  C_10 
REMARK    6  A    between atoms: N_15  and  C_14 
REMARK    7  A    between atoms: N_20  and  C_19 
REMARK       I    between atoms: C_22  and  N_20 
ROOT
ATOM      1  C   LIG d   1       3.567  87.462 116.381  0.00  0.00     0.161 C 
ATOM      2  C   LIG d   1       2.600  88.466 116.204  0.00  0.00     0.016 C 
ATOM      3  C   LIG d   1       2.810  89.819 116.557  0.00  0.00     0.038 C 
ATOM      4  C   LIG d   1       4.064  90.290 116.974  0.00  0.00     0.028 C 
ATOM      5  C   LIG d   1       4.920  89.222 117.645  0.00  0.00    -0.047 C 
ATOM      6  C   LIG d   1       4.979  87.977 116.730  0.00  0.00     0.091 C 
ENDROOT
BRANCH   1   7
ATOM      7  O   LIG d   1       3.616  86.620 115.212  0.00  0.00    -0.368 OA
BRANCH   7   8
ATOM      8  C   LIG d   1       2.944  87.126 114.033  0.00  0.00     0.119 C 
BRANCH   8   9
ATOM      9  C   LIG d   1       2.012  86.013 113.517  0.00  0.00     0.028 C 
ATOM     10  C   LIG d   1       0.573  86.163 114.038  0.00  0.00     0.006 C 
ENDBRANCH   8   9
BRANCH   8  11
ATOM     11  C   LIG d   1       3.935  87.386 112.894  0.00  0.00     0.028 C 
ATOM     12  C   LIG d   1       4.854  88.587 113.166  0.00  0.00     0.006 C 
ENDBRANCH   8  11
ENDBRANCH   7   8
ENDBRANCH   1   7
BRANCH   6  13
ATOM     13  N   LIG d   1       5.727  86.853 117.350  0.00  0.00    -0.311 N 
ATOM     14  C   LIG d   1       7.035  86.661 117.182  0.00  0.00     0.210 C 
ATOM     15  C   LIG d   1       7.605  85.430 117.892  0.00  0.00     0.109 C 
ATOM     16  O   LIG d   1       7.782  87.413 116.537  0.00  0.00    -0.276 OA
ATOM     17  H   LIG d   1       5.204  86.212 117.914  0.00  0.00     0.149 HD
ENDBRANCH   6  13
BRANCH   5  18
ATOM     18  N   LIG d   1       6.247  89.812 117.904  0.00  0.00     0.381 N 
ATOM     19  H   LIG d   1       6.236  90.303 118.776  0.00  0.00    -0.090 HD
ATOM     20  H   LIG d   1       6.459  90.469 117.174  0.00  0.00    -0.090 HD
ATOM     21  H   LIG d   1       6.940  89.096 117.927  0.00  0.00    -0.090 HD
ENDBRANCH   5  18
BRANCH   3  22
ATOM     22  C   LIG d   1       1.747  90.708 116.532  0.00  0.00     0.382 C 
ATOM     23  O   LIG d   1       1.913  91.894 116.908  0.00  0.00    -0.241 OA
ATOM     24  O   LIG d   1       0.614  90.329 116.181  0.00  0.00    -0.241 OA
ENDBRANCH   3  22
TORSDOF 7
ENDMDL
