MODEL 1
REMARK VINA RESULT:      -5.4      0.000      0.000
REMARK  7 active torsions:
REMARK  status: ('A' for Active; 'I' for Inactive)
REMARK    1  A    between atoms: C_2  and  C_3 
REMARK    2  A    between atoms: C_3  and  O_6 
REMARK    3  A    between atoms: C_3  and  C_4 
REMARK    4  A    between atoms: C_7  and  O_6 
REMARK    5  A    between atoms: C_9  and  C_10 
REMARK    6  A    between atoms: N_15  and  C_14 
REMARK    7  A    between atoms: N_20  and  C_19 
REMARK       I    between atoms: C_22  and  N_20 
ROOT
ATOM      1  C   LIG d   1      -5.922  91.551 117.748  0.00  0.00     0.161 C 
ATOM      2  C   LIG d   1      -7.000  92.452 117.746  0.00  0.00     0.016 C 
ATOM      3  C   LIG d   1      -6.972  93.700 118.411  0.00  0.00     0.038 C 
ATOM      4  C   LIG d   1      -5.802  94.200 119.001  0.00  0.00     0.028 C 
ATOM      5  C   LIG d   1      -4.842  93.108 119.462  0.00  0.00    -0.047 C 
ATOM      6  C   LIG d   1      -4.598  92.127 118.293  0.00  0.00     0.091 C 
ENDROOT
BRANCH   1   7
ATOM      7  O   LIG d   1      -5.729  91.017 116.423  0.00  0.00    -0.368 OA
BRANCH   7   8
ATOM      8  C   LIG d   1      -6.259  89.690 116.187  0.00  0.00     0.119 C 
BRANCH   8   9
ATOM      9  C   LIG d   1      -6.892  89.687 114.782  0.00  0.00     0.028 C 
ATOM     10  C   LIG d   1      -7.336  91.090 114.336  0.00  0.00     0.006 C 
ENDBRANCH   8   9
BRANCH   8  11
ATOM     11  C   LIG d   1      -7.406  89.368 117.149  0.00  0.00     0.028 C 
ATOM     12  C   LIG d   1      -8.456  88.430 116.533  0.00  0.00     0.006 C 
ENDBRANCH   8  11
ENDBRANCH   7   8
ENDBRANCH   1   7
BRANCH   6  13
ATOM     13  N   LIG d   1      -3.737  90.981 118.684  0.00  0.00    -0.311 N 
ATOM     14  C   LIG d   1      -2.424  90.941 118.461  0.00  0.00     0.210 C 
ATOM     15  C   LIG d   1      -1.728  89.658 118.926  0.00  0.00     0.109 C 
ATOM     16  O   LIG d   1      -1.765  91.860 117.952  0.00  0.00    -0.276 OA
ATOM     17  H   LIG d   1      -4.184  90.205 119.131  0.00  0.00     0.149 HD
ENDBRANCH   6  13
BRANCH   5  18
ATOM     18  N   LIG d   1      -3.609  93.768 119.930  0.00  0.00     0.381 N 
ATOM     19  H   LIG d   1      -3.388  94.537 119.330  0.00  0.00    -0.090 HD
ATOM     20  H   LIG d   1      -2.851  93.108 119.889  0.00  0.00    -0.090 HD
ATOM     21  H   LIG d   1      -3.728  94.089 120.865  0.00  0.00    -0.090 HD
ENDBRANCH   5  18
BRANCH   3  22
ATOM     22  C   LIG d   1      -8.137  94.444 118.524  0.00  0.00     0.382 C 
ATOM     23  O   LIG d   1      -8.106  95.686 118.354  0.00  0.00    -0.241 OA
ATOM     24  O   LIG d   1      -9.210  93.894 118.838  0.00  0.00    -0.241 OA
ENDBRANCH   3  22
TORSDOF 7
ENDMDL
MODEL 2
REMARK VINA RESULT:      -5.0      8.136     10.706
REMARK  7 active torsions:
REMARK  status: ('A' for Active; 'I' for Inactive)
REMARK    1  A    between atoms: C_2  and  C_3 
REMARK    2  A    between atoms: C_3  and  O_6 
REMARK    3  A    between atoms: C_3  and  C_4 
REMARK    4  A    between atoms: C_7  and  O_6 
REMARK    5  A    between atoms: C_9  and  C_10 
REMARK    6  A    between atoms: N_15  and  C_14 
REMARK    7  A    between atoms: N_20  and  C_19 
REMARK       I    between atoms: C_22  and  N_20 
ROOT
ATOM      1  C   LIG d   1       3.119  89.241 115.997  0.00  0.00     0.161 C 
ATOM      2  C   LIG d   1       2.220  88.501 115.211  0.00  0.00     0.016 C 
ATOM      3  C   LIG d   1       2.491  88.105 113.881  0.00  0.00     0.038 C 
ATOM      4  C   LIG d   1       3.751  88.294 113.294  0.00  0.00     0.028 C 
ATOM      5  C   LIG d   1       4.517  89.480 113.871  0.00  0.00    -0.047 C 
ATOM      6  C   LIG d   1       4.542  89.359 115.412  0.00  0.00     0.091 C 
ENDROOT
BRANCH   1   7
ATOM      7  O   LIG d   1       3.169  88.693 117.329  0.00  0.00    -0.368 OA
BRANCH   7   8
ATOM      8  C   LIG d   1       2.556  89.492 118.370  0.00  0.00     0.119 C 
BRANCH   8   9
ATOM      9  C   LIG d   1       1.335  88.711 118.894  0.00  0.00     0.028 C 
ATOM     10  C   LIG d   1       0.029  89.125 118.195  0.00  0.00     0.006 C 
ENDBRANCH   8   9
BRANCH   8  11
ATOM     11  C   LIG d   1       1.990  90.800 117.808  0.00  0.00     0.028 C 
ATOM     12  C   LIG d   1       2.713  92.043 118.350  0.00  0.00     0.006 C 
ENDBRANCH   8  11
ENDBRANCH   7   8
ENDBRANCH   1   7
BRANCH   6  13
ATOM     13  N   LIG d   1       5.200  90.524 116.060  0.00  0.00    -0.311 N 
ATOM     14  C   LIG d   1       6.101  90.408 117.034  0.00  0.00     0.210 C 
ATOM     15  C   LIG d   1       6.640  91.735 117.578  0.00  0.00     0.109 C 
ATOM     16  O   LIG d   1       6.529  89.332 117.478  0.00  0.00    -0.276 OA
ATOM     17  H   LIG d   1       4.934  91.434 115.740  0.00  0.00     0.149 HD
ENDBRANCH   6  13
BRANCH   5  18
ATOM     18  N   LIG d   1       5.863  89.476 113.268  0.00  0.00     0.381 N 
ATOM     19  H   LIG d   1       5.935  88.732 112.603  0.00  0.00    -0.090 HD
ATOM     20  H   LIG d   1       6.543  89.320 113.992  0.00  0.00    -0.090 HD
ATOM     21  H   LIG d   1       6.039  90.349 112.821  0.00  0.00    -0.090 HD
ENDBRANCH   5  18
BRANCH   3  22
ATOM     22  C   LIG d   1       1.482  87.549 113.110  0.00  0.00     0.382 C 
ATOM     23  O   LIG d   1       0.435  88.201 112.883  0.00  0.00    -0.241 OA
ATOM     24  O   LIG d   1       1.587  86.386 112.676  0.00  0.00    -0.241 OA
ENDBRANCH   3  22
TORSDOF 7
ENDMDL
MODEL 3
REMARK VINA RESULT:      -4.9      8.900     11.091
REMARK  7 active torsions:
REMARK  status: ('A' for Active; 'I' for Inactive)
REMARK    1  A    between atoms: C_2  and  C_3 
REMARK    2  A    between atoms: C_3  and  O_6 
REMARK    3  A    between atoms: C_3  and  C_4 
REMARK    4  A    between atoms: C_7  and  O_6 
REMARK    5  A    between atoms: C_9  and  C_10 
REMARK    6  A    between atoms: N_15  and  C_14 
REMARK    7  A    between atoms: N_20  and  C_19 
REMARK       I    between atoms: C_22  and  N_20 
ROOT
ATOM      1  C   LIG d   1       3.215  89.154 116.254  0.00  0.00     0.161 C 
ATOM      2  C   LIG d   1       2.339  88.474 115.392  0.00  0.00     0.016 C 
ATOM      3  C   LIG d   1       2.620  88.235 114.027  0.00  0.00     0.038 C 
ATOM      4  C   LIG d   1       3.870  88.531 113.464  0.00  0.00     0.028 C 
ATOM      5  C   LIG d   1       4.596  89.674 114.167  0.00  0.00    -0.047 C 
ATOM      6  C   LIG d   1       4.631  89.386 115.686  0.00  0.00     0.091 C 
ENDROOT
BRANCH   1   7
ATOM      7  O   LIG d   1       3.289  88.466 117.518  0.00  0.00    -0.368 OA
BRANCH   7   8
ATOM      8  C   LIG d   1       2.886  87.075 117.511  0.00  0.00     0.119 C 
BRANCH   8   9
ATOM      9  C   LIG d   1       1.996  86.845 118.748  0.00  0.00     0.028 C 
ATOM     10  C   LIG d   1       0.888  87.903 118.879  0.00  0.00     0.006 C 
ENDBRANCH   8   9
BRANCH   8  11
ATOM     11  C   LIG d   1       4.088  86.145 117.698  0.00  0.00     0.028 C 
ATOM     12  C   LIG d   1       4.707  85.696 116.365  0.00  0.00     0.006 C 
ENDBRANCH   8  11
ENDBRANCH   7   8
ENDBRANCH   1   7
BRANCH   6  13
ATOM     13  N   LIG d   1       5.249  90.495 116.458  0.00  0.00    -0.311 N 
ATOM     14  C   LIG d   1       6.521  90.494 116.853  0.00  0.00     0.210 C 
ATOM     15  C   LIG d   1       6.951  91.726 117.655  0.00  0.00     0.109 C 
ATOM     16  O   LIG d   1       7.343  89.603 116.588  0.00  0.00    -0.276 OA
ATOM     17  H   LIG d   1       4.662  91.273 116.690  0.00  0.00     0.149 HD
ENDBRANCH   6  13
BRANCH   5  18
ATOM     18  N   LIG d   1       5.939  89.784 113.568  0.00  0.00     0.381 N 
ATOM     19  H   LIG d   1       6.098  89.015 112.948  0.00  0.00    -0.090 HD
ATOM     20  H   LIG d   1       6.626  89.746 114.301  0.00  0.00    -0.090 HD
ATOM     21  H   LIG d   1       6.021  90.643 113.071  0.00  0.00    -0.090 HD
ENDBRANCH   5  18
BRANCH   3  22
ATOM     22  C   LIG d   1       1.628  87.731 113.199  0.00  0.00     0.382 C 
ATOM     23  O   LIG d   1       1.880  86.773 112.430  0.00  0.00    -0.241 OA
ATOM     24  O   LIG d   1       0.496  88.251 113.180  0.00  0.00    -0.241 OA
ENDBRANCH   3  22
TORSDOF 7
ENDMDL
MODEL 4
REMARK VINA RESULT:      -4.9      1.752      2.571
REMARK  7 active torsions:
REMARK  status: ('A' for Active; 'I' for Inactive)
REMARK    1  A    between atoms: C_2  and  C_3 
REMARK    2  A    between atoms: C_3  and  O_6 
REMARK    3  A    between atoms: C_3  and  C_4 
REMARK    4  A    between atoms: C_7  and  O_6 
REMARK    5  A    between atoms: C_9  and  C_10 
REMARK    6  A    between atoms: N_15  and  C_14 
REMARK    7  A    between atoms: N_20  and  C_19 
REMARK       I    between atoms: C_22  and  N_20 
ROOT
ATOM      1  C   LIG d   1      -5.567  92.524 119.930  0.00  0.00     0.161 C 
ATOM      2  C   LIG d   1      -6.919  92.893 119.831  0.00  0.00     0.016 C 
ATOM      3  C   LIG d   1      -7.348  94.163 119.381  0.00  0.00     0.038 C 
ATOM      4  C   LIG d   1      -6.452  95.104 118.852  0.00  0.00     0.028 C 
ATOM      5  C   LIG d   1      -5.036  94.967 119.401  0.00  0.00    -0.047 C 
ATOM      6  C   LIG d   1      -4.580  93.498 119.253  0.00  0.00     0.091 C 
ENDROOT
BRANCH   1   7
ATOM      7  O   LIG d   1      -5.386  91.190 119.417  0.00  0.00    -0.368 OA
BRANCH   7   8
ATOM      8  C   LIG d   1      -5.147  91.082 117.992  0.00  0.00     0.119 C 
BRANCH   8   9
ATOM      9  C   LIG d   1      -6.483  90.697 117.326  0.00  0.00     0.028 C 
ATOM     10  C   LIG d   1      -6.945  91.739 116.294  0.00  0.00     0.006 C 
ENDBRANCH   8   9
BRANCH   8  11
ATOM     11  C   LIG d   1      -4.189  89.930 117.673  0.00  0.00     0.028 C 
ATOM     12  C   LIG d   1      -3.401  89.453 118.903  0.00  0.00     0.006 C 
ENDBRANCH   8  11
ENDBRANCH   7   8
ENDBRANCH   1   7
BRANCH   6  13
ATOM     13  N   LIG d   1      -3.237  93.259 119.842  0.00  0.00    -0.311 N 
ATOM     14  C   LIG d   1      -2.171  92.912 119.122  0.00  0.00     0.210 C 
ATOM     15  C   LIG d   1      -0.888  92.695 119.930  0.00  0.00     0.109 C 
ATOM     16  O   LIG d   1      -2.160  92.794 117.888  0.00  0.00    -0.276 OA
ATOM     17  H   LIG d   1      -3.149  93.364 120.834  0.00  0.00     0.149 HD
ENDBRANCH   6  13
BRANCH   5  18
ATOM     18  N   LIG d   1      -4.179  95.916 118.665  0.00  0.00     0.381 N 
ATOM     19  H   LIG d   1      -3.352  95.451 118.349  0.00  0.00    -0.090 HD
ATOM     20  H   LIG d   1      -3.907  96.657 119.287  0.00  0.00    -0.090 HD
ATOM     21  H   LIG d   1      -4.676  96.291 117.887  0.00  0.00    -0.090 HD
ENDBRANCH   5  18
BRANCH   3  22
ATOM     22  C   LIG d   1      -8.684  94.517 119.495  0.00  0.00     0.382 C 
ATOM     23  O   LIG d   1      -9.579  93.664 119.279  0.00  0.00    -0.241 OA
ATOM     24  O   LIG d   1      -9.006  95.689 119.767  0.00  0.00    -0.241 OA
ENDBRANCH   3  22
TORSDOF 7
ENDMDL
MODEL 5
REMARK VINA RESULT:      -4.9      5.502      8.274
REMARK  7 active torsions:
REMARK  status: ('A' for Active; 'I' for Inactive)
REMARK    1  A    between atoms: C_2  and  C_3 
REMARK    2  A    between atoms: C_3  and  O_6 
REMARK    3  A    between atoms: C_3  and  C_4 
REMARK    4  A    between atoms: C_7  and  O_6 
REMARK    5  A    between atoms: C_9  and  C_10 
REMARK    6  A    between atoms: N_15  and  C_14 
REMARK    7  A    between atoms: N_20  and  C_19 
REMARK       I    between atoms: C_22  and  N_20 
ROOT
ATOM      1  C   LIG d   1       1.558  89.254 116.840  0.00  0.00     0.161 C 
ATOM      2  C   LIG d   1       0.185  88.968 116.917  0.00  0.00     0.016 C 
ATOM      3  C   LIG d   1      -0.750  89.808 117.566  0.00  0.00     0.038 C 
ATOM      4  C   LIG d   1      -0.395  91.073 118.056  0.00  0.00     0.028 C 
ATOM      5  C   LIG d   1       1.075  91.180 118.449  0.00  0.00    -0.047 C 
ATOM      6  C   LIG d   1       1.946  90.684 117.272  0.00  0.00     0.091 C 
ENDROOT
BRANCH   1   7
ATOM      7  O   LIG d   1       2.040  88.984 115.509  0.00  0.00    -0.368 OA
BRANCH   7   8
ATOM      8  C   LIG d   1       2.868  87.805 115.358  0.00  0.00     0.119 C 
BRANCH   8   9
ATOM      9  C   LIG d   1       4.318  88.282 115.148  0.00  0.00     0.028 C 
ATOM     10  C   LIG d   1       4.400  89.552 114.285  0.00  0.00     0.006 C 
ENDBRANCH   8   9
BRANCH   8  11
ATOM     11  C   LIG d   1       2.508  87.031 114.086  0.00  0.00     0.028 C 
ATOM     12  C   LIG d   1       1.258  87.586 113.384  0.00  0.00     0.006 C 
ENDBRANCH   8  11
ENDBRANCH   7   8
ENDBRANCH   1   7
BRANCH   6  13
ATOM     13  N   LIG d   1       3.395  90.676 117.603  0.00  0.00    -0.311 N 
ATOM     14  C   LIG d   1       4.197  91.721 117.408  0.00  0.00     0.210 C 
ATOM     15  C   LIG d   1       5.661  91.494 117.799  0.00  0.00     0.109 C 
ATOM     16  O   LIG d   1       3.829  92.824 116.978  0.00  0.00    -0.276 OA
ATOM     17  H   LIG d   1       3.771  89.830 117.986  0.00  0.00     0.149 HD
ENDBRANCH   6  13
BRANCH   5  18
ATOM     18  N   LIG d   1       1.338  92.586 118.810  0.00  0.00     0.381 N 
ATOM     19  H   LIG d   1       2.175  92.900 118.360  0.00  0.00    -0.090 HD
ATOM     20  H   LIG d   1       1.473  92.646 119.804  0.00  0.00    -0.090 HD
ATOM     21  H   LIG d   1       0.570  93.158 118.536  0.00  0.00    -0.090 HD
ENDBRANCH   5  18
BRANCH   3  22
ATOM     22  C   LIG d   1      -2.049  89.365 117.766  0.00  0.00     0.382 C 
ATOM     23  O   LIG d   1      -2.504  88.425 117.071  0.00  0.00    -0.241 OA
ATOM     24  O   LIG d   1      -2.785  89.922 118.602  0.00  0.00    -0.241 OA
ENDBRANCH   3  22
TORSDOF 7
ENDMDL
MODEL 6
REMARK VINA RESULT:      -4.9      8.290     11.410
REMARK  7 active torsions:
REMARK  status: ('A' for Active; 'I' for Inactive)
REMARK    1  A    between atoms: C_2  and  C_3 
REMARK    2  A    between atoms: C_3  and  O_6 
REMARK    3  A    between atoms: C_3  and  C_4 
REMARK    4  A    between atoms: C_7  and  O_6 
REMARK    5  A    between atoms: C_9  and  C_10 
REMARK    6  A    between atoms: N_15  and  C_14 
REMARK    7  A    between atoms: N_20  and  C_19 
REMARK       I    between atoms: C_22  and  N_20 
ROOT
ATOM      1  C   LIG d   1       4.351  88.266 116.561  0.00  0.00     0.161 C 
ATOM      2  C   LIG d   1       5.153  89.078 117.381  0.00  0.00     0.016 C 
ATOM      3  C   LIG d   1       6.096  90.002 116.877  0.00  0.00     0.038 C 
ATOM      4  C   LIG d   1       6.195  90.288 115.507  0.00  0.00     0.028 C 
ATOM      5  C   LIG d   1       5.763  89.130 114.614  0.00  0.00    -0.047 C 
ATOM      6  C   LIG d   1       4.367  88.643 115.065  0.00  0.00     0.091 C 
ENDROOT
BRANCH   1   7
ATOM      7  O   LIG d   1       2.999  88.251 117.060  0.00  0.00    -0.368 OA
BRANCH   7   8
ATOM      8  C   LIG d   1       2.122  89.288 116.556  0.00  0.00     0.119 C 
BRANCH   8   9
ATOM      9  C   LIG d   1       1.798  90.231 117.731  0.00  0.00     0.028 C 
ATOM     10  C   LIG d   1       2.558  91.565 117.639  0.00  0.00     0.006 C 
ENDBRANCH   8   9
BRANCH   8  11
ATOM     11  C   LIG d   1       0.774  88.712 116.115  0.00  0.00     0.028 C 
ATOM     12  C   LIG d   1      -0.335  88.924 117.159  0.00  0.00     0.006 C 
ENDBRANCH   8  11
ENDBRANCH   7   8
ENDBRANCH   1   7
BRANCH   6  13
ATOM     13  N   LIG d   1       3.905  87.457 114.297  0.00  0.00    -0.311 N 
ATOM     14  C   LIG d   1       3.060  87.532 113.271  0.00  0.00     0.210 C 
ATOM     15  C   LIG d   1       2.698  86.187 112.632  0.00  0.00     0.109 C 
ATOM     16  O   LIG d   1       2.601  88.587 112.808  0.00  0.00    -0.276 OA
ATOM     17  H   LIG d   1       4.252  86.563 114.586  0.00  0.00     0.149 HD
ENDBRANCH   6  13
BRANCH   5  18
ATOM     18  N   LIG d   1       5.785  89.610 113.219  0.00  0.00     0.381 N 
ATOM     19  H   LIG d   1       5.397  90.531 113.172  0.00  0.00    -0.090 HD
ATOM     20  H   LIG d   1       5.219  89.000 112.656  0.00  0.00    -0.090 HD
ATOM     21  H   LIG d   1       6.720  89.618 112.876  0.00  0.00    -0.090 HD
ENDBRANCH   5  18
BRANCH   3  22
ATOM     22  C   LIG d   1       6.981  90.624 117.745  0.00  0.00     0.382 C 
ATOM     23  O   LIG d   1       6.547  91.379 118.647  0.00  0.00    -0.241 OA
ATOM     24  O   LIG d   1       8.210  90.473 117.609  0.00  0.00    -0.241 OA
ENDBRANCH   3  22
TORSDOF 7
ENDMDL
MODEL 7
REMARK VINA RESULT:      -4.8      1.776      4.767
REMARK  7 active torsions:
REMARK  status: ('A' for Active; 'I' for Inactive)
REMARK    1  A    between atoms: C_2  and  C_3 
REMARK    2  A    between atoms: C_3  and  O_6 
REMARK    3  A    between atoms: C_3  and  C_4 
REMARK    4  A    between atoms: C_7  and  O_6 
REMARK    5  A    between atoms: C_9  and  C_10 
REMARK    6  A    between atoms: N_15  and  C_14 
REMARK    7  A    between atoms: N_20  and  C_19 
REMARK       I    between atoms: C_22  and  N_20 
ROOT
ATOM      1  C   LIG d   1      -5.602  92.525 118.830  0.00  0.00     0.161 C 
ATOM      2  C   LIG d   1      -6.368  91.782 117.916  0.00  0.00     0.016 C 
ATOM      3  C   LIG d   1      -5.932  90.564 117.345  0.00  0.00     0.038 C 
ATOM      4  C   LIG d   1      -4.757  89.926 117.767  0.00  0.00     0.028 C 
ATOM      5  C   LIG d   1      -3.709  90.888 118.316  0.00  0.00    -0.047 C 
ATOM      6  C   LIG d   1      -4.366  91.788 119.387  0.00  0.00     0.091 C 
ENDROOT
BRANCH   1   7
ATOM      7  O   LIG d   1      -6.439  92.985 119.909  0.00  0.00    -0.368 OA
BRANCH   7   8
ATOM      8  C   LIG d   1      -6.754  94.399 119.914  0.00  0.00     0.119 C 
BRANCH   8   9
ATOM      9  C   LIG d   1      -8.220  94.549 119.463  0.00  0.00     0.028 C 
ATOM     10  C   LIG d   1      -8.344  95.231 118.090  0.00  0.00     0.006 C 
ENDBRANCH   8   9
BRANCH   8  11
ATOM     11  C   LIG d   1      -5.929  95.157 118.870  0.00  0.00     0.028 C 
ATOM     12  C   LIG d   1      -4.959  96.170 119.498  0.00  0.00     0.006 C 
ENDBRANCH   8  11
ENDBRANCH   7   8
ENDBRANCH   1   7
BRANCH   6  13
ATOM     13  N   LIG d   1      -3.430  92.815 119.916  0.00  0.00    -0.311 N 
ATOM     14  C   LIG d   1      -2.468  93.376 119.185  0.00  0.00     0.210 C 
ATOM     15  C   LIG d   1      -1.603  94.397 119.930  0.00  0.00     0.109 C 
ATOM     16  O   LIG d   1      -2.269  93.147 117.983  0.00  0.00    -0.276 OA
ATOM     17  H   LIG d   1      -3.541  93.083 120.874  0.00  0.00     0.149 HD
ENDBRANCH   6  13
BRANCH   5  18
ATOM     18  N   LIG d   1      -2.595  90.079 118.846  0.00  0.00     0.381 N 
ATOM     19  H   LIG d   1      -2.956  89.318 119.387  0.00  0.00    -0.090 HD
ATOM     20  H   LIG d   1      -2.032  90.654 119.447  0.00  0.00    -0.090 HD
ATOM     21  H   LIG d   1      -2.041  89.728 118.095  0.00  0.00    -0.090 HD
ENDBRANCH   5  18
BRANCH   3  22
ATOM     22  C   LIG d   1      -6.657  89.993 116.310  0.00  0.00     0.382 C 
ATOM     23  O   LIG d   1      -6.258  88.929 115.779  0.00  0.00    -0.241 OA
ATOM     24  O   LIG d   1      -7.680  90.552 115.872  0.00  0.00    -0.241 OA
ENDBRANCH   3  22
TORSDOF 7
ENDMDL
MODEL 8
REMARK VINA RESULT:      -4.6      7.237     10.271
REMARK  7 active torsions:
REMARK  status: ('A' for Active; 'I' for Inactive)
REMARK    1  A    between atoms: C_2  and  C_3 
REMARK    2  A    between atoms: C_3  and  O_6 
REMARK    3  A    between atoms: C_3  and  C_4 
REMARK    4  A    between atoms: C_7  and  O_6 
REMARK    5  A    between atoms: C_9  and  C_10 
REMARK    6  A    between atoms: N_15  and  C_14 
REMARK    7  A    between atoms: N_20  and  C_19 
REMARK       I    between atoms: C_22  and  N_20 
ROOT
ATOM      1  C   LIG d   1       3.666  88.469 116.499  0.00  0.00     0.161 C 
ATOM      2  C   LIG d   1       2.281  88.631 116.325  0.00  0.00     0.016 C 
ATOM      3  C   LIG d   1       1.557  89.737 116.827  0.00  0.00     0.038 C 
ATOM      4  C   LIG d   1       2.199  90.840 117.410  0.00  0.00     0.028 C 
ATOM      5  C   LIG d   1       3.536  90.491 118.056  0.00  0.00    -0.047 C 
ATOM      6  C   LIG d   1       4.400  89.716 117.035  0.00  0.00     0.091 C 
ENDROOT
BRANCH   1   7
ATOM      7  O   LIG d   1       4.264  88.028 115.264  0.00  0.00    -0.368 OA
BRANCH   7   8
ATOM      8  C   LIG d   1       3.687  88.563 114.048  0.00  0.00     0.119 C 
BRANCH   8   9
ATOM      9  C   LIG d   1       3.675  87.431 113.004  0.00  0.00     0.028 C 
ATOM     10  C   LIG d   1       3.389  86.056 113.632  0.00  0.00     0.006 C 
ENDBRANCH   8   9
BRANCH   8  11
ATOM     11  C   LIG d   1       4.572  89.660 113.447  0.00  0.00     0.028 C 
ATOM     12  C   LIG d   1       6.054  89.503 113.825  0.00  0.00     0.006 C 
ENDBRANCH   8  11
ENDBRANCH   7   8
ENDBRANCH   1   7
BRANCH   6  13
ATOM     13  N   LIG d   1       5.691  89.263 117.614  0.00  0.00    -0.311 N 
ATOM     14  C   LIG d   1       6.833  89.936 117.475  0.00  0.00     0.210 C 
ATOM     15  C   LIG d   1       8.052  89.283 118.134  0.00  0.00     0.109 C 
ATOM     16  O   LIG d   1       6.945  91.028 116.897  0.00  0.00    -0.276 OA
ATOM     17  H   LIG d   1       5.685  88.403 118.125  0.00  0.00     0.149 HD
ENDBRANCH   6  13
BRANCH   5  18
ATOM     18  N   LIG d   1       4.158  91.752 118.501  0.00  0.00     0.381 N 
ATOM     19  H   LIG d   1       4.833  92.053 117.827  0.00  0.00    -0.090 HD
ATOM     20  H   LIG d   1       4.632  91.591 119.372  0.00  0.00    -0.090 HD
ATOM     21  H   LIG d   1       3.460  92.454 118.619  0.00  0.00    -0.090 HD
ENDBRANCH   5  18
BRANCH   3  22
ATOM     22  C   LIG d   1       0.171  89.729 116.783  0.00  0.00     0.382 C 
ATOM     23  O   LIG d   1      -0.435  88.732 116.323  0.00  0.00    -0.241 OA
ATOM     24  O   LIG d   1      -0.478  90.723 117.158  0.00  0.00    -0.241 OA
ENDBRANCH   3  22
TORSDOF 7
ENDMDL
MODEL 9
REMARK VINA RESULT:      -4.6      6.237      9.080
REMARK  7 active torsions:
REMARK  status: ('A' for Active; 'I' for Inactive)
REMARK    1  A    between atoms: C_2  and  C_3 
REMARK    2  A    between atoms: C_3  and  O_6 
REMARK    3  A    between atoms: C_3  and  C_4 
REMARK    4  A    between atoms: C_7  and  O_6 
REMARK    5  A    between atoms: C_9  and  C_10 
REMARK    6  A    between atoms: N_15  and  C_14 
REMARK    7  A    between atoms: N_20  and  C_19 
REMARK       I    between atoms: C_22  and  N_20 
ROOT
ATOM      1  C   LIG d   1       1.205  89.374 116.893  0.00  0.00     0.161 C 
ATOM      2  C   LIG d   1       0.922  88.637 115.731  0.00  0.00     0.016 C 
ATOM      3  C   LIG d   1       1.887  88.346 114.740  0.00  0.00     0.038 C 
ATOM      4  C   LIG d   1       3.246  88.646 114.917  0.00  0.00     0.028 C 
ATOM      5  C   LIG d   1       3.488  89.834 115.841  0.00  0.00    -0.047 C 
ATOM      6  C   LIG d   1       2.707  89.614 117.157  0.00  0.00     0.091 C 
ENDROOT
BRANCH   1   7
ATOM      7  O   LIG d   1       0.591  88.744 118.034  0.00  0.00    -0.368 OA
BRANCH   7   8
ATOM      8  C   LIG d   1      -0.323  89.565 118.801  0.00  0.00     0.119 C 
BRANCH   8   9
ATOM      9  C   LIG d   1      -1.619  88.755 118.999  0.00  0.00     0.028 C 
ATOM     10  C   LIG d   1      -2.558  88.844 117.785  0.00  0.00     0.006 C 
ENDBRANCH   8   9
BRANCH   8  11
ATOM     11  C   LIG d   1      -0.741  90.814 118.018  0.00  0.00     0.028 C 
ATOM     12  C   LIG d   1      -0.652  92.099 118.855  0.00  0.00     0.006 C 
ENDBRANCH   8  11
ENDBRANCH   7   8
ENDBRANCH   1   7
BRANCH   6  13
ATOM     13  N   LIG d   1       2.821  90.770 118.084  0.00  0.00    -0.311 N 
ATOM     14  C   LIG d   1       3.705  90.827 119.079  0.00  0.00     0.210 C 
ATOM     15  C   LIG d   1       3.642  92.100 119.928  0.00  0.00     0.109 C 
ATOM     16  O   LIG d   1       4.558  89.958 119.318  0.00  0.00    -0.276 OA
ATOM     17  H   LIG d   1       2.189  91.533 117.943  0.00  0.00     0.149 HD
ENDBRANCH   6  13
BRANCH   5  18
ATOM     18  N   LIG d   1       4.944  89.950 116.046  0.00  0.00     0.381 N 
ATOM     19  H   LIG d   1       5.357  90.437 115.276  0.00  0.00    -0.090 HD
ATOM     20  H   LIG d   1       5.341  89.028 116.085  0.00  0.00    -0.090 HD
ATOM     21  H   LIG d   1       5.132  90.436 116.895  0.00  0.00    -0.090 HD
ENDBRANCH   5  18
BRANCH   3  22
ATOM     22  C   LIG d   1       1.488  87.783 113.537  0.00  0.00     0.382 C 
ATOM     23  O   LIG d   1       0.634  86.864 113.528  0.00  0.00    -0.241 OA
ATOM     24  O   LIG d   1       2.004  88.152 112.465  0.00  0.00    -0.241 OA
ENDBRANCH   3  22
TORSDOF 7
ENDMDL
