MODEL 1
REMARK VINA RESULT:      -5.4      0.000      0.000
REMARK  7 active torsions:
REMARK  status: ('A' for Active; 'I' for Inactive)
REMARK    1  A    between atoms: C_2  and  C_3 
REMARK    2  A    between atoms: C_3  and  O_6 
REMARK    3  A    between atoms: C_3  and  C_4 
REMARK    4  A    between atoms: C_7  and  O_6 
REMARK    5  A    between atoms: C_9  and  C_10 
REMARK    6  A    between atoms: N_15  and  C_14 
REMARK    7  A    between atoms: N_20  and  C_19 
REMARK       I    between atoms: C_22  and  N_20 
ROOT
ATOM      1  C   LIG d   1      -3.969  90.709 117.002  0.00  0.00     0.161 C 
ATOM      2  C   LIG d   1      -4.873  90.032 116.166  0.00  0.00     0.016 C 
ATOM      3  C   LIG d   1      -6.166  90.516 115.863  0.00  0.00     0.038 C 
ATOM      4  C   LIG d   1      -6.590  91.794 116.258  0.00  0.00     0.028 C 
ATOM      5  C   LIG d   1      -5.903  92.297 117.523  0.00  0.00    -0.047 C 
ATOM      6  C   LIG d   1      -4.373  92.157 117.351  0.00  0.00     0.091 C 
ENDROOT
BRANCH   1   7
ATOM      7  O   LIG d   1      -2.651  90.683 116.419  0.00  0.00    -0.368 OA
BRANCH   7   8
ATOM      8  C   LIG d   1      -1.735  89.700 116.960  0.00  0.00     0.119 C 
BRANCH   8   9
ATOM      9  C   LIG d   1      -2.282  89.263 118.333  0.00  0.00     0.028 C 
ATOM     10  C   LIG d   1      -1.313  89.589 119.482  0.00  0.00     0.006 C 
ENDBRANCH   8   9
BRANCH   8  11
ATOM     11  C   LIG d   1      -0.363  90.317 117.249  0.00  0.00     0.028 C 
ATOM     12  C   LIG d   1       0.690  89.949 116.191  0.00  0.00     0.006 C 
ENDBRANCH   8  11
ENDBRANCH   7   8
ENDBRANCH   1   7
BRANCH   6  13
ATOM     13  N   LIG d   1      -3.627  92.548 118.576  0.00  0.00    -0.311 N 
ATOM     14  C   LIG d   1      -2.532  93.306 118.557  0.00  0.00     0.210 C 
ATOM     15  C   LIG d   1      -1.907  93.574 119.930  0.00  0.00     0.109 C 
ATOM     16  O   LIG d   1      -2.037  93.808 117.537  0.00  0.00    -0.276 OA
ATOM     17  H   LIG d   1      -3.978  92.210 119.451  0.00  0.00     0.149 HD
ENDBRANCH   6  13
BRANCH   5  18
ATOM     18  N   LIG d   1      -6.335  93.690 117.741  0.00  0.00     0.381 N 
ATOM     19  H   LIG d   1      -7.051  93.717 118.440  0.00  0.00    -0.090 HD
ATOM     20  H   LIG d   1      -6.717  94.050 116.884  0.00  0.00    -0.090 HD
ATOM     21  H   LIG d   1      -5.560  94.246 118.028  0.00  0.00    -0.090 HD
ENDBRANCH   5  18
BRANCH   3  22
ATOM     22  C   LIG d   1      -7.065  89.702 115.191  0.00  0.00     0.382 C 
ATOM     23  O   LIG d   1      -6.959  89.541 113.951  0.00  0.00    -0.241 OA
ATOM     24  O   LIG d   1      -8.007  89.163 115.801  0.00  0.00    -0.241 OA
ENDBRANCH   3  22
TORSDOF 7
ENDMDL
MODEL 2
REMARK VINA RESULT:      -5.3      1.824      4.804
REMARK  7 active torsions:
REMARK  status: ('A' for Active; 'I' for Inactive)
REMARK    1  A    between atoms: C_2  and  C_3 
REMARK    2  A    between atoms: C_3  and  O_6 
REMARK    3  A    between atoms: C_3  and  C_4 
REMARK    4  A    between atoms: C_7  and  O_6 
REMARK    5  A    between atoms: C_9  and  C_10 
REMARK    6  A    between atoms: N_15  and  C_14 
REMARK    7  A    between atoms: N_20  and  C_19 
REMARK       I    between atoms: C_22  and  N_20 
ROOT
ATOM      1  C   LIG d   1      -3.950  91.954 117.081  0.00  0.00     0.161 C 
ATOM      2  C   LIG d   1      -3.198  92.978 117.680  0.00  0.00     0.016 C 
ATOM      3  C   LIG d   1      -3.690  93.798 118.721  0.00  0.00     0.038 C 
ATOM      4  C   LIG d   1      -4.923  93.548 119.341  0.00  0.00     0.028 C 
ATOM      5  C   LIG d   1      -5.926  92.845 118.433  0.00  0.00    -0.047 C 
ATOM      6  C   LIG d   1      -5.257  91.595 117.819  0.00  0.00     0.091 C 
ENDROOT
BRANCH   1   7
ATOM      7  O   LIG d   1      -3.131  90.780 116.912  0.00  0.00    -0.368 OA
BRANCH   7   8
ATOM      8  C   LIG d   1      -2.002  90.656 117.812  0.00  0.00     0.119 C 
BRANCH   8   9
ATOM      9  C   LIG d   1      -0.774  90.272 116.964  0.00  0.00     0.028 C 
ATOM     10  C   LIG d   1       0.301  91.371 116.955  0.00  0.00     0.006 C 
ENDBRANCH   8   9
BRANCH   8  11
ATOM     11  C   LIG d   1      -2.196  89.497 118.793  0.00  0.00     0.028 C 
ATOM     12  C   LIG d   1      -1.161  89.498 119.930  0.00  0.00     0.006 C 
ENDBRANCH   8  11
ENDBRANCH   7   8
ENDBRANCH   1   7
BRANCH   6  13
ATOM     13  N   LIG d   1      -6.142  90.895 116.852  0.00  0.00    -0.311 N 
ATOM     14  C   LIG d   1      -6.532  91.430 115.696  0.00  0.00     0.210 C 
ATOM     15  C   LIG d   1      -7.460  90.546 114.856  0.00  0.00     0.109 C 
ATOM     16  O   LIG d   1      -6.172  92.538 115.272  0.00  0.00    -0.276 OA
ATOM     17  H   LIG d   1      -6.456  89.978 117.102  0.00  0.00     0.149 HD
ENDBRANCH   6  13
BRANCH   5  18
ATOM     18  N   LIG d   1      -7.115  92.524 119.246  0.00  0.00     0.381 N 
ATOM     19  H   LIG d   1      -7.604  93.366 119.477  0.00  0.00    -0.090 HD
ATOM     20  H   LIG d   1      -6.816  92.088 120.100  0.00  0.00    -0.090 HD
ATOM     21  H   LIG d   1      -7.716  91.909 118.743  0.00  0.00    -0.090 HD
ENDBRANCH   5  18
BRANCH   3  22
ATOM     22  C   LIG d   1      -2.961  94.906 119.126  0.00  0.00     0.382 C 
ATOM     23  O   LIG d   1      -3.556  95.927 119.547  0.00  0.00    -0.241 OA
ATOM     24  O   LIG d   1      -1.719  94.914 119.034  0.00  0.00    -0.241 OA
ENDBRANCH   3  22
TORSDOF 7
ENDMDL
MODEL 3
REMARK VINA RESULT:      -5.3      5.556      7.995
REMARK  7 active torsions:
REMARK  status: ('A' for Active; 'I' for Inactive)
REMARK    1  A    between atoms: C_2  and  C_3 
REMARK    2  A    between atoms: C_3  and  O_6 
REMARK    3  A    between atoms: C_3  and  C_4 
REMARK    4  A    between atoms: C_7  and  O_6 
REMARK    5  A    between atoms: C_9  and  C_10 
REMARK    6  A    between atoms: N_15  and  C_14 
REMARK    7  A    between atoms: N_20  and  C_19 
REMARK       I    between atoms: C_22  and  N_20 
ROOT
ATOM      1  C   LIG d   1       2.209  88.951 115.602  0.00  0.00     0.161 C 
ATOM      2  C   LIG d   1       1.077  89.230 116.386  0.00  0.00     0.016 C 
ATOM      3  C   LIG d   1       1.010  90.306 117.301  0.00  0.00     0.038 C 
ATOM      4  C   LIG d   1       2.024  91.273 117.384  0.00  0.00     0.028 C 
ATOM      5  C   LIG d   1       3.396  90.747 116.977  0.00  0.00    -0.047 C 
ATOM      6  C   LIG d   1       3.282  90.059 115.598  0.00  0.00     0.091 C 
ENDROOT
BRANCH   1   7
ATOM      7  O   LIG d   1       1.805  88.640 114.254  0.00  0.00    -0.368 OA
BRANCH   7   8
ATOM      8  C   LIG d   1       1.988  87.265 113.835  0.00  0.00     0.119 C 
BRANCH   8   9
ATOM      9  C   LIG d   1       0.601  86.594 113.827  0.00  0.00     0.028 C 
ATOM     10  C   LIG d   1       0.314  85.854 112.510  0.00  0.00     0.006 C 
ENDBRANCH   8   9
BRANCH   8  11
ATOM     11  C   LIG d   1       2.814  86.477 114.855  0.00  0.00     0.028 C 
ATOM     12  C   LIG d   1       4.083  85.860 114.246  0.00  0.00     0.006 C 
ENDBRANCH   8  11
ENDBRANCH   7   8
ENDBRANCH   1   7
BRANCH   6  13
ATOM     13  N   LIG d   1       4.563  89.443 115.164  0.00  0.00    -0.311 N 
ATOM     14  C   LIG d   1       5.053  89.562 113.931  0.00  0.00     0.210 C 
ATOM     15  C   LIG d   1       6.377  88.832 113.688  0.00  0.00     0.109 C 
ATOM     16  O   LIG d   1       4.532  90.230 113.024  0.00  0.00    -0.276 OA
ATOM     17  H   LIG d   1       5.067  88.910 115.845  0.00  0.00     0.149 HD
ENDBRANCH   6  13
BRANCH   5  18
ATOM     18  N   LIG d   1       4.329  91.890 116.978  0.00  0.00     0.381 N 
ATOM     19  H   LIG d   1       4.102  92.512 117.728  0.00  0.00    -0.090 HD
ATOM     20  H   LIG d   1       4.231  92.391 116.112  0.00  0.00    -0.090 HD
ATOM     21  H   LIG d   1       5.266  91.566 117.078  0.00  0.00    -0.090 HD
ENDBRANCH   5  18
BRANCH   3  22
ATOM     22  C   LIG d   1      -0.063  90.400 118.174  0.00  0.00     0.382 C 
ATOM     23  O   LIG d   1      -0.875  91.351 118.069  0.00  0.00    -0.241 OA
ATOM     24  O   LIG d   1      -0.204  89.572 119.093  0.00  0.00    -0.241 OA
ENDBRANCH   3  22
TORSDOF 7
ENDMDL
MODEL 4
REMARK VINA RESULT:      -5.2      5.057      7.942
REMARK  7 active torsions:
REMARK  status: ('A' for Active; 'I' for Inactive)
REMARK    1  A    between atoms: C_2  and  C_3 
REMARK    2  A    between atoms: C_3  and  O_6 
REMARK    3  A    between atoms: C_3  and  C_4 
REMARK    4  A    between atoms: C_7  and  O_6 
REMARK    5  A    between atoms: C_9  and  C_10 
REMARK    6  A    between atoms: N_15  and  C_14 
REMARK    7  A    between atoms: N_20  and  C_19 
REMARK       I    between atoms: C_22  and  N_20 
ROOT
ATOM      1  C   LIG d   1       2.014  88.687 115.267  0.00  0.00     0.161 C 
ATOM      2  C   LIG d   1       0.775  88.909 115.890  0.00  0.00     0.016 C 
ATOM      3  C   LIG d   1       0.542  89.961 116.805  0.00  0.00     0.038 C 
ATOM      4  C   LIG d   1       1.497  90.960 117.046  0.00  0.00     0.028 C 
ATOM      5  C   LIG d   1       2.931  90.492 116.826  0.00  0.00    -0.047 C 
ATOM      6  C   LIG d   1       3.035  89.831 115.432  0.00  0.00     0.091 C 
ENDROOT
BRANCH   1   7
ATOM      7  O   LIG d   1       1.813  88.392 113.870  0.00  0.00    -0.368 OA
BRANCH   7   8
ATOM      8  C   LIG d   1       2.142  87.045 113.450  0.00  0.00     0.119 C 
BRANCH   8   9
ATOM      9  C   LIG d   1       3.293  87.147 112.430  0.00  0.00     0.028 C 
ATOM     10  C   LIG d   1       4.343  86.039 112.618  0.00  0.00     0.006 C 
ENDBRANCH   8   9
BRANCH   8  11
ATOM     11  C   LIG d   1       0.980  86.401 112.687  0.00  0.00     0.028 C 
ATOM     12  C   LIG d   1      -0.246  86.142 113.577  0.00  0.00     0.006 C 
ENDBRANCH   8  11
ENDBRANCH   7   8
ENDBRANCH   1   7
BRANCH   6  13
ATOM     13  N   LIG d   1       4.386  89.270 115.170  0.00  0.00    -0.311 N 
ATOM     14  C   LIG d   1       5.094  89.543 114.076  0.00  0.00     0.210 C 
ATOM     15  C   LIG d   1       6.455  88.844 113.994  0.00  0.00     0.109 C 
ATOM     16  O   LIG d   1       4.739  90.324 113.180  0.00  0.00    -0.276 OA
ATOM     17  H   LIG d   1       4.765  88.651 115.860  0.00  0.00     0.149 HD
ENDBRANCH   6  13
BRANCH   5  18
ATOM     18  N   LIG d   1       3.811  91.666 116.977  0.00  0.00     0.381 N 
ATOM     19  H   LIG d   1       4.091  91.998 116.075  0.00  0.00    -0.090 HD
ATOM     20  H   LIG d   1       4.636  91.391 117.481  0.00  0.00    -0.090 HD
ATOM     21  H   LIG d   1       3.335  92.388 117.471  0.00  0.00    -0.090 HD
ENDBRANCH   5  18
BRANCH   3  22
ATOM     22  C   LIG d   1      -0.645  89.999 117.521  0.00  0.00     0.382 C 
ATOM     23  O   LIG d   1      -1.640  90.604 117.055  0.00  0.00    -0.241 OA
ATOM     24  O   LIG d   1      -0.720  89.473 118.648  0.00  0.00    -0.241 OA
ENDBRANCH   3  22
TORSDOF 7
ENDMDL
MODEL 5
REMARK VINA RESULT:      -4.8      3.904      6.473
REMARK  7 active torsions:
REMARK  status: ('A' for Active; 'I' for Inactive)
REMARK    1  A    between atoms: C_2  and  C_3 
REMARK    2  A    between atoms: C_3  and  O_6 
REMARK    3  A    between atoms: C_3  and  C_4 
REMARK    4  A    between atoms: C_7  and  O_6 
REMARK    5  A    between atoms: C_9  and  C_10 
REMARK    6  A    between atoms: N_15  and  C_14 
REMARK    7  A    between atoms: N_20  and  C_19 
REMARK       I    between atoms: C_22  and  N_20 
ROOT
ATOM      1  C   LIG d   1       1.278  89.255 116.173  0.00  0.00     0.161 C 
ATOM      2  C   LIG d   1      -0.121  89.186 116.288  0.00  0.00     0.016 C 
ATOM      3  C   LIG d   1      -0.875  90.035 117.130  0.00  0.00     0.038 C 
ATOM      4  C   LIG d   1      -0.292  91.119 117.804  0.00  0.00     0.028 C 
ATOM      5  C   LIG d   1       1.187  90.915 118.113  0.00  0.00    -0.047 C 
ATOM      6  C   LIG d   1       1.919  90.503 116.816  0.00  0.00     0.091 C 
ENDROOT
BRANCH   1   7
ATOM      7  O   LIG d   1       1.660  89.154 114.787  0.00  0.00    -0.368 OA
BRANCH   7   8
ATOM      8  C   LIG d   1       2.333  87.931 114.399  0.00  0.00     0.119 C 
BRANCH   8   9
ATOM      9  C   LIG d   1       3.244  88.264 113.202  0.00  0.00     0.028 C 
ATOM     10  C   LIG d   1       4.508  89.033 113.622  0.00  0.00     0.006 C 
ENDBRANCH   8   9
BRANCH   8  11
ATOM     11  C   LIG d   1       1.340  86.890 113.875  0.00  0.00     0.028 C 
ATOM     12  C   LIG d   1       1.874  86.115 112.660  0.00  0.00     0.006 C 
ENDBRANCH   8  11
ENDBRANCH   7   8
ENDBRANCH   1   7
BRANCH   6  13
ATOM     13  N   LIG d   1       3.356  90.202 117.047  0.00  0.00    -0.311 N 
ATOM     14  C   LIG d   1       4.319  91.118 116.965  0.00  0.00     0.210 C 
ATOM     15  C   LIG d   1       5.735  90.592 117.220  0.00  0.00     0.109 C 
ATOM     16  O   LIG d   1       4.132  92.323 116.738  0.00  0.00    -0.276 OA
ATOM     17  H   LIG d   1       3.594  89.255 117.267  0.00  0.00     0.149 HD
ENDBRANCH   6  13
BRANCH   5  18
ATOM     18  N   LIG d   1       1.699  92.172 118.692  0.00  0.00     0.381 N 
ATOM     19  H   LIG d   1       2.691  92.221 118.572  0.00  0.00    -0.090 HD
ATOM     20  H   LIG d   1       1.499  92.182 119.676  0.00  0.00    -0.090 HD
ATOM     21  H   LIG d   1       1.265  92.952 118.249  0.00  0.00    -0.090 HD
ENDBRANCH   5  18
BRANCH   3  22
ATOM     22  C   LIG d   1      -2.222  89.779 117.335  0.00  0.00     0.382 C 
ATOM     23  O   LIG d   1      -2.575  88.898 118.155  0.00  0.00    -0.241 OA
ATOM     24  O   LIG d   1      -3.088  90.388 116.677  0.00  0.00    -0.241 OA
ENDBRANCH   3  22
TORSDOF 7
ENDMDL
MODEL 6
REMARK VINA RESULT:      -4.6      5.925      8.832
REMARK  7 active torsions:
REMARK  status: ('A' for Active; 'I' for Inactive)
REMARK    1  A    between atoms: C_2  and  C_3 
REMARK    2  A    between atoms: C_3  and  O_6 
REMARK    3  A    between atoms: C_3  and  C_4 
REMARK    4  A    between atoms: C_7  and  O_6 
REMARK    5  A    between atoms: C_9  and  C_10 
REMARK    6  A    between atoms: N_15  and  C_14 
REMARK    7  A    between atoms: N_20  and  C_19 
REMARK       I    between atoms: C_22  and  N_20 
ROOT
ATOM      1  C   LIG d   1       3.348  89.277 115.715  0.00  0.00     0.161 C 
ATOM      2  C   LIG d   1       2.117  89.942 115.840  0.00  0.00     0.016 C 
ATOM      3  C   LIG d   1       1.866  90.941 116.808  0.00  0.00     0.038 C 
ATOM      4  C   LIG d   1       2.885  91.453 117.625  0.00  0.00     0.028 C 
ATOM      5  C   LIG d   1       4.015  90.461 117.879  0.00  0.00    -0.047 C 
ATOM      6  C   LIG d   1       4.505  89.901 116.524  0.00  0.00     0.091 C 
ENDROOT
BRANCH   1   7
ATOM      7  O   LIG d   1       3.709  89.174 114.323  0.00  0.00    -0.368 OA
BRANCH   7   8
ATOM      8  C   LIG d   1       3.794  87.832 113.785  0.00  0.00     0.119 C 
BRANCH   8   9
ATOM      9  C   LIG d   1       4.955  87.813 112.771  0.00  0.00     0.028 C 
ATOM     10  C   LIG d   1       6.012  88.890 113.069  0.00  0.00     0.006 C 
ENDBRANCH   8   9
BRANCH   8  11
ATOM     11  C   LIG d   1       2.544  87.476 112.976  0.00  0.00     0.028 C 
ATOM     12  C   LIG d   1       1.565  86.583 113.754  0.00  0.00     0.006 C 
ENDBRANCH   8  11
ENDBRANCH   7   8
ENDBRANCH   1   7
BRANCH   6  13
ATOM     13  N   LIG d   1       5.553  88.860 116.687  0.00  0.00    -0.311 N 
ATOM     14  C   LIG d   1       6.858  89.126 116.680  0.00  0.00     0.210 C 
ATOM     15  C   LIG d   1       7.767  87.904 116.843  0.00  0.00     0.109 C 
ATOM     16  O   LIG d   1       7.347  90.261 116.586  0.00  0.00    -0.276 OA
ATOM     17  H   LIG d   1       5.243  87.914 116.799  0.00  0.00     0.149 HD
ENDBRANCH   6  13
BRANCH   5  18
ATOM     18  N   LIG d   1       5.070  91.169 118.628  0.00  0.00     0.381 N 
ATOM     19  H   LIG d   1       4.914  91.068 119.611  0.00  0.00    -0.090 HD
ATOM     20  H   LIG d   1       5.030  92.147 118.400  0.00  0.00    -0.090 HD
ATOM     21  H   LIG d   1       5.964  90.802 118.386  0.00  0.00    -0.090 HD
ENDBRANCH   5  18
BRANCH   3  22
ATOM     22  C   LIG d   1       0.575  91.410 116.994  0.00  0.00     0.382 C 
ATOM     23  O   LIG d   1       0.385  92.593 117.366  0.00  0.00    -0.241 OA
ATOM     24  O   LIG d   1      -0.401  90.652 116.837  0.00  0.00    -0.241 OA
ENDBRANCH   3  22
TORSDOF 7
ENDMDL
MODEL 7
REMARK VINA RESULT:      -4.6      2.714      4.248
REMARK  7 active torsions:
REMARK  status: ('A' for Active; 'I' for Inactive)
REMARK    1  A    between atoms: C_2  and  C_3 
REMARK    2  A    between atoms: C_3  and  O_6 
REMARK    3  A    between atoms: C_3  and  C_4 
REMARK    4  A    between atoms: C_7  and  O_6 
REMARK    5  A    between atoms: C_9  and  C_10 
REMARK    6  A    between atoms: N_15  and  C_14 
REMARK    7  A    between atoms: N_20  and  C_19 
REMARK       I    between atoms: C_22  and  N_20 
ROOT
ATOM      1  C   LIG d   1      -5.083  92.421 118.103  0.00  0.00     0.161 C 
ATOM      2  C   LIG d   1      -6.437  92.736 118.302  0.00  0.00     0.016 C 
ATOM      3  C   LIG d   1      -6.875  93.895 118.985  0.00  0.00     0.038 C 
ATOM      4  C   LIG d   1      -5.982  94.900 119.385  0.00  0.00     0.028 C 
ATOM      5  C   LIG d   1      -4.572  94.387 119.654  0.00  0.00    -0.047 C 
ATOM      6  C   LIG d   1      -4.098  93.561 118.436  0.00  0.00     0.091 C 
ENDROOT
BRANCH   1   7
ATOM      7  O   LIG d   1      -4.881  91.963 116.751  0.00  0.00    -0.368 OA
BRANCH   7   8
ATOM      8  C   LIG d   1      -4.970  90.532 116.543  0.00  0.00     0.119 C 
BRANCH   8   9
ATOM      9  C   LIG d   1      -3.583  90.044 116.083  0.00  0.00     0.028 C 
ATOM     10  C   LIG d   1      -2.653  89.718 117.264  0.00  0.00     0.006 C 
ENDBRANCH   8   9
BRANCH   8  11
ATOM     11  C   LIG d   1      -5.922  90.194 115.392  0.00  0.00     0.028 C 
ATOM     12  C   LIG d   1      -7.361  89.936 115.865  0.00  0.00     0.006 C 
ENDBRANCH   8  11
ENDBRANCH   7   8
ENDBRANCH   1   7
BRANCH   6  13
ATOM     13  N   LIG d   1      -2.760  92.952 118.650  0.00  0.00    -0.311 N 
ATOM     14  C   LIG d   1      -1.673  93.311 117.968  0.00  0.00     0.210 C 
ATOM     15  C   LIG d   1      -0.399  92.542 118.332  0.00  0.00     0.109 C 
ATOM     16  O   LIG d   1      -1.636  94.215 117.121  0.00  0.00    -0.276 OA
ATOM     17  H   LIG d   1      -2.692  92.231 119.341  0.00  0.00     0.149 HD
ENDBRANCH   6  13
BRANCH   5  18
ATOM     18  N   LIG d   1      -3.716  95.557 119.928  0.00  0.00     0.381 N 
ATOM     19  H   LIG d   1      -3.543  96.056 119.078  0.00  0.00    -0.090 HD
ATOM     20  H   LIG d   1      -2.835  95.237 120.291  0.00  0.00    -0.090 HD
ATOM     21  H   LIG d   1      -4.159  96.156 120.589  0.00  0.00    -0.090 HD
ENDBRANCH   5  18
BRANCH   3  22
ATOM     22  C   LIG d   1      -8.215  94.037 119.308  0.00  0.00     0.382 C 
ATOM     23  O   LIG d   1      -8.786  95.142 119.144  0.00  0.00    -0.241 OA
ATOM     24  O   LIG d   1      -8.850  93.086 119.804  0.00  0.00    -0.241 OA
ENDBRANCH   3  22
TORSDOF 7
ENDMDL
MODEL 8
REMARK VINA RESULT:      -4.6      2.980      4.341
REMARK  7 active torsions:
REMARK  status: ('A' for Active; 'I' for Inactive)
REMARK    1  A    between atoms: C_2  and  C_3 
REMARK    2  A    between atoms: C_3  and  O_6 
REMARK    3  A    between atoms: C_3  and  C_4 
REMARK    4  A    between atoms: C_7  and  O_6 
REMARK    5  A    between atoms: C_9  and  C_10 
REMARK    6  A    between atoms: N_15  and  C_14 
REMARK    7  A    between atoms: N_20  and  C_19 
REMARK       I    between atoms: C_22  and  N_20 
ROOT
ATOM      1  C   LIG d   1      -5.092  92.475 119.646  0.00  0.00     0.161 C 
ATOM      2  C   LIG d   1      -6.485  92.653 119.698  0.00  0.00     0.016 C 
ATOM      3  C   LIG d   1      -7.114  93.912 119.570  0.00  0.00     0.038 C 
ATOM      4  C   LIG d   1      -6.396  95.068 119.227  0.00  0.00     0.028 C 
ATOM      5  C   LIG d   1      -4.935  95.025 119.662  0.00  0.00    -0.047 C 
ATOM      6  C   LIG d   1      -4.301  93.708 119.162  0.00  0.00     0.091 C 
ENDROOT
BRANCH   1   7
ATOM      7  O   LIG d   1      -4.776  91.326 118.834  0.00  0.00    -0.368 OA
BRANCH   7   8
ATOM      8  C   LIG d   1      -4.633  91.570 117.413  0.00  0.00     0.119 C 
BRANCH   8   9
ATOM      9  C   LIG d   1      -5.937  91.114 116.731  0.00  0.00     0.028 C 
ATOM     10  C   LIG d   1      -6.081  91.674 115.306  0.00  0.00     0.006 C 
ENDBRANCH   8   9
BRANCH   8  11
ATOM     11  C   LIG d   1      -3.531  90.696 116.807  0.00  0.00     0.028 C 
ATOM     12  C   LIG d   1      -2.848  89.792 117.845  0.00  0.00     0.006 C 
ENDBRANCH   8  11
ENDBRANCH   7   8
ENDBRANCH   1   7
BRANCH   6  13
ATOM     13  N   LIG d   1      -2.895  93.547 119.616  0.00  0.00    -0.311 N 
ATOM     14  C   LIG d   1      -1.845  93.643 118.802  0.00  0.00     0.210 C 
ATOM     15  C   LIG d   1      -0.485  93.424 119.472  0.00  0.00     0.109 C 
ATOM     16  O   LIG d   1      -1.910  93.921 117.595  0.00  0.00    -0.276 OA
ATOM     17  H   LIG d   1      -2.749  93.351 120.587  0.00  0.00     0.149 HD
ENDBRANCH   6  13
BRANCH   5  18
ATOM     18  N   LIG d   1      -4.274  96.228 119.122  0.00  0.00     0.381 N 
ATOM     19  H   LIG d   1      -3.613  96.578 119.786  0.00  0.00    -0.090 HD
ATOM     20  H   LIG d   1      -4.968  96.937 118.964  0.00  0.00    -0.090 HD
ATOM     21  H   LIG d   1      -3.812  96.008 118.267  0.00  0.00    -0.090 HD
ENDBRANCH   5  18
BRANCH   3  22
ATOM     22  C   LIG d   1      -8.472  94.031 119.825  0.00  0.00     0.382 C 
ATOM     23  O   LIG d   1      -9.186  93.004 119.909  0.00  0.00    -0.241 OA
ATOM     24  O   LIG d   1      -8.999  95.155 119.928  0.00  0.00    -0.241 OA
ENDBRANCH   3  22
TORSDOF 7
ENDMDL
MODEL 9
REMARK VINA RESULT:      -4.6      5.286      8.998
REMARK  7 active torsions:
REMARK  status: ('A' for Active; 'I' for Inactive)
REMARK    1  A    between atoms: C_2  and  C_3 
REMARK    2  A    between atoms: C_3  and  O_6 
REMARK    3  A    between atoms: C_3  and  C_4 
REMARK    4  A    between atoms: C_7  and  O_6 
REMARK    5  A    between atoms: C_9  and  C_10 
REMARK    6  A    between atoms: N_15  and  C_14 
REMARK    7  A    between atoms: N_20  and  C_19 
REMARK       I    between atoms: C_22  and  N_20 
ROOT
ATOM      1  C   LIG d   1       2.490  89.287 116.867  0.00  0.00     0.161 C 
ATOM      2  C   LIG d   1       3.030  90.219 117.769  0.00  0.00     0.016 C 
ATOM      3  C   LIG d   1       4.238  90.917 117.537  0.00  0.00     0.038 C 
ATOM      4  C   LIG d   1       4.914  90.841 116.311  0.00  0.00     0.028 C 
ATOM      5  C   LIG d   1       4.677  89.530 115.568  0.00  0.00    -0.047 C 
ATOM      6  C   LIG d   1       3.155  89.274 115.475  0.00  0.00     0.091 C 
ENDROOT
BRANCH   1   7
ATOM      7  O   LIG d   1       1.069  89.495 116.742  0.00  0.00    -0.368 OA
BRANCH   7   8
ATOM      8  C   LIG d   1       0.481  90.446 117.663  0.00  0.00     0.119 C 
BRANCH   8   9
ATOM      9  C   LIG d   1      -0.762  89.779 118.284  0.00  0.00     0.028 C 
ATOM     10  C   LIG d   1      -1.847  89.472 117.239  0.00  0.00     0.006 C 
ENDBRANCH   8   9
BRANCH   8  11
ATOM     11  C   LIG d   1      -0.047  91.682 116.928  0.00  0.00     0.028 C 
ATOM     12  C   LIG d   1      -0.230  92.893 117.855  0.00  0.00     0.006 C 
ENDBRANCH   8  11
ENDBRANCH   7   8
ENDBRANCH   1   7
BRANCH   6  13
ATOM     13  N   LIG d   1       2.838  87.970 114.837  0.00  0.00    -0.311 N 
ATOM     14  C   LIG d   1       2.605  87.829 113.533  0.00  0.00     0.210 C 
ATOM     15  C   LIG d   1       2.277  86.401 113.086  0.00  0.00     0.109 C 
ATOM     16  O   LIG d   1       2.670  88.745 112.700  0.00  0.00    -0.276 OA
ATOM     17  H   LIG d   1       2.795  87.168 115.435  0.00  0.00     0.149 HD
ENDBRANCH   6  13
BRANCH   5  18
ATOM     18  N   LIG d   1       5.326  89.641 114.249  0.00  0.00     0.381 N 
ATOM     19  H   LIG d   1       6.310  89.782 114.366  0.00  0.00    -0.090 HD
ATOM     20  H   LIG d   1       4.949  90.439 113.767  0.00  0.00    -0.090 HD
ATOM     21  H   LIG d   1       5.162  88.815 113.717  0.00  0.00    -0.090 HD
ENDBRANCH   5  18
BRANCH   3  22
ATOM     22  C   LIG d   1       4.802  91.670 118.555  0.00  0.00     0.382 C 
ATOM     23  O   LIG d   1       6.042  91.858 118.582  0.00  0.00    -0.241 OA
ATOM     24  O   LIG d   1       4.092  92.128 119.471  0.00  0.00    -0.241 OA
ENDBRANCH   3  22
TORSDOF 7
ENDMDL
