MODEL 1
REMARK VINA RESULT:      -5.1      0.000      0.000
REMARK  7 active torsions:
REMARK  status: ('A' for Active; 'I' for Inactive)
REMARK    1  A    between atoms: C_2  and  C_3 
REMARK    2  A    between atoms: C_3  and  O_6 
REMARK    3  A    between atoms: C_3  and  C_4 
REMARK    4  A    between atoms: C_7  and  O_6 
REMARK    5  A    between atoms: C_9  and  C_10 
REMARK    6  A    between atoms: N_15  and  C_14 
REMARK    7  A    between atoms: N_20  and  C_19 
REMARK       I    between atoms: C_22  and  N_20 
ROOT
ATOM      1  C   LIG d   1      -5.896  90.384 118.583  0.00  0.00     0.161 C 
ATOM      2  C   LIG d   1      -6.464  91.655 118.397  0.00  0.00     0.016 C 
ATOM      3  C   LIG d   1      -5.730  92.859 118.506  0.00  0.00     0.038 C 
ATOM      4  C   LIG d   1      -4.336  92.866 118.661  0.00  0.00     0.028 C 
ATOM      5  C   LIG d   1      -3.798  91.620 119.356  0.00  0.00    -0.047 C 
ATOM      6  C   LIG d   1      -4.355  90.367 118.643  0.00  0.00     0.091 C 
ENDROOT
BRANCH   1   7
ATOM      7  O   LIG d   1      -6.368  89.484 117.562  0.00  0.00    -0.368 OA
BRANCH   7   8
ATOM      8  C   LIG d   1      -7.015  90.098 116.420  0.00  0.00     0.119 C 
BRANCH   8   9
ATOM      9  C   LIG d   1      -8.072  89.105 115.897  0.00  0.00     0.028 C 
ATOM     10  C   LIG d   1      -8.811  88.382 117.035  0.00  0.00     0.006 C 
ENDBRANCH   8   9
BRANCH   8  11
ATOM     11  C   LIG d   1      -6.033  90.292 115.261  0.00  0.00     0.028 C 
ATOM     12  C   LIG d   1      -6.079  91.711 114.673  0.00  0.00     0.006 C 
ENDBRANCH   8  11
ENDBRANCH   7   8
ENDBRANCH   1   7
BRANCH   6  13
ATOM     13  N   LIG d   1      -3.944  89.105 119.312  0.00  0.00    -0.311 N 
ATOM     14  C   LIG d   1      -2.899  88.376 118.925  0.00  0.00     0.210 C 
ATOM     15  C   LIG d   1      -2.663  87.100 119.740  0.00  0.00     0.109 C 
ATOM     16  O   LIG d   1      -2.126  88.682 118.005  0.00  0.00    -0.276 OA
ATOM     17  H   LIG d   1      -4.498  88.799 120.088  0.00  0.00     0.149 HD
ENDBRANCH   6  13
BRANCH   5  18
ATOM     18  N   LIG d   1      -2.325  91.695 119.328  0.00  0.00     0.381 N 
ATOM     19  H   LIG d   1      -1.991  92.121 120.170  0.00  0.00    -0.090 HD
ATOM     20  H   LIG d   1      -2.044  92.268 118.552  0.00  0.00    -0.090 HD
ATOM     21  H   LIG d   1      -1.939  90.782 119.234  0.00  0.00    -0.090 HD
ENDBRANCH   5  18
BRANCH   3  22
ATOM     22  C   LIG d   1      -6.398  94.074 118.499  0.00  0.00     0.382 C 
ATOM     23  O   LIG d   1      -7.571  94.142 118.059  0.00  0.00    -0.241 OA
ATOM     24  O   LIG d   1      -5.828  95.111 118.887  0.00  0.00    -0.241 OA
ENDBRANCH   3  22
TORSDOF 7
ENDMDL
MODEL 2
REMARK VINA RESULT:      -4.9      2.323      5.344
REMARK  7 active torsions:
REMARK  status: ('A' for Active; 'I' for Inactive)
REMARK    1  A    between atoms: C_2  and  C_3 
REMARK    2  A    between atoms: C_3  and  O_6 
REMARK    3  A    between atoms: C_3  and  C_4 
REMARK    4  A    between atoms: C_7  and  O_6 
REMARK    5  A    between atoms: C_9  and  C_10 
REMARK    6  A    between atoms: N_15  and  C_14 
REMARK    7  A    between atoms: N_20  and  C_19 
REMARK       I    between atoms: C_22  and  N_20 
ROOT
ATOM      1  C   LIG d   1      -4.131  90.456 118.007  0.00  0.00     0.161 C 
ATOM      2  C   LIG d   1      -5.095  89.637 117.396  0.00  0.00     0.016 C 
ATOM      3  C   LIG d   1      -6.320  90.125 116.885  0.00  0.00     0.038 C 
ATOM      4  C   LIG d   1      -6.600  91.498 116.814  0.00  0.00     0.028 C 
ATOM      5  C   LIG d   1      -5.876  92.319 117.876  0.00  0.00    -0.047 C 
ATOM      6  C   LIG d   1      -4.370  91.972 117.839  0.00  0.00     0.091 C 
ENDROOT
BRANCH   1   7
ATOM      7  O   LIG d   1      -2.817  90.101 117.534  0.00  0.00    -0.368 OA
BRANCH   7   8
ATOM      8  C   LIG d   1      -1.921  89.524 118.516  0.00  0.00     0.119 C 
BRANCH   8   9
ATOM      9  C   LIG d   1      -0.500  90.033 118.201  0.00  0.00     0.028 C 
ATOM     10  C   LIG d   1       0.209  90.598 119.443  0.00  0.00     0.006 C 
ENDBRANCH   8   9
BRANCH   8  11
ATOM     11  C   LIG d   1      -1.847  88.001 118.375  0.00  0.00     0.028 C 
ATOM     12  C   LIG d   1      -2.440  87.261 119.584  0.00  0.00     0.006 C 
ENDBRANCH   8  11
ENDBRANCH   7   8
ENDBRANCH   1   7
BRANCH   6  13
ATOM     13  N   LIG d   1      -3.602  92.669 118.903  0.00  0.00    -0.311 N 
ATOM     14  C   LIG d   1      -2.427  93.259 118.692  0.00  0.00     0.210 C 
ATOM     15  C   LIG d   1      -1.794  93.903 119.930  0.00  0.00     0.109 C 
ATOM     16  O   LIG d   1      -1.864  93.339 117.590  0.00  0.00    -0.276 OA
ATOM     17  H   LIG d   1      -4.001  92.679 119.822  0.00  0.00     0.149 HD
ENDBRANCH   6  13
BRANCH   5  18
ATOM     18  N   LIG d   1      -6.149  93.742 117.601  0.00  0.00     0.381 N 
ATOM     19  H   LIG d   1      -7.006  94.013 118.039  0.00  0.00    -0.090 HD
ATOM     20  H   LIG d   1      -6.247  93.868 116.609  0.00  0.00    -0.090 HD
ATOM     21  H   LIG d   1      -5.400  94.304 117.943  0.00  0.00    -0.090 HD
ENDBRANCH   5  18
BRANCH   3  22
ATOM     22  C   LIG d   1      -7.297  89.231 116.473  0.00  0.00     0.382 C 
ATOM     23  O   LIG d   1      -7.839  88.467 117.307  0.00  0.00    -0.241 OA
ATOM     24  O   LIG d   1      -7.612  89.149 115.271  0.00  0.00    -0.241 OA
ENDBRANCH   3  22
TORSDOF 7
ENDMDL
MODEL 3
REMARK VINA RESULT:      -4.7      2.209      4.829
REMARK  7 active torsions:
REMARK  status: ('A' for Active; 'I' for Inactive)
REMARK    1  A    between atoms: C_2  and  C_3 
REMARK    2  A    between atoms: C_3  and  O_6 
REMARK    3  A    between atoms: C_3  and  C_4 
REMARK    4  A    between atoms: C_7  and  O_6 
REMARK    5  A    between atoms: C_9  and  C_10 
REMARK    6  A    between atoms: N_15  and  C_14 
REMARK    7  A    between atoms: N_20  and  C_19 
REMARK       I    between atoms: C_22  and  N_20 
ROOT
ATOM      1  C   LIG d   1      -5.764  91.514 118.819  0.00  0.00     0.161 C 
ATOM      2  C   LIG d   1      -4.500  91.995 119.198  0.00  0.00     0.016 C 
ATOM      3  C   LIG d   1      -3.285  91.425 118.752  0.00  0.00     0.038 C 
ATOM      4  C   LIG d   1      -3.252  90.424 117.770  0.00  0.00     0.028 C 
ATOM      5  C   LIG d   1      -4.513  89.567 117.736  0.00  0.00    -0.047 C 
ATOM      6  C   LIG d   1      -5.748  90.493 117.661  0.00  0.00     0.091 C 
ENDROOT
BRANCH   1   7
ATOM      7  O   LIG d   1      -6.632  92.620 118.500  0.00  0.00    -0.368 OA
BRANCH   7   8
ATOM      8  C   LIG d   1      -6.623  93.727 119.434  0.00  0.00     0.119 C 
BRANCH   8   9
ATOM      9  C   LIG d   1      -8.068  93.927 119.929  0.00  0.00     0.028 C 
ATOM     10  C   LIG d   1      -8.840  94.957 119.087  0.00  0.00     0.006 C 
ENDBRANCH   8   9
BRANCH   8  11
ATOM     11  C   LIG d   1      -6.247  95.039 118.739  0.00  0.00     0.028 C 
ATOM     12  C   LIG d   1      -4.955  95.659 119.295  0.00  0.00     0.006 C 
ENDBRANCH   8  11
ENDBRANCH   7   8
ENDBRANCH   1   7
BRANCH   6  13
ATOM     13  N   LIG d   1      -7.027  89.738 117.709  0.00  0.00    -0.311 N 
ATOM     14  C   LIG d   1      -7.596  89.192 116.636  0.00  0.00     0.210 C 
ATOM     15  C   LIG d   1      -8.923  88.474 116.903  0.00  0.00     0.109 C 
ATOM     16  O   LIG d   1      -7.112  89.206 115.494  0.00  0.00    -0.276 OA
ATOM     17  H   LIG d   1      -7.472  89.651 118.602  0.00  0.00     0.149 HD
ENDBRANCH   6  13
BRANCH   5  18
ATOM     18  N   LIG d   1      -4.402  88.657 116.580  0.00  0.00     0.381 N 
ATOM     19  H   LIG d   1      -4.076  87.761 116.885  0.00  0.00    -0.090 HD
ATOM     20  H   LIG d   1      -3.732  89.033 115.933  0.00  0.00    -0.090 HD
ATOM     21  H   LIG d   1      -5.288  88.562 116.135  0.00  0.00    -0.090 HD
ENDBRANCH   5  18
BRANCH   3  22
ATOM     22  C   LIG d   1      -2.087  91.831 119.320  0.00  0.00     0.382 C 
ATOM     23  O   LIG d   1      -1.921  93.031 119.644  0.00  0.00    -0.241 OA
ATOM     24  O   LIG d   1      -1.153  91.020 119.471  0.00  0.00    -0.241 OA
ENDBRANCH   3  22
TORSDOF 7
ENDMDL
MODEL 4
REMARK VINA RESULT:      -4.4      6.839      9.454
REMARK  7 active torsions:
REMARK  status: ('A' for Active; 'I' for Inactive)
REMARK    1  A    between atoms: C_2  and  C_3 
REMARK    2  A    between atoms: C_3  and  O_6 
REMARK    3  A    between atoms: C_3  and  C_4 
REMARK    4  A    between atoms: C_7  and  O_6 
REMARK    5  A    between atoms: C_9  and  C_10 
REMARK    6  A    between atoms: N_15  and  C_14 
REMARK    7  A    between atoms: N_20  and  C_19 
REMARK       I    between atoms: C_22  and  N_20 
ROOT
ATOM      1  C   LIG d   1       2.701  89.473 116.485  0.00  0.00     0.161 C 
ATOM      2  C   LIG d   1       2.733  88.909 115.199  0.00  0.00     0.016 C 
ATOM      3  C   LIG d   1       3.909  88.811 114.421  0.00  0.00     0.038 C 
ATOM      4  C   LIG d   1       5.171  89.136 114.941  0.00  0.00     0.028 C 
ATOM      5  C   LIG d   1       5.118  90.180 116.051  0.00  0.00    -0.047 C 
ATOM      6  C   LIG d   1       4.087  89.732 117.112  0.00  0.00     0.091 C 
ENDROOT
BRANCH   1   7
ATOM      7  O   LIG d   1       1.901  88.653 117.359  0.00  0.00    -0.368 OA
BRANCH   7   8
ATOM      8  C   LIG d   1       0.607  89.190 117.730  0.00  0.00     0.119 C 
BRANCH   8   9
ATOM      9  C   LIG d   1      -0.451  88.120 117.397  0.00  0.00     0.028 C 
ATOM     10  C   LIG d   1      -1.734  88.285 118.228  0.00  0.00     0.006 C 
ENDBRANCH   8   9
BRANCH   8  11
ATOM     11  C   LIG d   1       0.240  90.403 116.870  0.00  0.00     0.028 C 
ATOM     12  C   LIG d   1      -0.095  91.647 117.708  0.00  0.00     0.006 C 
ENDBRANCH   8  11
ENDBRANCH   7   8
ENDBRANCH   1   7
BRANCH   6  13
ATOM     13  N   LIG d   1       3.911  90.737 118.192  0.00  0.00    -0.311 N 
ATOM     14  C   LIG d   1       3.588  92.009 117.964  0.00  0.00     0.210 C 
ATOM     15  C   LIG d   1       3.477  92.883 119.218  0.00  0.00     0.109 C 
ATOM     16  O   LIG d   1       3.352  92.489 116.845  0.00  0.00    -0.276 OA
ATOM     17  H   LIG d   1       4.054  90.426 119.133  0.00  0.00     0.149 HD
ENDBRANCH   6  13
BRANCH   5  18
ATOM     18  N   LIG d   1       6.482  90.322 116.595  0.00  0.00     0.381 N 
ATOM     19  H   LIG d   1       6.948  89.437 116.577  0.00  0.00    -0.090 HD
ATOM     20  H   LIG d   1       6.421  90.627 117.550  0.00  0.00    -0.090 HD
ATOM     21  H   LIG d   1       6.995  90.986 116.058  0.00  0.00    -0.090 HD
ENDBRANCH   5  18
BRANCH   3  22
ATOM     22  C   LIG d   1       3.824  88.421 113.093  0.00  0.00     0.382 C 
ATOM     23  O   LIG d   1       2.715  88.427 112.508  0.00  0.00    -0.241 OA
ATOM     24  O   LIG d   1       4.836  88.020 112.487  0.00  0.00    -0.241 OA
ENDBRANCH   3  22
TORSDOF 7
ENDMDL
MODEL 5
REMARK VINA RESULT:      -4.3      2.518      5.443
REMARK  7 active torsions:
REMARK  status: ('A' for Active; 'I' for Inactive)
REMARK    1  A    between atoms: C_2  and  C_3 
REMARK    2  A    between atoms: C_3  and  O_6 
REMARK    3  A    between atoms: C_3  and  C_4 
REMARK    4  A    between atoms: C_7  and  O_6 
REMARK    5  A    between atoms: C_9  and  C_10 
REMARK    6  A    between atoms: N_15  and  C_14 
REMARK    7  A    between atoms: N_20  and  C_19 
REMARK       I    between atoms: C_22  and  N_20 
ROOT
ATOM      1  C   LIG d   1      -2.879  89.327 118.356  0.00  0.00     0.161 C 
ATOM      2  C   LIG d   1      -4.213  89.127 117.964  0.00  0.00     0.016 C 
ATOM      3  C   LIG d   1      -5.042  90.159 117.470  0.00  0.00     0.038 C 
ATOM      4  C   LIG d   1      -4.544  91.441 117.191  0.00  0.00     0.028 C 
ATOM      5  C   LIG d   1      -3.339  91.821 118.044  0.00  0.00    -0.047 C 
ATOM      6  C   LIG d   1      -2.285  90.694 117.954  0.00  0.00     0.091 C 
ENDROOT
BRANCH   1   7
ATOM      7  O   LIG d   1      -2.055  88.256 117.854  0.00  0.00    -0.368 OA
BRANCH   7   8
ATOM      8  C   LIG d   1      -0.995  87.803 118.731  0.00  0.00     0.119 C 
BRANCH   8   9
ATOM      9  C   LIG d   1       0.076  87.128 117.852  0.00  0.00     0.028 C 
ATOM     10  C   LIG d   1       1.204  88.094 117.455  0.00  0.00     0.006 C 
ENDBRANCH   8   9
BRANCH   8  11
ATOM     11  C   LIG d   1      -1.488  86.708 119.682  0.00  0.00     0.028 C 
ATOM     12  C   LIG d   1      -0.620  85.441 119.632  0.00  0.00     0.006 C 
ENDBRANCH   8  11
ENDBRANCH   7   8
ENDBRANCH   1   7
BRANCH   6  13
ATOM     13  N   LIG d   1      -1.109  90.947 118.827  0.00  0.00    -0.311 N 
ATOM     14  C   LIG d   1       0.013  91.522 118.396  0.00  0.00     0.210 C 
ATOM     15  C   LIG d   1       1.110  91.671 119.454  0.00  0.00     0.109 C 
ATOM     16  O   LIG d   1       0.191  91.952 117.247  0.00  0.00    -0.276 OA
ATOM     17  H   LIG d   1      -1.179  90.658 119.783  0.00  0.00     0.149 HD
ENDBRANCH   6  13
BRANCH   5  18
ATOM     18  N   LIG d   1      -2.839  93.120 117.554  0.00  0.00     0.381 N 
ATOM     19  H   LIG d   1      -2.191  92.973 116.806  0.00  0.00    -0.090 HD
ATOM     20  H   LIG d   1      -2.356  93.585 118.302  0.00  0.00    -0.090 HD
ATOM     21  H   LIG d   1      -3.599  93.682 117.240  0.00  0.00    -0.090 HD
ENDBRANCH   5  18
BRANCH   3  22
ATOM     22  C   LIG d   1      -6.397  89.925 117.288  0.00  0.00     0.382 C 
ATOM     23  O   LIG d   1      -7.221  90.857 117.445  0.00  0.00    -0.241 OA
ATOM     24  O   LIG d   1      -6.808  88.782 117.012  0.00  0.00    -0.241 OA
ENDBRANCH   3  22
TORSDOF 7
ENDMDL
MODEL 6
REMARK VINA RESULT:      -4.2      6.528      8.843
REMARK  7 active torsions:
REMARK  status: ('A' for Active; 'I' for Inactive)
REMARK    1  A    between atoms: C_2  and  C_3 
REMARK    2  A    between atoms: C_3  and  O_6 
REMARK    3  A    between atoms: C_3  and  C_4 
REMARK    4  A    between atoms: C_7  and  O_6 
REMARK    5  A    between atoms: C_9  and  C_10 
REMARK    6  A    between atoms: N_15  and  C_14 
REMARK    7  A    between atoms: N_20  and  C_19 
REMARK       I    between atoms: C_22  and  N_20 
ROOT
ATOM      1  C   LIG d   1       2.108  89.500 116.602  0.00  0.00     0.161 C 
ATOM      2  C   LIG d   1       0.753  89.144 116.713  0.00  0.00     0.016 C 
ATOM      3  C   LIG d   1      -0.199  89.916 117.417  0.00  0.00     0.038 C 
ATOM      4  C   LIG d   1       0.110  91.184 117.933  0.00  0.00     0.028 C 
ATOM      5  C   LIG d   1       1.584  91.353 118.282  0.00  0.00    -0.047 C 
ATOM      6  C   LIG d   1       2.439  90.935 117.064  0.00  0.00     0.091 C 
ENDROOT
BRANCH   1   7
ATOM      7  O   LIG d   1       2.558  89.293 115.248  0.00  0.00    -0.368 OA
BRANCH   7   8
ATOM      8  C   LIG d   1       3.487  88.200 115.046  0.00  0.00     0.119 C 
BRANCH   8   9
ATOM      9  C   LIG d   1       4.870  88.815 114.760  0.00  0.00     0.028 C 
ATOM     10  C   LIG d   1       5.924  88.398 115.800  0.00  0.00     0.006 C 
ENDBRANCH   8   9
BRANCH   8  11
ATOM     11  C   LIG d   1       3.134  87.394 113.792  0.00  0.00     0.028 C 
ATOM     12  C   LIG d   1       4.129  87.616 112.642  0.00  0.00     0.006 C 
ENDBRANCH   8  11
ENDBRANCH   7   8
ENDBRANCH   1   7
BRANCH   6  13
ATOM     13  N   LIG d   1       3.897  90.990 117.348  0.00  0.00    -0.311 N 
ATOM     14  C   LIG d   1       4.627  92.096 117.221  0.00  0.00     0.210 C 
ATOM     15  C   LIG d   1       6.115  91.930 117.546  0.00  0.00     0.109 C 
ATOM     16  O   LIG d   1       4.178  93.207 116.902  0.00  0.00    -0.276 OA
ATOM     17  H   LIG d   1       4.337  90.140 117.643  0.00  0.00     0.149 HD
ENDBRANCH   6  13
BRANCH   5  18
ATOM     18  N   LIG d   1       1.790  92.759 118.677  0.00  0.00     0.381 N 
ATOM     19  H   LIG d   1       2.767  92.975 118.664  0.00  0.00    -0.090 HD
ATOM     20  H   LIG d   1       1.452  92.886 119.614  0.00  0.00    -0.090 HD
ATOM     21  H   LIG d   1       1.301  93.364 118.054  0.00  0.00    -0.090 HD
ENDBRANCH   5  18
BRANCH   3  22
ATOM     22  C   LIG d   1      -1.467  89.403 117.644  0.00  0.00     0.382 C 
ATOM     23  O   LIG d   1      -2.440  90.181 117.794  0.00  0.00    -0.241 OA
ATOM     24  O   LIG d   1      -1.642  88.174 117.747  0.00  0.00    -0.241 OA
ENDBRANCH   3  22
TORSDOF 7
ENDMDL
MODEL 7
REMARK VINA RESULT:      -4.2      7.177     10.062
REMARK  7 active torsions:
REMARK  status: ('A' for Active; 'I' for Inactive)
REMARK    1  A    between atoms: C_2  and  C_3 
REMARK    2  A    between atoms: C_3  and  O_6 
REMARK    3  A    between atoms: C_3  and  C_4 
REMARK    4  A    between atoms: C_7  and  O_6 
REMARK    5  A    between atoms: C_9  and  C_10 
REMARK    6  A    between atoms: N_15  and  C_14 
REMARK    7  A    between atoms: N_20  and  C_19 
REMARK       I    between atoms: C_22  and  N_20 
ROOT
ATOM      1  C   LIG d   1       2.806  89.528 116.631  0.00  0.00     0.161 C 
ATOM      2  C   LIG d   1       2.808  88.960 115.346  0.00  0.00     0.016 C 
ATOM      3  C   LIG d   1       3.945  88.938 114.507  0.00  0.00     0.038 C 
ATOM      4  C   LIG d   1       5.208  89.352 114.958  0.00  0.00     0.028 C 
ATOM      5  C   LIG d   1       5.142  90.395 116.068  0.00  0.00    -0.047 C 
ATOM      6  C   LIG d   1       4.202  89.884 117.183  0.00  0.00     0.091 C 
ENDROOT
BRANCH   1   7
ATOM      7  O   LIG d   1       2.111  88.660 117.548  0.00  0.00    -0.368 OA
BRANCH   7   8
ATOM      8  C   LIG d   1       2.029  87.265 117.167  0.00  0.00     0.119 C 
BRANCH   8   9
ATOM      9  C   LIG d   1       0.638  86.751 117.588  0.00  0.00     0.028 C 
ATOM     10  C   LIG d   1      -0.459  87.813 117.409  0.00  0.00     0.006 C 
ENDBRANCH   8   9
BRANCH   8  11
ATOM     11  C   LIG d   1       3.031  86.413 117.952  0.00  0.00     0.028 C 
ATOM     12  C   LIG d   1       4.274  86.045 117.127  0.00  0.00     0.006 C 
ENDBRANCH   8  11
ENDBRANCH   7   8
ENDBRANCH   1   7
BRANCH   6  13
ATOM     13  N   LIG d   1       4.016  90.881 118.269  0.00  0.00    -0.311 N 
ATOM     14  C   LIG d   1       3.658  92.146 118.050  0.00  0.00     0.210 C 
ATOM     15  C   LIG d   1       3.541  93.012 119.308  0.00  0.00     0.109 C 
ATOM     16  O   LIG d   1       3.395  92.623 116.936  0.00  0.00    -0.276 OA
ATOM     17  H   LIG d   1       4.178  90.571 119.207  0.00  0.00     0.149 HD
ENDBRANCH   6  13
BRANCH   5  18
ATOM     18  N   LIG d   1       6.520  90.633 116.538  0.00  0.00     0.381 N 
ATOM     19  H   LIG d   1       6.558  91.486 117.059  0.00  0.00    -0.090 HD
ATOM     20  H   LIG d   1       7.125  90.724 115.740  0.00  0.00    -0.090 HD
ATOM     21  H   LIG d   1       6.822  89.874 117.107  0.00  0.00    -0.090 HD
ENDBRANCH   5  18
BRANCH   3  22
ATOM     22  C   LIG d   1       3.817  88.536 113.186  0.00  0.00     0.382 C 
ATOM     23  O   LIG d   1       2.697  88.581 112.623  0.00  0.00    -0.241 OA
ATOM     24  O   LIG d   1       4.799  88.087 112.565  0.00  0.00    -0.241 OA
ENDBRANCH   3  22
TORSDOF 7
ENDMDL
MODEL 8
REMARK VINA RESULT:      -3.9      5.905      8.300
REMARK  7 active torsions:
REMARK  status: ('A' for Active; 'I' for Inactive)
REMARK    1  A    between atoms: C_2  and  C_3 
REMARK    2  A    between atoms: C_3  and  O_6 
REMARK    3  A    between atoms: C_3  and  C_4 
REMARK    4  A    between atoms: C_7  and  O_6 
REMARK    5  A    between atoms: C_9  and  C_10 
REMARK    6  A    between atoms: N_15  and  C_14 
REMARK    7  A    between atoms: N_20  and  C_19 
REMARK       I    between atoms: C_22  and  N_20 
ROOT
ATOM      1  C   LIG d   1       1.716  88.981 116.886  0.00  0.00     0.161 C 
ATOM      2  C   LIG d   1       0.335  88.778 117.045  0.00  0.00     0.016 C 
ATOM      3  C   LIG d   1      -0.556  89.789 117.474  0.00  0.00     0.038 C 
ATOM      4  C   LIG d   1      -0.146  91.122 117.628  0.00  0.00     0.028 C 
ATOM      5  C   LIG d   1       1.334  91.265 117.966  0.00  0.00    -0.047 C 
ATOM      6  C   LIG d   1       2.163  90.457 116.942  0.00  0.00     0.091 C 
ENDROOT
BRANCH   1   7
ATOM      7  O   LIG d   1       2.161  88.369 115.659  0.00  0.00    -0.368 OA
BRANCH   7   8
ATOM      8  C   LIG d   1       3.061  87.242 115.800  0.00  0.00     0.119 C 
BRANCH   8   9
ATOM      9  C   LIG d   1       3.767  87.042 114.445  0.00  0.00     0.028 C 
ATOM     10  C   LIG d   1       3.473  88.182 113.456  0.00  0.00     0.006 C 
ENDBRANCH   8   9
BRANCH   8  11
ATOM     11  C   LIG d   1       2.292  85.942 116.052  0.00  0.00     0.028 C 
ATOM     12  C   LIG d   1       1.558  85.432 114.801  0.00  0.00     0.006 C 
ENDBRANCH   8  11
ENDBRANCH   7   8
ENDBRANCH   1   7
BRANCH   6  13
ATOM     13  N   LIG d   1       3.617  90.474 117.250  0.00  0.00    -0.311 N 
ATOM     14  C   LIG d   1       4.557  90.709 116.336  0.00  0.00     0.210 C 
ATOM     15  C   LIG d   1       5.996  90.661 116.861  0.00  0.00     0.109 C 
ATOM     16  O   LIG d   1       4.335  90.984 115.148  0.00  0.00    -0.276 OA
ATOM     17  H   LIG d   1       3.885  90.292 118.197  0.00  0.00     0.149 HD
ENDBRANCH   6  13
BRANCH   5  18
ATOM     18  N   LIG d   1       1.655  92.705 117.962  0.00  0.00     0.381 N 
ATOM     19  H   LIG d   1       1.762  93.025 117.021  0.00  0.00    -0.090 HD
ATOM     20  H   LIG d   1       2.525  92.845 118.444  0.00  0.00    -0.090 HD
ATOM     21  H   LIG d   1       0.930  93.217 118.414  0.00  0.00    -0.090 HD
ENDBRANCH   5  18
BRANCH   3  22
ATOM     22  C   LIG d   1      -1.865  89.462 117.791  0.00  0.00     0.382 C 
ATOM     23  O   LIG d   1      -2.756  90.346 117.768  0.00  0.00    -0.241 OA
ATOM     24  O   LIG d   1      -2.159  88.304 118.145  0.00  0.00    -0.241 OA
ENDBRANCH   3  22
TORSDOF 7
ENDMDL
MODEL 9
REMARK VINA RESULT:      -3.7      7.561      9.525
REMARK  7 active torsions:
REMARK  status: ('A' for Active; 'I' for Inactive)
REMARK    1  A    between atoms: C_2  and  C_3 
REMARK    2  A    between atoms: C_3  and  O_6 
REMARK    3  A    between atoms: C_3  and  C_4 
REMARK    4  A    between atoms: C_7  and  O_6 
REMARK    5  A    between atoms: C_9  and  C_10 
REMARK    6  A    between atoms: N_15  and  C_14 
REMARK    7  A    between atoms: N_20  and  C_19 
REMARK       I    between atoms: C_22  and  N_20 
ROOT
ATOM      1  C   LIG d   1       3.248  90.051 116.500  0.00  0.00     0.161 C 
ATOM      2  C   LIG d   1       1.885  90.393 116.531  0.00  0.00     0.016 C 
ATOM      3  C   LIG d   1       1.364  91.440 117.325  0.00  0.00     0.038 C 
ATOM      4  C   LIG d   1       2.197  92.321 118.031  0.00  0.00     0.028 C 
ATOM      5  C   LIG d   1       3.533  91.703 118.428  0.00  0.00    -0.047 C 
ATOM      6  C   LIG d   1       4.186  91.072 117.178  0.00  0.00     0.091 C 
ENDROOT
BRANCH   1   7
ATOM      7  O   LIG d   1       3.661  89.817 115.139  0.00  0.00    -0.368 OA
BRANCH   7   8
ATOM      8  C   LIG d   1       3.509  88.461 114.652  0.00  0.00     0.119 C 
BRANCH   8   9
ATOM      9  C   LIG d   1       4.035  87.513 115.747  0.00  0.00     0.028 C 
ATOM     10  C   LIG d   1       5.568  87.392 115.733  0.00  0.00     0.006 C 
ENDBRANCH   8   9
BRANCH   8  11
ATOM     11  C   LIG d   1       4.400  88.204 113.432  0.00  0.00     0.028 C 
ATOM     12  C   LIG d   1       3.769  87.224 112.430  0.00  0.00     0.006 C 
ENDBRANCH   8  11
ENDBRANCH   7   8
ENDBRANCH   1   7
BRANCH   6  13
ATOM     13  N   LIG d   1       5.458  90.372 117.495  0.00  0.00    -0.311 N 
ATOM     14  C   LIG d   1       6.653  90.954 117.421  0.00  0.00     0.210 C 
ATOM     15  C   LIG d   1       7.837  90.047 117.771  0.00  0.00     0.109 C 
ATOM     16  O   LIG d   1       6.843  92.145 117.129  0.00  0.00    -0.276 OA
ATOM     17  H   LIG d   1       5.394  89.411 117.770  0.00  0.00     0.149 HD
ENDBRANCH   6  13
BRANCH   5  18
ATOM     18  N   LIG d   1       4.354  92.769 119.034  0.00  0.00     0.381 N 
ATOM     19  H   LIG d   1       3.849  93.203 119.780  0.00  0.00    -0.090 HD
ATOM     20  H   LIG d   1       4.547  93.466 118.336  0.00  0.00    -0.090 HD
ATOM     21  H   LIG d   1       5.208  92.388 119.378  0.00  0.00    -0.090 HD
ENDBRANCH   5  18
BRANCH   3  22
ATOM     22  C   LIG d   1      -0.009  91.590 117.449  0.00  0.00     0.382 C 
ATOM     23  O   LIG d   1      -0.499  92.724 117.668  0.00  0.00    -0.241 OA
ATOM     24  O   LIG d   1      -0.761  90.599 117.390  0.00  0.00    -0.241 OA
ENDBRANCH   3  22
TORSDOF 7
ENDMDL
