MODEL 1
REMARK VINA RESULT:      -5.2      0.000      0.000
REMARK  7 active torsions:
REMARK  status: ('A' for Active; 'I' for Inactive)
REMARK    1  A    between atoms: C_2  and  C_3 
REMARK    2  A    between atoms: C_3  and  O_6 
REMARK    3  A    between atoms: C_3  and  C_4 
REMARK    4  A    between atoms: C_7  and  O_6 
REMARK    5  A    between atoms: C_9  and  C_10 
REMARK    6  A    between atoms: N_15  and  C_14 
REMARK    7  A    between atoms: N_20  and  C_19 
REMARK       I    between atoms: C_22  and  N_20 
ROOT
ATOM      1  C   LIG d   1      -6.296  92.325 118.292  0.00  0.00     0.161 C 
ATOM      2  C   LIG d   1      -5.214  92.938 118.945  0.00  0.00     0.016 C 
ATOM      3  C   LIG d   1      -3.863  92.621 118.679  0.00  0.00     0.038 C 
ATOM      4  C   LIG d   1      -3.494  91.771 117.625  0.00  0.00     0.028 C 
ATOM      5  C   LIG d   1      -4.566  90.745 117.273  0.00  0.00    -0.047 C 
ATOM      6  C   LIG d   1      -5.911  91.476 117.062  0.00  0.00     0.091 C 
ENDROOT
BRANCH   1   7
ATOM      7  O   LIG d   1      -7.275  93.318 117.928  0.00  0.00    -0.368 OA
BRANCH   7   8
ATOM      8  C   LIG d   1      -7.404  94.445 118.830  0.00  0.00     0.119 C 
BRANCH   8   9
ATOM      9  C   LIG d   1      -8.572  94.139 119.788  0.00  0.00     0.028 C 
ATOM     10  C   LIG d   1      -9.564  95.309 119.895  0.00  0.00     0.006 C 
ENDBRANCH   8   9
BRANCH   8  11
ATOM     11  C   LIG d   1      -7.817  95.715 118.080  0.00  0.00     0.028 C 
ATOM     12  C   LIG d   1      -6.791  96.850 118.221  0.00  0.00     0.006 C 
ENDBRANCH   8  11
ENDBRANCH   7   8
ENDBRANCH   1   7
BRANCH   6  13
ATOM     13  N   LIG d   1      -7.032  90.536 116.796  0.00  0.00    -0.311 N 
ATOM     14  C   LIG d   1      -7.417  90.183 115.571  0.00  0.00     0.210 C 
ATOM     15  C   LIG d   1      -8.606  89.219 115.520  0.00  0.00     0.109 C 
ATOM     16  O   LIG d   1      -6.867  90.552 114.522  0.00  0.00    -0.276 OA
ATOM     17  H   LIG d   1      -7.514  90.164 117.591  0.00  0.00     0.149 HD
ENDBRANCH   6  13
BRANCH   5  18
ATOM     18  N   LIG d   1      -4.109  90.018 116.073  0.00  0.00     0.381 N 
ATOM     19  H   LIG d   1      -3.681  90.656 115.433  0.00  0.00    -0.090 HD
ATOM     20  H   LIG d   1      -4.905  89.603 115.621  0.00  0.00    -0.090 HD
ATOM     21  H   LIG d   1      -3.458  89.309 116.331  0.00  0.00    -0.090 HD
ENDBRANCH   5  18
BRANCH   3  22
ATOM     22  C   LIG d   1      -2.864  93.126 119.497  0.00  0.00     0.382 C 
ATOM     23  O   LIG d   1      -1.964  92.367 119.930  0.00  0.00    -0.241 OA
ATOM     24  O   LIG d   1      -2.876  94.323 119.844  0.00  0.00    -0.241 OA
ENDBRANCH   3  22
TORSDOF 7
ENDMDL
MODEL 2
REMARK VINA RESULT:      -4.6      9.322     12.324
REMARK  7 active torsions:
REMARK  status: ('A' for Active; 'I' for Inactive)
REMARK    1  A    between atoms: C_2  and  C_3 
REMARK    2  A    between atoms: C_3  and  O_6 
REMARK    3  A    between atoms: C_3  and  C_4 
REMARK    4  A    between atoms: C_7  and  O_6 
REMARK    5  A    between atoms: C_9  and  C_10 
REMARK    6  A    between atoms: N_15  and  C_14 
REMARK    7  A    between atoms: N_20  and  C_19 
REMARK       I    between atoms: C_22  and  N_20 
ROOT
ATOM      1  C   LIG d   1       4.832  89.920 115.451  0.00  0.00     0.161 C 
ATOM      2  C   LIG d   1       3.903  89.426 114.519  0.00  0.00     0.016 C 
ATOM      3  C   LIG d   1       3.889  88.086 114.068  0.00  0.00     0.038 C 
ATOM      4  C   LIG d   1       4.715  87.105 114.637  0.00  0.00     0.028 C 
ATOM      5  C   LIG d   1       6.009  87.664 115.218  0.00  0.00    -0.047 C 
ATOM      6  C   LIG d   1       5.668  88.837 116.164  0.00  0.00     0.091 C 
ENDROOT
BRANCH   1   7
ATOM      7  O   LIG d   1       4.160  90.752 116.417  0.00  0.00    -0.368 OA
BRANCH   7   8
ATOM      8  C   LIG d   1       3.810  90.117 117.671  0.00  0.00     0.119 C 
BRANCH   8   9
ATOM      9  C   LIG d   1       2.272  90.055 117.747  0.00  0.00     0.028 C 
ATOM     10  C   LIG d   1       1.613  91.398 117.391  0.00  0.00     0.006 C 
ENDBRANCH   8   9
BRANCH   8  11
ATOM     11  C   LIG d   1       4.241  90.971 118.867  0.00  0.00     0.028 C 
ATOM     12  C   LIG d   1       5.138  92.152 118.463  0.00  0.00     0.006 C 
ENDBRANCH   8  11
ENDBRANCH   7   8
ENDBRANCH   1   7
BRANCH   6  13
ATOM     13  N   LIG d   1       6.883  89.496 116.711  0.00  0.00    -0.311 N 
ATOM     14  C   LIG d   1       7.427  89.174 117.883  0.00  0.00     0.210 C 
ATOM     15  C   LIG d   1       8.666  89.990 118.267  0.00  0.00     0.109 C 
ATOM     16  O   LIG d   1       7.021  88.269 118.627  0.00  0.00    -0.276 OA
ATOM     17  H   LIG d   1       7.297  90.221 116.158  0.00  0.00     0.149 HD
ENDBRANCH   6  13
BRANCH   5  18
ATOM     18  N   LIG d   1       6.707  86.556 115.898  0.00  0.00     0.381 N 
ATOM     19  H   LIG d   1       6.743  86.732 116.882  0.00  0.00    -0.090 HD
ATOM     20  H   LIG d   1       7.649  86.505 115.552  0.00  0.00    -0.090 HD
ATOM     21  H   LIG d   1       6.234  85.697 115.723  0.00  0.00    -0.090 HD
ENDBRANCH   5  18
BRANCH   3  22
ATOM     22  C   LIG d   1       3.070  87.726 113.009  0.00  0.00     0.382 C 
ATOM     23  O   LIG d   1       2.373  88.594 112.432  0.00  0.00    -0.241 OA
ATOM     24  O   LIG d   1       2.986  86.535 112.653  0.00  0.00    -0.241 OA
ENDBRANCH   3  22
TORSDOF 7
ENDMDL
MODEL 3
REMARK VINA RESULT:      -4.6      9.371     12.375
REMARK  7 active torsions:
REMARK  status: ('A' for Active; 'I' for Inactive)
REMARK    1  A    between atoms: C_2  and  C_3 
REMARK    2  A    between atoms: C_3  and  O_6 
REMARK    3  A    between atoms: C_3  and  C_4 
REMARK    4  A    between atoms: C_7  and  O_6 
REMARK    5  A    between atoms: C_9  and  C_10 
REMARK    6  A    between atoms: N_15  and  C_14 
REMARK    7  A    between atoms: N_20  and  C_19 
REMARK       I    between atoms: C_22  and  N_20 
ROOT
ATOM      1  C   LIG d   1       4.737  89.833 116.010  0.00  0.00     0.161 C 
ATOM      2  C   LIG d   1       3.731  89.407 115.126  0.00  0.00     0.016 C 
ATOM      3  C   LIG d   1       3.782  88.182 114.421  0.00  0.00     0.038 C 
ATOM      4  C   LIG d   1       4.777  87.225 114.668  0.00  0.00     0.028 C 
ATOM      5  C   LIG d   1       6.083  87.826 115.177  0.00  0.00    -0.047 C 
ATOM      6  C   LIG d   1       5.775  88.752 116.376  0.00  0.00     0.091 C 
ENDROOT
BRANCH   1   7
ATOM      7  O   LIG d   1       4.140  90.380 117.202  0.00  0.00    -0.368 OA
BRANCH   7   8
ATOM      8  C   LIG d   1       4.256  91.814 117.372  0.00  0.00     0.119 C 
BRANCH   8   9
ATOM      9  C   LIG d   1       5.202  92.064 118.562  0.00  0.00     0.028 C 
ATOM     10  C   LIG d   1       5.091  90.973 119.641  0.00  0.00     0.006 C 
ENDBRANCH   8   9
BRANCH   8  11
ATOM     11  C   LIG d   1       2.917  92.436 117.781  0.00  0.00     0.028 C 
ATOM     12  C   LIG d   1       1.717  91.530 117.463  0.00  0.00     0.006 C 
ENDBRANCH   8  11
ENDBRANCH   7   8
ENDBRANCH   1   7
BRANCH   6  13
ATOM     13  N   LIG d   1       6.988  89.447 116.881  0.00  0.00    -0.311 N 
ATOM     14  C   LIG d   1       7.735  88.984 117.882  0.00  0.00     0.210 C 
ATOM     15  C   LIG d   1       8.930  89.865 118.259  0.00  0.00     0.109 C 
ATOM     16  O   LIG d   1       7.540  87.911 118.472  0.00  0.00    -0.276 OA
ATOM     17  H   LIG d   1       7.237  90.310 116.438  0.00  0.00     0.149 HD
ENDBRANCH   6  13
BRANCH   5  18
ATOM     18  N   LIG d   1       6.982  86.710 115.524  0.00  0.00     0.381 N 
ATOM     19  H   LIG d   1       7.336  86.836 116.451  0.00  0.00    -0.090 HD
ATOM     20  H   LIG d   1       7.760  86.709 114.887  0.00  0.00    -0.090 HD
ATOM     21  H   LIG d   1       6.492  85.845 115.462  0.00  0.00    -0.090 HD
ENDBRANCH   5  18
BRANCH   3  22
ATOM     22  C   LIG d   1       2.851  87.922 113.427  0.00  0.00     0.382 C 
ATOM     23  O   LIG d   1       2.147  86.886 113.483  0.00  0.00    -0.241 OA
ATOM     24  O   LIG d   1       2.737  88.689 112.452  0.00  0.00    -0.241 OA
ENDBRANCH   3  22
TORSDOF 7
ENDMDL
MODEL 4
REMARK VINA RESULT:      -4.6      9.533     12.352
REMARK  7 active torsions:
REMARK  status: ('A' for Active; 'I' for Inactive)
REMARK    1  A    between atoms: C_2  and  C_3 
REMARK    2  A    between atoms: C_3  and  O_6 
REMARK    3  A    between atoms: C_3  and  C_4 
REMARK    4  A    between atoms: C_7  and  O_6 
REMARK    5  A    between atoms: C_9  and  C_10 
REMARK    6  A    between atoms: N_15  and  C_14 
REMARK    7  A    between atoms: N_20  and  C_19 
REMARK       I    between atoms: C_22  and  N_20 
ROOT
ATOM      1  C   LIG d   1       4.397  88.140 117.034  0.00  0.00     0.161 C 
ATOM      2  C   LIG d   1       3.404  89.134 117.024  0.00  0.00     0.016 C 
ATOM      3  C   LIG d   1       3.690  90.518 117.035  0.00  0.00     0.038 C 
ATOM      4  C   LIG d   1       4.998  91.007 116.902  0.00  0.00     0.028 C 
ATOM      5  C   LIG d   1       6.060  90.041 117.417  0.00  0.00    -0.047 C 
ATOM      6  C   LIG d   1       5.829  88.653 116.776  0.00  0.00     0.091 C 
ENDROOT
BRANCH   1   7
ATOM      7  O   LIG d   1       4.059  87.103 116.090  0.00  0.00    -0.368 OA
BRANCH   7   8
ATOM      8  C   LIG d   1       3.354  87.531 114.899  0.00  0.00     0.119 C 
BRANCH   8   9
ATOM      9  C   LIG d   1       2.319  86.442 114.557  0.00  0.00     0.028 C 
ATOM     10  C   LIG d   1       1.396  86.116 115.744  0.00  0.00     0.006 C 
ENDBRANCH   8   9
BRANCH   8  11
ATOM     11  C   LIG d   1       4.291  87.594 113.689  0.00  0.00     0.028 C 
ATOM     12  C   LIG d   1       4.625  89.034 113.268  0.00  0.00     0.006 C 
ENDBRANCH   8  11
ENDBRANCH   7   8
ENDBRANCH   1   7
BRANCH   6  13
ATOM     13  N   LIG d   1       6.773  87.627 117.290  0.00  0.00    -0.311 N 
ATOM     14  C   LIG d   1       7.624  86.960 116.513  0.00  0.00     0.210 C 
ATOM     15  C   LIG d   1       8.496  85.932 117.242  0.00  0.00     0.109 C 
ATOM     16  O   LIG d   1       7.763  87.144 115.294  0.00  0.00    -0.276 OA
ATOM     17  H   LIG d   1       6.750  87.437 118.273  0.00  0.00     0.149 HD
ENDBRANCH   6  13
BRANCH   5  18
ATOM     18  N   LIG d   1       7.379  90.615 117.091  0.00  0.00     0.381 N 
ATOM     19  H   LIG d   1       7.461  90.738 116.102  0.00  0.00    -0.090 HD
ATOM     20  H   LIG d   1       8.095  89.976 117.390  0.00  0.00    -0.090 HD
ATOM     21  H   LIG d   1       7.493  91.491 117.552  0.00  0.00    -0.090 HD
ENDBRANCH   5  18
BRANCH   3  22
ATOM     22  C   LIG d   1       2.662  91.431 117.220  0.00  0.00     0.382 C 
ATOM     23  O   LIG d   1       1.468  91.043 117.198  0.00  0.00    -0.241 OA
ATOM     24  O   LIG d   1       2.911  92.643 117.364  0.00  0.00    -0.241 OA
ENDBRANCH   3  22
TORSDOF 7
ENDMDL
MODEL 5
REMARK VINA RESULT:      -4.4      2.479      4.737
REMARK  7 active torsions:
REMARK  status: ('A' for Active; 'I' for Inactive)
REMARK    1  A    between atoms: C_2  and  C_3 
REMARK    2  A    between atoms: C_3  and  O_6 
REMARK    3  A    between atoms: C_3  and  C_4 
REMARK    4  A    between atoms: C_7  and  O_6 
REMARK    5  A    between atoms: C_9  and  C_10 
REMARK    6  A    between atoms: N_15  and  C_14 
REMARK    7  A    between atoms: N_20  and  C_19 
REMARK       I    between atoms: C_22  and  N_20 
ROOT
ATOM      1  C   LIG d   1      -4.018  91.702 117.607  0.00  0.00     0.161 C 
ATOM      2  C   LIG d   1      -2.722  91.162 117.562  0.00  0.00     0.016 C 
ATOM      3  C   LIG d   1      -1.620  91.726 118.243  0.00  0.00     0.038 C 
ATOM      4  C   LIG d   1      -1.771  92.791 119.144  0.00  0.00     0.028 C 
ATOM      5  C   LIG d   1      -2.967  93.683 118.832  0.00  0.00    -0.047 C 
ATOM      6  C   LIG d   1      -4.225  92.798 118.673  0.00  0.00     0.091 C 
ENDROOT
BRANCH   1   7
ATOM      7  O   LIG d   1      -4.983  90.645 117.781  0.00  0.00    -0.368 OA
BRANCH   7   8
ATOM      8  C   LIG d   1      -5.744  90.277 116.605  0.00  0.00     0.119 C 
BRANCH   8   9
ATOM      9  C   LIG d   1      -5.444  91.322 115.513  0.00  0.00     0.028 C 
ATOM     10  C   LIG d   1      -6.710  92.052 115.035  0.00  0.00     0.006 C 
ENDBRANCH   8   9
BRANCH   8  11
ATOM     11  C   LIG d   1      -7.250  90.380 116.861  0.00  0.00     0.028 C 
ATOM     12  C   LIG d   1      -8.048  89.250 116.191  0.00  0.00     0.006 C 
ENDBRANCH   8  11
ENDBRANCH   7   8
ENDBRANCH   1   7
BRANCH   6  13
ATOM     13  N   LIG d   1      -5.425  93.584 118.284  0.00  0.00    -0.311 N 
ATOM     14  C   LIG d   1      -6.623  93.416 118.841  0.00  0.00     0.210 C 
ATOM     15  C   LIG d   1      -7.729  94.315 118.279  0.00  0.00     0.109 C 
ATOM     16  O   LIG d   1      -6.868  92.632 119.770  0.00  0.00    -0.276 OA
ATOM     17  H   LIG d   1      -5.309  94.265 117.559  0.00  0.00     0.149 HD
ENDBRANCH   6  13
BRANCH   5  18
ATOM     18  N   LIG d   1      -3.087  94.666 119.925  0.00  0.00     0.381 N 
ATOM     19  H   LIG d   1      -3.164  95.588 119.545  0.00  0.00    -0.090 HD
ATOM     20  H   LIG d   1      -2.257  94.627 120.490  0.00  0.00    -0.090 HD
ATOM     21  H   LIG d   1      -3.887  94.461 120.483  0.00  0.00    -0.090 HD
ENDBRANCH   5  18
BRANCH   3  22
ATOM     22  C   LIG d   1      -0.341  91.250 117.995  0.00  0.00     0.382 C 
ATOM     23  O   LIG d   1       0.475  91.123 118.939  0.00  0.00    -0.241 OA
ATOM     24  O   LIG d   1       0.020  90.987 116.832  0.00  0.00    -0.241 OA
ENDBRANCH   3  22
TORSDOF 7
ENDMDL
MODEL 6
REMARK VINA RESULT:      -4.3      8.655     11.756
REMARK  7 active torsions:
REMARK  status: ('A' for Active; 'I' for Inactive)
REMARK    1  A    between atoms: C_2  and  C_3 
REMARK    2  A    between atoms: C_3  and  O_6 
REMARK    3  A    between atoms: C_3  and  C_4 
REMARK    4  A    between atoms: C_7  and  O_6 
REMARK    5  A    between atoms: C_9  and  C_10 
REMARK    6  A    between atoms: N_15  and  C_14 
REMARK    7  A    between atoms: N_20  and  C_19 
REMARK       I    between atoms: C_22  and  N_20 
ROOT
ATOM      1  C   LIG d   1       4.858  90.323 116.611  0.00  0.00     0.161 C 
ATOM      2  C   LIG d   1       6.236  90.486 116.832  0.00  0.00     0.016 C 
ATOM      3  C   LIG d   1       6.768  91.311 117.851  0.00  0.00     0.038 C 
ATOM      4  C   LIG d   1       5.952  91.913 118.819  0.00  0.00     0.028 C 
ATOM      5  C   LIG d   1       4.532  92.184 118.332  0.00  0.00    -0.047 C 
ATOM      6  C   LIG d   1       3.953  90.884 117.727  0.00  0.00     0.091 C 
ENDROOT
BRANCH   1   7
ATOM      7  O   LIG d   1       4.563  88.932 116.378  0.00  0.00    -0.368 OA
BRANCH   7   8
ATOM      8  C   LIG d   1       4.256  88.565 115.010  0.00  0.00     0.119 C 
BRANCH   8   9
ATOM      9  C   LIG d   1       3.087  87.562 115.050  0.00  0.00     0.028 C 
ATOM     10  C   LIG d   1       2.388  87.530 116.420  0.00  0.00     0.006 C 
ENDBRANCH   8   9
BRANCH   8  11
ATOM     11  C   LIG d   1       5.419  87.807 114.363  0.00  0.00     0.028 C 
ATOM     12  C   LIG d   1       5.307  87.740 112.832  0.00  0.00     0.006 C 
ENDBRANCH   8  11
ENDBRANCH   7   8
ENDBRANCH   1   7
BRANCH   6  13
ATOM     13  N   LIG d   1       2.598  91.083 117.150  0.00  0.00    -0.311 N 
ATOM     14  C   LIG d   1       1.473  90.880 117.834  0.00  0.00     0.210 C 
ATOM     15  C   LIG d   1       0.183  91.123 117.044  0.00  0.00     0.109 C 
ATOM     16  O   LIG d   1       1.421  90.553 119.029  0.00  0.00    -0.276 OA
ATOM     17  H   LIG d   1       2.548  91.378 116.195  0.00  0.00     0.149 HD
ENDBRANCH   6  13
BRANCH   5  18
ATOM     18  N   LIG d   1       3.754  92.684 119.481  0.00  0.00     0.381 N 
ATOM     19  H   LIG d   1       4.257  92.516 120.329  0.00  0.00    -0.090 HD
ATOM     20  H   LIG d   1       2.883  92.185 119.526  0.00  0.00    -0.090 HD
ATOM     21  H   LIG d   1       3.582  93.660 119.376  0.00  0.00    -0.090 HD
ENDBRANCH   5  18
BRANCH   3  22
ATOM     22  C   LIG d   1       8.130  91.571 117.882  0.00  0.00     0.382 C 
ATOM     23  O   LIG d   1       8.565  92.551 118.533  0.00  0.00    -0.241 OA
ATOM     24  O   LIG d   1       8.923  90.864 117.233  0.00  0.00    -0.241 OA
ENDBRANCH   3  22
TORSDOF 7
ENDMDL
MODEL 7
REMARK VINA RESULT:      -4.2      8.545     11.697
REMARK  7 active torsions:
REMARK  status: ('A' for Active; 'I' for Inactive)
REMARK    1  A    between atoms: C_2  and  C_3 
REMARK    2  A    between atoms: C_3  and  O_6 
REMARK    3  A    between atoms: C_3  and  C_4 
REMARK    4  A    between atoms: C_7  and  O_6 
REMARK    5  A    between atoms: C_9  and  C_10 
REMARK    6  A    between atoms: N_15  and  C_14 
REMARK    7  A    between atoms: N_20  and  C_19 
REMARK       I    between atoms: C_22  and  N_20 
ROOT
ATOM      1  C   LIG d   1       4.852  90.096 116.752  0.00  0.00     0.161 C 
ATOM      2  C   LIG d   1       6.235  90.258 116.932  0.00  0.00     0.016 C 
ATOM      3  C   LIG d   1       6.800  91.247 117.770  0.00  0.00     0.038 C 
ATOM      4  C   LIG d   1       6.010  92.049 118.607  0.00  0.00     0.028 C 
ATOM      5  C   LIG d   1       4.595  92.262 118.082  0.00  0.00    -0.047 C 
ATOM      6  C   LIG d   1       3.973  90.888 117.742  0.00  0.00     0.091 C 
ENDROOT
BRANCH   1   7
ATOM      7  O   LIG d   1       4.514  88.695 116.793  0.00  0.00    -0.368 OA
BRANCH   7   8
ATOM      8  C   LIG d   1       4.468  88.012 115.516  0.00  0.00     0.119 C 
BRANCH   8   9
ATOM      9  C   LIG d   1       3.953  89.020 114.471  0.00  0.00     0.028 C 
ATOM     10  C   LIG d   1       4.123  88.510 113.030  0.00  0.00     0.006 C 
ENDBRANCH   8   9
BRANCH   8  11
ATOM     11  C   LIG d   1       3.439  86.878 115.527  0.00  0.00     0.028 C 
ATOM     12  C   LIG d   1       2.089  87.304 116.124  0.00  0.00     0.006 C 
ENDBRANCH   8  11
ENDBRANCH   7   8
ENDBRANCH   1   7
BRANCH   6  13
ATOM     13  N   LIG d   1       2.619  91.012 117.142  0.00  0.00    -0.311 N 
ATOM     14  C   LIG d   1       1.493  90.919 117.849  0.00  0.00     0.210 C 
ATOM     15  C   LIG d   1       0.204  91.055 117.032  0.00  0.00     0.109 C 
ATOM     16  O   LIG d   1       1.440  90.768 119.078  0.00  0.00    -0.276 OA
ATOM     17  H   LIG d   1       2.570  91.166 116.154  0.00  0.00     0.149 HD
ENDBRANCH   6  13
BRANCH   5  18
ATOM     18  N   LIG d   1       3.842  92.998 119.115  0.00  0.00     0.381 N 
ATOM     19  H   LIG d   1       3.061  93.464 118.698  0.00  0.00    -0.090 HD
ATOM     20  H   LIG d   1       4.443  93.692 119.523  0.00  0.00    -0.090 HD
ATOM     21  H   LIG d   1       3.525  92.368 119.819  0.00  0.00    -0.090 HD
ENDBRANCH   5  18
BRANCH   3  22
ATOM     22  C   LIG d   1       8.169  91.468 117.745  0.00  0.00     0.382 C 
ATOM     23  O   LIG d   1       8.627  92.597 118.045  0.00  0.00    -0.241 OA
ATOM     24  O   LIG d   1       8.948  90.566 117.385  0.00  0.00    -0.241 OA
ENDBRANCH   3  22
TORSDOF 7
ENDMDL
MODEL 8
REMARK VINA RESULT:      -4.2      8.330     11.529
REMARK  7 active torsions:
REMARK  status: ('A' for Active; 'I' for Inactive)
REMARK    1  A    between atoms: C_2  and  C_3 
REMARK    2  A    between atoms: C_3  and  O_6 
REMARK    3  A    between atoms: C_3  and  C_4 
REMARK    4  A    between atoms: C_7  and  O_6 
REMARK    5  A    between atoms: C_9  and  C_10 
REMARK    6  A    between atoms: N_15  and  C_14 
REMARK    7  A    between atoms: N_20  and  C_19 
REMARK       I    between atoms: C_22  and  N_20 
ROOT
ATOM      1  C   LIG d   1       4.750  90.489 116.397  0.00  0.00     0.161 C 
ATOM      2  C   LIG d   1       3.945  91.369 117.140  0.00  0.00     0.016 C 
ATOM      3  C   LIG d   1       2.625  91.062 117.544  0.00  0.00     0.038 C 
ATOM      4  C   LIG d   1       2.070  89.787 117.360  0.00  0.00     0.028 C 
ATOM      5  C   LIG d   1       2.660  89.036 116.171  0.00  0.00    -0.047 C 
ATOM      6  C   LIG d   1       4.202  89.051 116.283  0.00  0.00     0.091 C 
ENDROOT
BRANCH   1   7
ATOM      7  O   LIG d   1       6.086  90.475 116.937  0.00  0.00    -0.368 OA
BRANCH   7   8
ATOM      8  C   LIG d   1       6.222  90.911 118.312  0.00  0.00     0.119 C 
BRANCH   8   9
ATOM      9  C   LIG d   1       7.448  91.843 118.382  0.00  0.00     0.028 C 
ATOM     10  C   LIG d   1       8.580  91.397 117.442  0.00  0.00     0.006 C 
ENDBRANCH   8   9
BRANCH   8  11
ATOM     11  C   LIG d   1       6.552  89.737 119.239  0.00  0.00     0.028 C 
ATOM     12  C   LIG d   1       5.302  89.121 119.888  0.00  0.00     0.006 C 
ENDBRANCH   8  11
ENDBRANCH   7   8
ENDBRANCH   1   7
BRANCH   6  13
ATOM     13  N   LIG d   1       4.861  88.410 115.115  0.00  0.00    -0.311 N 
ATOM     14  C   LIG d   1       4.743  88.861 113.868  0.00  0.00     0.210 C 
ATOM     15  C   LIG d   1       5.489  88.041 112.810  0.00  0.00     0.109 C 
ATOM     16  O   LIG d   1       4.119  89.881 113.541  0.00  0.00    -0.276 OA
ATOM     17  H   LIG d   1       5.413  87.594 115.294  0.00  0.00     0.149 HD
ENDBRANCH   6  13
BRANCH   5  18
ATOM     18  N   LIG d   1       2.094  87.674 116.179  0.00  0.00     0.381 N 
ATOM     19  H   LIG d   1       2.777  87.025 116.515  0.00  0.00    -0.090 HD
ATOM     20  H   LIG d   1       1.850  87.418 115.238  0.00  0.00    -0.090 HD
ATOM     21  H   LIG d   1       1.284  87.645 116.759  0.00  0.00    -0.090 HD
ENDBRANCH   5  18
BRANCH   3  22
ATOM     22  C   LIG d   1       1.831  92.052 118.104  0.00  0.00     0.382 C 
ATOM     23  O   LIG d   1       2.348  92.935 118.829  0.00  0.00    -0.241 OA
ATOM     24  O   LIG d   1       0.598  92.046 117.929  0.00  0.00    -0.241 OA
ENDBRANCH   3  22
TORSDOF 7
ENDMDL
MODEL 9
REMARK VINA RESULT:      -4.1      2.084      4.816
REMARK  7 active torsions:
REMARK  status: ('A' for Active; 'I' for Inactive)
REMARK    1  A    between atoms: C_2  and  C_3 
REMARK    2  A    between atoms: C_3  and  O_6 
REMARK    3  A    between atoms: C_3  and  C_4 
REMARK    4  A    between atoms: C_7  and  O_6 
REMARK    5  A    between atoms: C_9  and  C_10 
REMARK    6  A    between atoms: N_15  and  C_14 
REMARK    7  A    between atoms: N_20  and  C_19 
REMARK       I    between atoms: C_22  and  N_20 
ROOT
ATOM      1  C   LIG d   1      -4.826  92.630 119.163  0.00  0.00     0.161 C 
ATOM      2  C   LIG d   1      -4.348  93.909 119.492  0.00  0.00     0.016 C 
ATOM      3  C   LIG d   1      -5.191  95.024 119.705  0.00  0.00     0.038 C 
ATOM      4  C   LIG d   1      -6.587  94.900 119.751  0.00  0.00     0.028 C 
ATOM      5  C   LIG d   1      -7.119  93.733 118.927  0.00  0.00    -0.047 C 
ATOM      6  C   LIG d   1      -6.351  92.450 119.318  0.00  0.00     0.091 C 
ENDROOT
BRANCH   1   7
ATOM      7  O   LIG d   1      -4.123  91.633 119.930  0.00  0.00    -0.368 OA
BRANCH   7   8
ATOM      8  C   LIG d   1      -3.105  90.884 119.221  0.00  0.00     0.119 C 
BRANCH   8   9
ATOM      9  C   LIG d   1      -1.734  91.364 119.737  0.00  0.00     0.028 C 
ATOM     10  C   LIG d   1      -0.792  91.783 118.596  0.00  0.00     0.006 C 
ENDBRANCH   8   9
BRANCH   8  11
ATOM     11  C   LIG d   1      -3.113  91.211 117.725  0.00  0.00     0.028 C 
ATOM     12  C   LIG d   1      -3.606  90.040 116.861  0.00  0.00     0.006 C 
ENDBRANCH   8  11
ENDBRANCH   7   8
ENDBRANCH   1   7
BRANCH   6  13
ATOM     13  N   LIG d   1      -6.751  91.277 118.498  0.00  0.00    -0.311 N 
ATOM     14  C   LIG d   1      -6.791  91.292 117.167  0.00  0.00     0.210 C 
ATOM     15  C   LIG d   1      -7.251  89.982 116.519  0.00  0.00     0.109 C 
ATOM     16  O   LIG d   1      -6.459  92.256 116.461  0.00  0.00    -0.276 OA
ATOM     17  H   LIG d   1      -7.007  90.443 118.990  0.00  0.00     0.149 HD
ENDBRANCH   6  13
BRANCH   5  18
ATOM     18  N   LIG d   1      -8.570  93.636 119.175  0.00  0.00     0.381 N 
ATOM     19  H   LIG d   1      -8.999  93.080 118.463  0.00  0.00    -0.090 HD
ATOM     20  H   LIG d   1      -8.968  94.558 119.137  0.00  0.00    -0.090 HD
ATOM     21  H   LIG d   1      -8.737  93.231 120.069  0.00  0.00    -0.090 HD
ENDBRANCH   5  18
BRANCH   3  22
ATOM     22  C   LIG d   1      -4.637  96.289 119.835  0.00  0.00     0.382 C 
ATOM     23  O   LIG d   1      -3.392  96.424 119.905  0.00  0.00    -0.241 OA
ATOM     24  O   LIG d   1      -5.369  97.292 119.928  0.00  0.00    -0.241 OA
ENDBRANCH   3  22
TORSDOF 7
ENDMDL
