MODEL 1
REMARK VINA RESULT:      -4.9      0.000      0.000
REMARK  7 active torsions:
REMARK  status: ('A' for Active; 'I' for Inactive)
REMARK    1  A    between atoms: C_2  and  C_3 
REMARK    2  A    between atoms: C_3  and  O_6 
REMARK    3  A    between atoms: C_3  and  C_4 
REMARK    4  A    between atoms: C_7  and  O_6 
REMARK    5  A    between atoms: C_9  and  C_10 
REMARK    6  A    between atoms: N_15  and  C_14 
REMARK    7  A    between atoms: N_20  and  C_19 
REMARK       I    between atoms: C_22  and  N_20 
ROOT
ATOM      1  C   LIG d   1      -5.640  91.044 118.364  0.00  0.00     0.161 C 
ATOM      2  C   LIG d   1      -6.490  92.161 118.316  0.00  0.00     0.016 C 
ATOM      3  C   LIG d   1      -6.110  93.448 118.762  0.00  0.00     0.038 C 
ATOM      4  C   LIG d   1      -4.794  93.739 119.151  0.00  0.00     0.028 C 
ATOM      5  C   LIG d   1      -4.041  92.529 119.693  0.00  0.00    -0.047 C 
ATOM      6  C   LIG d   1      -4.165  91.367 118.682  0.00  0.00     0.091 C 
ENDROOT
BRANCH   1   7
ATOM      7  O   LIG d   1      -5.737  90.302 117.132  0.00  0.00    -0.368 OA
BRANCH   7   8
ATOM      8  C   LIG d   1      -6.780  90.719 116.217  0.00  0.00     0.119 C 
BRANCH   8   9
ATOM      9  C   LIG d   1      -7.356  89.449 115.562  0.00  0.00     0.028 C 
ATOM     10  C   LIG d   1      -8.852  89.260 115.865  0.00  0.00     0.006 C 
ENDBRANCH   8   9
BRANCH   8  11
ATOM     11  C   LIG d   1      -6.210  91.548 115.063  0.00  0.00     0.028 C 
ATOM     12  C   LIG d   1      -6.931  91.289 113.730  0.00  0.00     0.006 C 
ENDBRANCH   8  11
ENDBRANCH   7   8
ENDBRANCH   1   7
BRANCH   6  13
ATOM     13  N   LIG d   1      -3.527  90.117 119.173  0.00  0.00    -0.311 N 
ATOM     14  C   LIG d   1      -2.563  89.478 118.512  0.00  0.00     0.210 C 
ATOM     15  C   LIG d   1      -2.057  88.198 119.186  0.00  0.00     0.109 C 
ATOM     16  O   LIG d   1      -2.056  89.867 117.449  0.00  0.00    -0.276 OA
ATOM     17  H   LIG d   1      -3.856  89.749 120.044  0.00  0.00     0.149 HD
ENDBRANCH   6  13
BRANCH   5  18
ATOM     18  N   LIG d   1      -2.645  92.943 119.930  0.00  0.00     0.381 N 
ATOM     19  H   LIG d   1      -2.025  92.190 119.704  0.00  0.00    -0.090 HD
ATOM     20  H   LIG d   1      -2.532  93.163 120.904  0.00  0.00    -0.090 HD
ATOM     21  H   LIG d   1      -2.427  93.740 119.374  0.00  0.00    -0.090 HD
ENDBRANCH   5  18
BRANCH   3  22
ATOM     22  C   LIG d   1      -7.063  94.450 118.861  0.00  0.00     0.382 C 
ATOM     23  O   LIG d   1      -7.138  95.144 119.904  0.00  0.00    -0.241 OA
ATOM     24  O   LIG d   1      -7.879  94.639 117.939  0.00  0.00    -0.241 OA
ENDBRANCH   3  22
TORSDOF 7
ENDMDL
MODEL 2
REMARK VINA RESULT:      -4.7      2.343      5.670
REMARK  7 active torsions:
REMARK  status: ('A' for Active; 'I' for Inactive)
REMARK    1  A    between atoms: C_2  and  C_3 
REMARK    2  A    between atoms: C_3  and  O_6 
REMARK    3  A    between atoms: C_3  and  C_4 
REMARK    4  A    between atoms: C_7  and  O_6 
REMARK    5  A    between atoms: C_9  and  C_10 
REMARK    6  A    between atoms: N_15  and  C_14 
REMARK    7  A    between atoms: N_20  and  C_19 
REMARK       I    between atoms: C_22  and  N_20 
ROOT
ATOM      1  C   LIG d   1      -5.142  91.480 118.085  0.00  0.00     0.161 C 
ATOM      2  C   LIG d   1      -3.992  91.162 118.826  0.00  0.00     0.016 C 
ATOM      3  C   LIG d   1      -2.995  90.269 118.371  0.00  0.00     0.038 C 
ATOM      4  C   LIG d   1      -3.008  89.745 117.070  0.00  0.00     0.028 C 
ATOM      5  C   LIG d   1      -4.407  89.640 116.472  0.00  0.00    -0.047 C 
ATOM      6  C   LIG d   1      -5.118  91.005 116.617  0.00  0.00     0.091 C 
ENDROOT
BRANCH   1   7
ATOM      7  O   LIG d   1      -5.387  92.899 118.148  0.00  0.00    -0.368 OA
BRANCH   7   8
ATOM      8  C   LIG d   1      -5.449  93.477 119.475  0.00  0.00     0.119 C 
BRANCH   8   9
ATOM      9  C   LIG d   1      -6.894  93.962 119.702  0.00  0.00     0.028 C 
ATOM     10  C   LIG d   1      -7.353  94.962 118.627  0.00  0.00     0.006 C 
ENDBRANCH   8   9
BRANCH   8  11
ATOM     11  C   LIG d   1      -4.579  94.733 119.577  0.00  0.00     0.028 C 
ATOM     12  C   LIG d   1      -3.109  94.471 119.212  0.00  0.00     0.006 C 
ENDBRANCH   8  11
ENDBRANCH   7   8
ENDBRANCH   1   7
BRANCH   6  13
ATOM     13  N   LIG d   1      -6.522  90.967 116.133  0.00  0.00    -0.311 N 
ATOM     14  C   LIG d   1      -6.877  91.272 114.886  0.00  0.00     0.210 C 
ATOM     15  C   LIG d   1      -8.380  91.187 114.602  0.00  0.00     0.109 C 
ATOM     16  O   LIG d   1      -6.086  91.575 113.980  0.00  0.00    -0.276 OA
ATOM     17  H   LIG d   1      -7.225  90.701 116.795  0.00  0.00     0.149 HD
ENDBRANCH   6  13
BRANCH   5  18
ATOM     18  N   LIG d   1      -4.261  89.211 115.068  0.00  0.00     0.381 N 
ATOM     19  H   LIG d   1      -5.132  88.851 114.732  0.00  0.00    -0.090 HD
ATOM     20  H   LIG d   1      -3.577  88.475 115.023  0.00  0.00    -0.090 HD
ATOM     21  H   LIG d   1      -3.970  89.979 114.505  0.00  0.00    -0.090 HD
ENDBRANCH   5  18
BRANCH   3  22
ATOM     22  C   LIG d   1      -1.992  89.859 119.236  0.00  0.00     0.382 C 
ATOM     23  O   LIG d   1      -1.326  90.711 119.872  0.00  0.00    -0.241 OA
ATOM     24  O   LIG d   1      -1.716  88.650 119.356  0.00  0.00    -0.241 OA
ENDBRANCH   3  22
TORSDOF 7
ENDMDL
MODEL 3
REMARK VINA RESULT:      -4.6      9.532     11.486
REMARK  7 active torsions:
REMARK  status: ('A' for Active; 'I' for Inactive)
REMARK    1  A    between atoms: C_2  and  C_3 
REMARK    2  A    between atoms: C_3  and  O_6 
REMARK    3  A    between atoms: C_3  and  C_4 
REMARK    4  A    between atoms: C_7  and  O_6 
REMARK    5  A    between atoms: C_9  and  C_10 
REMARK    6  A    between atoms: N_15  and  C_14 
REMARK    7  A    between atoms: N_20  and  C_19 
REMARK       I    between atoms: C_22  and  N_20 
ROOT
ATOM      1  C   LIG d   1       5.119  88.008 116.367  0.00  0.00     0.161 C 
ATOM      2  C   LIG d   1       4.235  89.095 116.265  0.00  0.00     0.016 C 
ATOM      3  C   LIG d   1       4.615  90.433 116.516  0.00  0.00     0.038 C 
ATOM      4  C   LIG d   1       5.952  90.794 116.742  0.00  0.00     0.028 C 
ATOM      5  C   LIG d   1       6.788  89.674 117.352  0.00  0.00    -0.047 C 
ATOM      6  C   LIG d   1       6.607  88.394 116.503  0.00  0.00     0.091 C 
ENDROOT
BRANCH   1   7
ATOM      7  O   LIG d   1       4.933  87.120 115.247  0.00  0.00    -0.368 OA
BRANCH   7   8
ATOM      8  C   LIG d   1       3.972  87.544 114.250  0.00  0.00     0.119 C 
BRANCH   8   9
ATOM      9  C   LIG d   1       2.951  86.404 114.075  0.00  0.00     0.028 C 
ATOM     10  C   LIG d   1       1.847  86.435 115.145  0.00  0.00     0.006 C 
ENDBRANCH   8   9
BRANCH   8  11
ATOM     11  C   LIG d   1       4.630  87.713 112.877  0.00  0.00     0.028 C 
ATOM     12  C   LIG d   1       5.674  88.841 112.852  0.00  0.00     0.006 C 
ENDBRANCH   8  11
ENDBRANCH   7   8
ENDBRANCH   1   7
BRANCH   6  13
ATOM     13  N   LIG d   1       7.324  87.227 117.078  0.00  0.00    -0.311 N 
ATOM     14  C   LIG d   1       8.579  86.909 116.764  0.00  0.00     0.210 C 
ATOM     15  C   LIG d   1       9.121  85.655 117.456  0.00  0.00     0.109 C 
ATOM     16  O   LIG d   1       9.304  87.566 116.002  0.00  0.00    -0.276 OA
ATOM     17  H   LIG d   1       6.820  86.657 117.730  0.00  0.00     0.149 HD
ENDBRANCH   6  13
BRANCH   5  18
ATOM     18  N   LIG d   1       8.186  90.139 117.405  0.00  0.00     0.381 N 
ATOM     19  H   LIG d   1       8.608  90.048 116.502  0.00  0.00    -0.090 HD
ATOM     20  H   LIG d   1       8.696  89.563 118.051  0.00  0.00    -0.090 HD
ATOM     21  H   LIG d   1       8.218  91.091 117.700  0.00  0.00    -0.090 HD
ENDBRANCH   5  18
BRANCH   3  22
ATOM     22  C   LIG d   1       3.646  91.422 116.583  0.00  0.00     0.382 C 
ATOM     23  O   LIG d   1       2.431  91.114 116.526  0.00  0.00    -0.241 OA
ATOM     24  O   LIG d   1       3.971  92.622 116.656  0.00  0.00    -0.241 OA
ENDBRANCH   3  22
TORSDOF 7
ENDMDL
MODEL 4
REMARK VINA RESULT:      -4.5      5.812      8.813
REMARK  7 active torsions:
REMARK  status: ('A' for Active; 'I' for Inactive)
REMARK    1  A    between atoms: C_2  and  C_3 
REMARK    2  A    between atoms: C_3  and  O_6 
REMARK    3  A    between atoms: C_3  and  C_4 
REMARK    4  A    between atoms: C_7  and  O_6 
REMARK    5  A    between atoms: C_9  and  C_10 
REMARK    6  A    between atoms: N_15  and  C_14 
REMARK    7  A    between atoms: N_20  and  C_19 
REMARK       I    between atoms: C_22  and  N_20 
ROOT
ATOM      1  C   LIG d   1       1.691  88.299 116.340  0.00  0.00     0.161 C 
ATOM      2  C   LIG d   1       0.361  88.007 116.685  0.00  0.00     0.016 C 
ATOM      3  C   LIG d   1      -0.536  88.965 117.210  0.00  0.00     0.038 C 
ATOM      4  C   LIG d   1      -0.205  90.326 117.286  0.00  0.00     0.028 C 
ATOM      5  C   LIG d   1       1.292  90.580 117.422  0.00  0.00    -0.047 C 
ATOM      6  C   LIG d   1       2.036  89.803 116.311  0.00  0.00     0.091 C 
ENDROOT
BRANCH   1   7
ATOM      7  O   LIG d   1       2.014  87.687 115.076  0.00  0.00    -0.368 OA
BRANCH   7   8
ATOM      8  C   LIG d   1       2.868  86.518 115.134  0.00  0.00     0.119 C 
BRANCH   8   9
ATOM      9  C   LIG d   1       3.481  86.462 116.546  0.00  0.00     0.028 C 
ATOM     10  C   LIG d   1       5.017  86.527 116.523  0.00  0.00     0.006 C 
ENDBRANCH   8   9
BRANCH   8  11
ATOM     11  C   LIG d   1       4.059  86.650 114.180  0.00  0.00     0.028 C 
ATOM     12  C   LIG d   1       3.641  87.048 112.756  0.00  0.00     0.006 C 
ENDBRANCH   8  11
ENDBRANCH   7   8
ENDBRANCH   1   7
BRANCH   6  13
ATOM     13  N   LIG d   1       3.512  89.929 116.423  0.00  0.00    -0.311 N 
ATOM     14  C   LIG d   1       4.312  90.134 115.378  0.00  0.00     0.210 C 
ATOM     15  C   LIG d   1       5.805  90.212 115.712  0.00  0.00     0.109 C 
ATOM     16  O   LIG d   1       3.924  90.290 114.210  0.00  0.00    -0.276 OA
ATOM     17  H   LIG d   1       3.909  89.846 117.339  0.00  0.00     0.149 HD
ENDBRANCH   6  13
BRANCH   5  18
ATOM     18  N   LIG d   1       1.506  92.037 117.351  0.00  0.00     0.381 N 
ATOM     19  H   LIG d   1       1.596  92.412 118.275  0.00  0.00    -0.090 HD
ATOM     20  H   LIG d   1       0.706  92.462 116.916  0.00  0.00    -0.090 HD
ATOM     21  H   LIG d   1       2.326  92.236 116.822  0.00  0.00    -0.090 HD
ENDBRANCH   5  18
BRANCH   3  22
ATOM     22  C   LIG d   1      -1.765  88.557 117.704  0.00  0.00     0.382 C 
ATOM     23  O   LIG d   1      -2.819  88.875 117.103  0.00  0.00    -0.241 OA
ATOM     24  O   LIG d   1      -1.837  87.913 118.768  0.00  0.00    -0.241 OA
ENDBRANCH   3  22
TORSDOF 7
ENDMDL
MODEL 5
REMARK VINA RESULT:      -4.5      7.163     10.003
REMARK  7 active torsions:
REMARK  status: ('A' for Active; 'I' for Inactive)
REMARK    1  A    between atoms: C_2  and  C_3 
REMARK    2  A    between atoms: C_3  and  O_6 
REMARK    3  A    between atoms: C_3  and  C_4 
REMARK    4  A    between atoms: C_7  and  O_6 
REMARK    5  A    between atoms: C_9  and  C_10 
REMARK    6  A    between atoms: N_15  and  C_14 
REMARK    7  A    between atoms: N_20  and  C_19 
REMARK       I    between atoms: C_22  and  N_20 
ROOT
ATOM      1  C   LIG d   1       3.027  89.867 116.423  0.00  0.00     0.161 C 
ATOM      2  C   LIG d   1       3.118  89.351 115.120  0.00  0.00     0.016 C 
ATOM      3  C   LIG d   1       4.323  89.310 114.381  0.00  0.00     0.038 C 
ATOM      4  C   LIG d   1       5.557  89.646 114.958  0.00  0.00     0.028 C 
ATOM      5  C   LIG d   1       5.439  90.646 116.103  0.00  0.00    -0.047 C 
ATOM      6  C   LIG d   1       4.383  90.134 117.109  0.00  0.00     0.091 C 
ENDROOT
BRANCH   1   7
ATOM      7  O   LIG d   1       2.217  88.995 117.238  0.00  0.00    -0.368 OA
BRANCH   7   8
ATOM      8  C   LIG d   1       0.906  89.495 117.596  0.00  0.00     0.119 C 
BRANCH   8   9
ATOM      9  C   LIG d   1      -0.135  88.505 117.040  0.00  0.00     0.028 C 
ATOM     10  C   LIG d   1       0.465  87.116 116.764  0.00  0.00     0.006 C 
ENDBRANCH   8   9
BRANCH   8  11
ATOM     11  C   LIG d   1       0.608  90.828 116.903  0.00  0.00     0.028 C 
ATOM     12  C   LIG d   1       0.165  91.925 117.884  0.00  0.00     0.006 C 
ENDBRANCH   8  11
ENDBRANCH   7   8
ENDBRANCH   1   7
BRANCH   6  13
ATOM     13  N   LIG d   1       4.145  91.094 118.218  0.00  0.00    -0.311 N 
ATOM     14  C   LIG d   1       3.798  92.366 118.025  0.00  0.00     0.210 C 
ATOM     15  C   LIG d   1       3.621  93.189 119.305  0.00  0.00     0.109 C 
ATOM     16  O   LIG d   1       3.589  92.881 116.917  0.00  0.00    -0.276 OA
ATOM     17  H   LIG d   1       4.262  90.751 119.151  0.00  0.00     0.149 HD
ENDBRANCH   6  13
BRANCH   5  18
ATOM     18  N   LIG d   1       6.780  90.800 116.700  0.00  0.00     0.381 N 
ATOM     19  H   LIG d   1       7.468  90.856 115.976  0.00  0.00    -0.090 HD
ATOM     20  H   LIG d   1       6.979  89.992 117.263  0.00  0.00    -0.090 HD
ATOM     21  H   LIG d   1       6.810  91.622 117.262  0.00  0.00    -0.090 HD
ENDBRANCH   5  18
BRANCH   3  22
ATOM     22  C   LIG d   1       4.295  88.968 113.038  0.00  0.00     0.382 C 
ATOM     23  O   LIG d   1       3.199  88.903 112.431  0.00  0.00    -0.241 OA
ATOM     24  O   LIG d   1       5.347  88.681 112.437  0.00  0.00    -0.241 OA
ENDBRANCH   3  22
TORSDOF 7
ENDMDL
MODEL 6
REMARK VINA RESULT:      -4.5      5.023      7.708
REMARK  7 active torsions:
REMARK  status: ('A' for Active; 'I' for Inactive)
REMARK    1  A    between atoms: C_2  and  C_3 
REMARK    2  A    between atoms: C_3  and  O_6 
REMARK    3  A    between atoms: C_3  and  C_4 
REMARK    4  A    between atoms: C_7  and  O_6 
REMARK    5  A    between atoms: C_9  and  C_10 
REMARK    6  A    between atoms: N_15  and  C_14 
REMARK    7  A    between atoms: N_20  and  C_19 
REMARK       I    between atoms: C_22  and  N_20 
ROOT
ATOM      1  C   LIG d   1       1.022  89.451 116.917  0.00  0.00     0.161 C 
ATOM      2  C   LIG d   1      -0.374  89.343 117.037  0.00  0.00     0.016 C 
ATOM      3  C   LIG d   1      -1.195  90.383 117.531  0.00  0.00     0.038 C 
ATOM      4  C   LIG d   1      -0.689  91.664 117.797  0.00  0.00     0.028 C 
ATOM      5  C   LIG d   1       0.790  91.666 118.169  0.00  0.00    -0.047 C 
ATOM      6  C   LIG d   1       1.578  90.879 117.097  0.00  0.00     0.091 C 
ENDROOT
BRANCH   1   7
ATOM      7  O   LIG d   1       1.446  88.904 115.652  0.00  0.00    -0.368 OA
BRANCH   7   8
ATOM      8  C   LIG d   1       2.278  87.720 115.717  0.00  0.00     0.119 C 
BRANCH   8   9
ATOM      9  C   LIG d   1       3.269  87.785 114.539  0.00  0.00     0.028 C 
ATOM     10  C   LIG d   1       3.708  89.224 114.220  0.00  0.00     0.006 C 
ENDBRANCH   8   9
BRANCH   8  11
ATOM     11  C   LIG d   1       1.457  86.448 115.487  0.00  0.00     0.028 C 
ATOM     12  C   LIG d   1       1.187  85.669 116.784  0.00  0.00     0.006 C 
ENDBRANCH   8  11
ENDBRANCH   7   8
ENDBRANCH   1   7
BRANCH   6  13
ATOM     13  N   LIG d   1       3.022  90.760 117.429  0.00  0.00    -0.311 N 
ATOM     14  C   LIG d   1       3.932  91.667 117.076  0.00  0.00     0.210 C 
ATOM     15  C   LIG d   1       5.367  91.341 117.500  0.00  0.00     0.109 C 
ATOM     16  O   LIG d   1       3.682  92.725 116.480  0.00  0.00    -0.276 OA
ATOM     17  H   LIG d   1       3.308  89.947 117.938  0.00  0.00     0.149 HD
ENDBRANCH   6  13
BRANCH   5  18
ATOM     18  N   LIG d   1       1.219  93.073 118.285  0.00  0.00     0.381 N 
ATOM     19  H   LIG d   1       1.717  93.206 119.142  0.00  0.00    -0.090 HD
ATOM     20  H   LIG d   1       0.404  93.661 118.299  0.00  0.00    -0.090 HD
ATOM     21  H   LIG d   1       1.800  93.317 117.513  0.00  0.00    -0.090 HD
ENDBRANCH   5  18
BRANCH   3  22
ATOM     22  C   LIG d   1      -2.532  90.134 117.801  0.00  0.00     0.382 C 
ATOM     23  O   LIG d   1      -3.395  91.010 117.552  0.00  0.00    -0.241 OA
ATOM     24  O   LIG d   1      -2.880  89.062 118.331  0.00  0.00    -0.241 OA
ENDBRANCH   3  22
TORSDOF 7
ENDMDL
MODEL 7
REMARK VINA RESULT:      -4.4      5.427      8.582
REMARK  7 active torsions:
REMARK  status: ('A' for Active; 'I' for Inactive)
REMARK    1  A    between atoms: C_2  and  C_3 
REMARK    2  A    between atoms: C_3  and  O_6 
REMARK    3  A    between atoms: C_3  and  C_4 
REMARK    4  A    between atoms: C_7  and  O_6 
REMARK    5  A    between atoms: C_9  and  C_10 
REMARK    6  A    between atoms: N_15  and  C_14 
REMARK    7  A    between atoms: N_20  and  C_19 
REMARK       I    between atoms: C_22  and  N_20 
ROOT
ATOM      1  C   LIG d   1       0.852  90.081 116.845  0.00  0.00     0.161 C 
ATOM      2  C   LIG d   1       1.534  89.082 116.131  0.00  0.00     0.016 C 
ATOM      3  C   LIG d   1       2.898  89.177 115.768  0.00  0.00     0.038 C 
ATOM      4  C   LIG d   1       3.716  90.219 116.230  0.00  0.00     0.028 C 
ATOM      5  C   LIG d   1       2.951  91.504 116.528  0.00  0.00    -0.047 C 
ATOM      6  C   LIG d   1       1.757  91.174 117.452  0.00  0.00     0.091 C 
ENDROOT
BRANCH   1   7
ATOM      7  O   LIG d   1       0.036  89.480 117.869  0.00  0.00    -0.368 OA
BRANCH   7   8
ATOM      8  C   LIG d   1      -0.809  88.381 117.447  0.00  0.00     0.119 C 
BRANCH   8   9
ATOM      9  C   LIG d   1      -2.266  88.881 117.476  0.00  0.00     0.028 C 
ATOM     10  C   LIG d   1      -2.748  89.206 118.900  0.00  0.00     0.006 C 
ENDBRANCH   8   9
BRANCH   8  11
ATOM     11  C   LIG d   1      -0.758  87.223 118.448  0.00  0.00     0.028 C 
ATOM     12  C   LIG d   1       0.170  86.084 117.994  0.00  0.00     0.006 C 
ENDBRANCH   8  11
ENDBRANCH   7   8
ENDBRANCH   1   7
BRANCH   6  13
ATOM     13  N   LIG d   1       0.907  92.361 117.726  0.00  0.00    -0.311 N 
ATOM     14  C   LIG d   1       1.106  93.185 118.753  0.00  0.00     0.210 C 
ATOM     15  C   LIG d   1       0.101  94.337 118.863  0.00  0.00     0.109 C 
ATOM     16  O   LIG d   1       2.038  93.090 119.565  0.00  0.00    -0.276 OA
ATOM     17  H   LIG d   1       0.145  92.531 117.098  0.00  0.00     0.149 HD
ENDBRANCH   6  13
BRANCH   5  18
ATOM     18  N   LIG d   1       3.901  92.459 117.130  0.00  0.00     0.381 N 
ATOM     19  H   LIG d   1       3.600  93.395 116.948  0.00  0.00    -0.090 HD
ATOM     20  H   LIG d   1       4.804  92.330 116.706  0.00  0.00    -0.090 HD
ATOM     21  H   LIG d   1       3.962  92.306 118.112  0.00  0.00    -0.090 HD
ENDBRANCH   5  18
BRANCH   3  22
ATOM     22  C   LIG d   1       3.445  88.243 114.902  0.00  0.00     0.382 C 
ATOM     23  O   LIG d   1       2.940  88.070 113.767  0.00  0.00    -0.241 OA
ATOM     24  O   LIG d   1       4.411  87.541 115.258  0.00  0.00    -0.241 OA
ENDBRANCH   3  22
TORSDOF 7
ENDMDL
MODEL 8
REMARK VINA RESULT:      -4.4      2.359      4.795
REMARK  7 active torsions:
REMARK  status: ('A' for Active; 'I' for Inactive)
REMARK    1  A    between atoms: C_2  and  C_3 
REMARK    2  A    between atoms: C_3  and  O_6 
REMARK    3  A    between atoms: C_3  and  C_4 
REMARK    4  A    between atoms: C_7  and  O_6 
REMARK    5  A    between atoms: C_9  and  C_10 
REMARK    6  A    between atoms: N_15  and  C_14 
REMARK    7  A    between atoms: N_20  and  C_19 
REMARK       I    between atoms: C_22  and  N_20 
ROOT
ATOM      1  C   LIG d   1      -4.356  90.681 117.361  0.00  0.00     0.161 C 
ATOM      2  C   LIG d   1      -5.392  90.067 116.637  0.00  0.00     0.016 C 
ATOM      3  C   LIG d   1      -6.636  90.689 116.380  0.00  0.00     0.038 C 
ATOM      4  C   LIG d   1      -6.873  92.033 116.702  0.00  0.00     0.028 C 
ATOM      5  C   LIG d   1      -6.041  92.530 117.880  0.00  0.00    -0.047 C 
ATOM      6  C   LIG d   1      -4.556  92.188 117.624  0.00  0.00     0.091 C 
ENDROOT
BRANCH   1   7
ATOM      7  O   LIG d   1      -3.096  90.450 116.701  0.00  0.00    -0.368 OA
BRANCH   7   8
ATOM      8  C   LIG d   1      -2.163  89.585 117.394  0.00  0.00     0.119 C 
BRANCH   8   9
ATOM      9  C   LIG d   1      -2.716  89.350 118.813  0.00  0.00     0.028 C 
ATOM     10  C   LIG d   1      -2.267  88.002 119.402  0.00  0.00     0.006 C 
ENDBRANCH   8   9
BRANCH   8  11
ATOM     11  C   LIG d   1      -0.809  90.273 117.595  0.00  0.00     0.028 C 
ATOM     12  C   LIG d   1       0.267  89.766 116.622  0.00  0.00     0.006 C 
ENDBRANCH   8  11
ENDBRANCH   7   8
ENDBRANCH   1   7
BRANCH   6  13
ATOM     13  N   LIG d   1      -3.683  92.564 118.767  0.00  0.00    -0.311 N 
ATOM     14  C   LIG d   1      -2.524  93.204 118.624  0.00  0.00     0.210 C 
ATOM     15  C   LIG d   1      -1.771  93.479 119.930  0.00  0.00     0.109 C 
ATOM     16  O   LIG d   1      -2.062  93.600 117.543  0.00  0.00    -0.276 OA
ATOM     17  H   LIG d   1      -3.996  92.310 119.683  0.00  0.00     0.149 HD
ENDBRANCH   6  13
BRANCH   5  18
ATOM     18  N   LIG d   1      -6.286  93.978 118.018  0.00  0.00     0.381 N 
ATOM     19  H   LIG d   1      -7.255  94.174 117.868  0.00  0.00    -0.090 HD
ATOM     20  H   LIG d   1      -5.753  94.466 117.319  0.00  0.00    -0.090 HD
ATOM     21  H   LIG d   1      -6.014  94.285 118.927  0.00  0.00    -0.090 HD
ENDBRANCH   5  18
BRANCH   3  22
ATOM     22  C   LIG d   1      -7.672  89.951 115.829  0.00  0.00     0.382 C 
ATOM     23  O   LIG d   1      -7.841  88.755 116.171  0.00  0.00    -0.241 OA
ATOM     24  O   LIG d   1      -8.413  90.451 114.962  0.00  0.00    -0.241 OA
ENDBRANCH   3  22
TORSDOF 7
ENDMDL
MODEL 9
REMARK VINA RESULT:      -4.3      8.339     10.572
REMARK  7 active torsions:
REMARK  status: ('A' for Active; 'I' for Inactive)
REMARK    1  A    between atoms: C_2  and  C_3 
REMARK    2  A    between atoms: C_3  and  O_6 
REMARK    3  A    between atoms: C_3  and  C_4 
REMARK    4  A    between atoms: C_7  and  O_6 
REMARK    5  A    between atoms: C_9  and  C_10 
REMARK    6  A    between atoms: N_15  and  C_14 
REMARK    7  A    between atoms: N_20  and  C_19 
REMARK       I    between atoms: C_22  and  N_20 
ROOT
ATOM      1  C   LIG d   1       4.298  88.033 116.500  0.00  0.00     0.161 C 
ATOM      2  C   LIG d   1       4.607  89.097 117.363  0.00  0.00     0.016 C 
ATOM      3  C   LIG d   1       5.129  90.334 116.918  0.00  0.00     0.038 C 
ATOM      4  C   LIG d   1       5.237  90.645 115.555  0.00  0.00     0.028 C 
ATOM      5  C   LIG d   1       5.411  89.419 114.665  0.00  0.00    -0.047 C 
ATOM      6  C   LIG d   1       4.304  88.395 115.000  0.00  0.00     0.091 C 
ENDROOT
BRANCH   1   7
ATOM      7  O   LIG d   1       3.031  87.455 116.871  0.00  0.00    -0.368 OA
BRANCH   7   8
ATOM      8  C   LIG d   1       1.872  87.946 116.154  0.00  0.00     0.119 C 
BRANCH   8   9
ATOM      9  C   LIG d   1       1.065  88.829 117.125  0.00  0.00     0.028 C 
ATOM     10  C   LIG d   1       0.736  90.208 116.529  0.00  0.00     0.006 C 
ENDBRANCH   8   9
BRANCH   8  11
ATOM     11  C   LIG d   1       0.929  86.802 115.768  0.00  0.00     0.028 C 
ATOM     12  C   LIG d   1       1.622  85.430 115.779  0.00  0.00     0.006 C 
ENDBRANCH   8  11
ENDBRANCH   7   8
ENDBRANCH   1   7
BRANCH   6  13
ATOM     13  N   LIG d   1       4.451  87.130 114.233  0.00  0.00    -0.311 N 
ATOM     14  C   LIG d   1       3.836  86.899 113.074  0.00  0.00     0.210 C 
ATOM     15  C   LIG d   1       4.109  85.523 112.460  0.00  0.00     0.109 C 
ATOM     16  O   LIG d   1       3.116  87.716 112.481  0.00  0.00    -0.276 OA
ATOM     17  H   LIG d   1       5.042  86.424 114.627  0.00  0.00     0.149 HD
ENDBRANCH   6  13
BRANCH   5  18
ATOM     18  N   LIG d   1       5.371  89.877 113.263  0.00  0.00     0.381 N 
ATOM     19  H   LIG d   1       5.918  89.265 112.691  0.00  0.00    -0.090 HD
ATOM     20  H   LIG d   1       5.769  90.798 113.210  0.00  0.00    -0.090 HD
ATOM     21  H   LIG d   1       4.429  89.895 112.937  0.00  0.00    -0.090 HD
ENDBRANCH   5  18
BRANCH   3  22
ATOM     22  C   LIG d   1       5.589  91.259 117.843  0.00  0.00     0.382 C 
ATOM     23  O   LIG d   1       4.795  91.760 118.676  0.00  0.00    -0.241 OA
ATOM     24  O   LIG d   1       6.777  91.632 117.828  0.00  0.00    -0.241 OA
ENDBRANCH   3  22
TORSDOF 7
ENDMDL
