MODEL 1
REMARK VINA RESULT:      -5.4      0.000      0.000
REMARK  7 active torsions:
REMARK  status: ('A' for Active; 'I' for Inactive)
REMARK    1  A    between atoms: C_2  and  C_3 
REMARK    2  A    between atoms: C_3  and  O_6 
REMARK    3  A    between atoms: C_3  and  C_4 
REMARK    4  A    between atoms: C_7  and  O_6 
REMARK    5  A    between atoms: C_9  and  C_10 
REMARK    6  A    between atoms: N_15  and  C_14 
REMARK    7  A    between atoms: N_20  and  C_19 
REMARK       I    between atoms: C_22  and  N_20 
ROOT
ATOM      1  C   LIG d   1      -6.488  91.846 118.899  0.00  0.00     0.161 C 
ATOM      2  C   LIG d   1      -7.655  92.619 118.786  0.00  0.00     0.016 C 
ATOM      3  C   LIG d   1      -7.684  94.019 118.985  0.00  0.00     0.038 C 
ATOM      4  C   LIG d   1      -6.510  94.766 119.164  0.00  0.00     0.028 C 
ATOM      5  C   LIG d   1      -5.371  93.966 119.787  0.00  0.00    -0.047 C 
ATOM      6  C   LIG d   1      -5.179  92.659 118.984  0.00  0.00     0.091 C 
ENDROOT
BRANCH   1   7
ATOM      7  O   LIG d   1      -6.420  90.901 117.813  0.00  0.00    -0.368 OA
BRANCH   7   8
ATOM      8  C   LIG d   1      -6.371  91.465 116.479  0.00  0.00     0.119 C 
BRANCH   8   9
ATOM      9  C   LIG d   1      -7.765  91.284 115.848  0.00  0.00     0.028 C 
ATOM     10  C   LIG d   1      -8.257  89.829 115.920  0.00  0.00     0.006 C 
ENDBRANCH   8   9
BRANCH   8  11
ATOM     11  C   LIG d   1      -5.412  90.680 115.578  0.00  0.00     0.028 C 
ATOM     12  C   LIG d   1      -4.249  90.045 116.355  0.00  0.00     0.006 C 
ENDBRANCH   8  11
ENDBRANCH   7   8
ENDBRANCH   1   7
BRANCH   6  13
ATOM     13  N   LIG d   1      -4.140  91.777 119.577  0.00  0.00    -0.311 N 
ATOM     14  C   LIG d   1      -2.861  91.799 119.205  0.00  0.00     0.210 C 
ATOM     15  C   LIG d   1      -1.960  90.794 119.930  0.00  0.00     0.109 C 
ATOM     16  O   LIG d   1      -2.381  92.577 118.367  0.00  0.00    -0.276 OA
ATOM     17  H   LIG d   1      -4.436  91.136 120.287  0.00  0.00     0.149 HD
ENDBRANCH   6  13
BRANCH   5  18
ATOM     18  N   LIG d   1      -4.172  94.825 119.789  0.00  0.00     0.381 N 
ATOM     19  H   LIG d   1      -3.349  94.257 119.756  0.00  0.00    -0.090 HD
ATOM     20  H   LIG d   1      -4.155  95.357 120.641  0.00  0.00    -0.090 HD
ATOM     21  H   LIG d   1      -4.192  95.440 119.005  0.00  0.00    -0.090 HD
ENDBRANCH   5  18
BRANCH   3  22
ATOM     22  C   LIG d   1      -8.901  94.679 119.046  0.00  0.00     0.382 C 
ATOM     23  O   LIG d   1      -8.957  95.913 118.825  0.00  0.00    -0.241 OA
ATOM     24  O   LIG d   1      -9.938  94.066 119.362  0.00  0.00    -0.241 OA
ENDBRANCH   3  22
TORSDOF 7
ENDMDL
MODEL 2
REMARK VINA RESULT:      -4.8      2.264      5.658
REMARK  7 active torsions:
REMARK  status: ('A' for Active; 'I' for Inactive)
REMARK    1  A    between atoms: C_2  and  C_3 
REMARK    2  A    between atoms: C_3  and  O_6 
REMARK    3  A    between atoms: C_3  and  C_4 
REMARK    4  A    between atoms: C_7  and  O_6 
REMARK    5  A    between atoms: C_9  and  C_10 
REMARK    6  A    between atoms: N_15  and  C_14 
REMARK    7  A    between atoms: N_20  and  C_19 
REMARK       I    between atoms: C_22  and  N_20 
ROOT
ATOM      1  C   LIG d   1      -5.723  91.906 118.510  0.00  0.00     0.161 C 
ATOM      2  C   LIG d   1      -4.511  92.132 119.184  0.00  0.00     0.016 C 
ATOM      3  C   LIG d   1      -3.272  91.603 118.755  0.00  0.00     0.038 C 
ATOM      4  C   LIG d   1      -3.136  90.933 117.530  0.00  0.00     0.028 C 
ATOM      5  C   LIG d   1      -4.419  90.248 117.068  0.00  0.00    -0.047 C 
ATOM      6  C   LIG d   1      -5.577  91.271 117.111  0.00  0.00     0.091 C 
ENDROOT
BRANCH   1   7
ATOM      7  O   LIG d   1      -6.471  93.136 118.426  0.00  0.00    -0.368 OA
BRANCH   7   8
ATOM      8  C   LIG d   1      -6.811  93.763 119.687  0.00  0.00     0.119 C 
BRANCH   8   9
ATOM      9  C   LIG d   1      -8.348  93.806 119.783  0.00  0.00     0.028 C 
ATOM     10  C   LIG d   1      -9.010  94.160 118.441  0.00  0.00     0.006 C 
ENDBRANCH   8   9
BRANCH   8  11
ATOM     11  C   LIG d   1      -6.360  95.226 119.721  0.00  0.00     0.028 C 
ATOM     12  C   LIG d   1      -4.845  95.378 119.926  0.00  0.00     0.006 C 
ENDBRANCH   8  11
ENDBRANCH   7   8
ENDBRANCH   1   7
BRANCH   6  13
ATOM     13  N   LIG d   1      -6.885  90.662 116.755  0.00  0.00    -0.311 N 
ATOM     14  C   LIG d   1      -7.364  90.627 115.513  0.00  0.00     0.210 C 
ATOM     15  C   LIG d   1      -8.740  89.970 115.368  0.00  0.00     0.109 C 
ATOM     16  O   LIG d   1      -6.765  91.049 114.512  0.00  0.00    -0.276 OA
ATOM     17  H   LIG d   1      -7.423  90.267 117.502  0.00  0.00     0.149 HD
ENDBRANCH   6  13
BRANCH   5  18
ATOM     18  N   LIG d   1      -4.174  89.708 115.718  0.00  0.00     0.381 N 
ATOM     19  H   LIG d   1      -3.912  90.449 115.099  0.00  0.00    -0.090 HD
ATOM     20  H   LIG d   1      -5.024  89.296 115.374  0.00  0.00    -0.090 HD
ATOM     21  H   LIG d   1      -3.453  89.021 115.750  0.00  0.00    -0.090 HD
ENDBRANCH   5  18
BRANCH   3  22
ATOM     22  C   LIG d   1      -2.159  91.708 119.575  0.00  0.00     0.382 C 
ATOM     23  O   LIG d   1      -1.745  92.838 119.928  0.00  0.00    -0.241 OA
ATOM     24  O   LIG d   1      -1.538  90.688 119.930  0.00  0.00    -0.241 OA
ENDBRANCH   3  22
TORSDOF 7
ENDMDL
MODEL 3
REMARK VINA RESULT:      -4.5      2.253      4.277
REMARK  7 active torsions:
REMARK  status: ('A' for Active; 'I' for Inactive)
REMARK    1  A    between atoms: C_2  and  C_3 
REMARK    2  A    between atoms: C_3  and  O_6 
REMARK    3  A    between atoms: C_3  and  C_4 
REMARK    4  A    between atoms: C_7  and  O_6 
REMARK    5  A    between atoms: C_9  and  C_10 
REMARK    6  A    between atoms: N_15  and  C_14 
REMARK    7  A    between atoms: N_20  and  C_19 
REMARK       I    between atoms: C_22  and  N_20 
ROOT
ATOM      1  C   LIG d   1      -5.447  92.502 119.070  0.00  0.00     0.161 C 
ATOM      2  C   LIG d   1      -4.911  93.743 119.454  0.00  0.00     0.016 C 
ATOM      3  C   LIG d   1      -5.697  94.901 119.653  0.00  0.00     0.038 C 
ATOM      4  C   LIG d   1      -7.099  94.860 119.627  0.00  0.00     0.028 C 
ATOM      5  C   LIG d   1      -7.656  93.745 118.748  0.00  0.00    -0.047 C 
ATOM      6  C   LIG d   1      -6.985  92.410 119.146  0.00  0.00     0.091 C 
ENDROOT
BRANCH   1   7
ATOM      7  O   LIG d   1      -4.843  91.448 119.846  0.00  0.00    -0.368 OA
BRANCH   7   8
ATOM      8  C   LIG d   1      -3.892  90.607 119.148  0.00  0.00     0.119 C 
BRANCH   8   9
ATOM      9  C   LIG d   1      -2.525  90.783 119.836  0.00  0.00     0.028 C 
ATOM     10  C   LIG d   1      -1.570  91.675 119.025  0.00  0.00     0.006 C 
ENDBRANCH   8   9
BRANCH   8  11
ATOM     11  C   LIG d   1      -3.684  91.079 117.706  0.00  0.00     0.028 C 
ATOM     12  C   LIG d   1      -3.829  89.944 116.680  0.00  0.00     0.006 C 
ENDBRANCH   8  11
ENDBRANCH   7   8
ENDBRANCH   1   7
BRANCH   6  13
ATOM     13  N   LIG d   1      -7.411  91.281 118.278  0.00  0.00    -0.311 N 
ATOM     14  C   LIG d   1      -7.315  91.300 116.950  0.00  0.00     0.210 C 
ATOM     15  C   LIG d   1      -7.830  90.041 116.246  0.00  0.00     0.109 C 
ATOM     16  O   LIG d   1      -6.822  92.227 116.290  0.00  0.00    -0.276 OA
ATOM     17  H   LIG d   1      -7.794  90.476 118.733  0.00  0.00     0.149 HD
ENDBRANCH   6  13
BRANCH   5  18
ATOM     18  N   LIG d   1      -9.121  93.730 118.922  0.00  0.00     0.381 N 
ATOM     19  H   LIG d   1      -9.370  93.080 119.641  0.00  0.00    -0.090 HD
ATOM     20  H   LIG d   1      -9.547  93.430 118.063  0.00  0.00    -0.090 HD
ATOM     21  H   LIG d   1      -9.445  94.641 119.162  0.00  0.00    -0.090 HD
ENDBRANCH   5  18
BRANCH   3  22
ATOM     22  C   LIG d   1      -5.078  96.127 119.841  0.00  0.00     0.382 C 
ATOM     23  O   LIG d   1      -5.768  97.171 119.930  0.00  0.00    -0.241 OA
ATOM     24  O   LIG d   1      -3.835  96.209 119.879  0.00  0.00    -0.241 OA
ENDBRANCH   3  22
TORSDOF 7
ENDMDL
MODEL 4
REMARK VINA RESULT:      -4.5      4.414      7.207
REMARK  7 active torsions:
REMARK  status: ('A' for Active; 'I' for Inactive)
REMARK    1  A    between atoms: C_2  and  C_3 
REMARK    2  A    between atoms: C_3  and  O_6 
REMARK    3  A    between atoms: C_3  and  C_4 
REMARK    4  A    between atoms: C_7  and  O_6 
REMARK    5  A    between atoms: C_9  and  C_10 
REMARK    6  A    between atoms: N_15  and  C_14 
REMARK    7  A    between atoms: N_20  and  C_19 
REMARK       I    between atoms: C_22  and  N_20 
ROOT
ATOM      1  C   LIG d   1       0.189  90.630 118.136  0.00  0.00     0.161 C 
ATOM      2  C   LIG d   1      -1.128  90.262 117.814  0.00  0.00     0.016 C 
ATOM      3  C   LIG d   1      -2.197  91.184 117.736  0.00  0.00     0.038 C 
ATOM      4  C   LIG d   1      -1.990  92.569 117.827  0.00  0.00     0.028 C 
ATOM      5  C   LIG d   1      -0.764  92.944 118.653  0.00  0.00    -0.047 C 
ATOM      6  C   LIG d   1       0.455  92.150 118.130  0.00  0.00     0.091 C 
ENDROOT
BRANCH   1   7
ATOM      7  O   LIG d   1       1.113  89.956 117.260  0.00  0.00    -0.368 OA
BRANCH   7   8
ATOM      8  C   LIG d   1       1.605  88.672 117.717  0.00  0.00     0.119 C 
BRANCH   8   9
ATOM      9  C   LIG d   1       2.994  88.904 118.341  0.00  0.00     0.028 C 
ATOM     10  C   LIG d   1       4.073  89.191 117.283  0.00  0.00     0.006 C 
ENDBRANCH   8   9
BRANCH   8  11
ATOM     11  C   LIG d   1       1.842  87.716 116.544  0.00  0.00     0.028 C 
ATOM     12  C   LIG d   1       0.555  87.019 116.075  0.00  0.00     0.006 C 
ENDBRANCH   8  11
ENDBRANCH   7   8
ENDBRANCH   1   7
BRANCH   6  13
ATOM     13  N   LIG d   1       1.679  92.395 118.937  0.00  0.00    -0.311 N 
ATOM     14  C   LIG d   1       2.882  92.596 118.401  0.00  0.00     0.210 C 
ATOM     15  C   LIG d   1       4.013  92.810 119.412  0.00  0.00     0.109 C 
ATOM     16  O   LIG d   1       3.114  92.649 117.184  0.00  0.00    -0.276 OA
ATOM     17  H   LIG d   1       1.576  92.400 119.933  0.00  0.00     0.149 HD
ENDBRANCH   6  13
BRANCH   5  18
ATOM     18  N   LIG d   1      -0.589  94.405 118.551  0.00  0.00     0.381 N 
ATOM     19  H   LIG d   1       0.345  94.615 118.258  0.00  0.00    -0.090 HD
ATOM     20  H   LIG d   1      -0.735  94.814 119.457  0.00  0.00    -0.090 HD
ATOM     21  H   LIG d   1      -1.241  94.782 117.899  0.00  0.00    -0.090 HD
ENDBRANCH   5  18
BRANCH   3  22
ATOM     22  C   LIG d   1      -3.497  90.720 117.603  0.00  0.00     0.382 C 
ATOM     23  O   LIG d   1      -3.946  89.873 118.413  0.00  0.00    -0.241 OA
ATOM     24  O   LIG d   1      -4.211  91.103 116.658  0.00  0.00    -0.241 OA
ENDBRANCH   3  22
TORSDOF 7
ENDMDL
MODEL 5
REMARK VINA RESULT:      -4.3      6.060      8.572
REMARK  7 active torsions:
REMARK  status: ('A' for Active; 'I' for Inactive)
REMARK    1  A    between atoms: C_2  and  C_3 
REMARK    2  A    between atoms: C_3  and  O_6 
REMARK    3  A    between atoms: C_3  and  C_4 
REMARK    4  A    between atoms: C_7  and  O_6 
REMARK    5  A    between atoms: C_9  and  C_10 
REMARK    6  A    between atoms: N_15  and  C_14 
REMARK    7  A    between atoms: N_20  and  C_19 
REMARK       I    between atoms: C_22  and  N_20 
ROOT
ATOM      1  C   LIG d   1       1.253  89.324 116.764  0.00  0.00     0.161 C 
ATOM      2  C   LIG d   1      -0.144  89.414 116.878  0.00  0.00     0.016 C 
ATOM      3  C   LIG d   1      -0.814  90.566 117.352  0.00  0.00     0.038 C 
ATOM      4  C   LIG d   1      -0.136  91.767 117.603  0.00  0.00     0.028 C 
ATOM      5  C   LIG d   1       1.327  91.568 117.985  0.00  0.00    -0.047 C 
ATOM      6  C   LIG d   1       2.002  90.663 116.929  0.00  0.00     0.091 C 
ENDROOT
BRANCH   1   7
ATOM      7  O   LIG d   1       1.603  88.705 115.511  0.00  0.00    -0.368 OA
BRANCH   7   8
ATOM      8  C   LIG d   1       2.244  87.409 115.597  0.00  0.00     0.119 C 
BRANCH   8   9
ATOM      9  C   LIG d   1       3.237  87.305 114.423  0.00  0.00     0.028 C 
ATOM     10  C   LIG d   1       4.673  87.016 114.893  0.00  0.00     0.006 C 
ENDBRANCH   8   9
BRANCH   8  11
ATOM     11  C   LIG d   1       1.239  86.274 115.380  0.00  0.00     0.028 C 
ATOM     12  C   LIG d   1       1.238  85.747 113.937  0.00  0.00     0.006 C 
ENDBRANCH   8  11
ENDBRANCH   7   8
ENDBRANCH   1   7
BRANCH   6  13
ATOM     13  N   LIG d   1       3.414  90.349 117.271  0.00  0.00    -0.311 N 
ATOM     14  C   LIG d   1       4.415  90.422 116.395  0.00  0.00     0.210 C 
ATOM     15  C   LIG d   1       5.789  90.036 116.949  0.00  0.00     0.109 C 
ATOM     16  O   LIG d   1       4.299  90.800 115.219  0.00  0.00    -0.276 OA
ATOM     17  H   LIG d   1       3.603  90.063 118.212  0.00  0.00     0.149 HD
ENDBRANCH   6  13
BRANCH   5  18
ATOM     18  N   LIG d   1       1.948  92.903 118.083  0.00  0.00     0.381 N 
ATOM     19  H   LIG d   1       1.238  93.608 118.070  0.00  0.00    -0.090 HD
ATOM     20  H   LIG d   1       2.547  93.043 117.289  0.00  0.00    -0.090 HD
ATOM     21  H   LIG d   1       2.478  92.971 118.924  0.00  0.00    -0.090 HD
ENDBRANCH   5  18
BRANCH   3  22
ATOM     22  C   LIG d   1      -2.174  90.510 117.616  0.00  0.00     0.382 C 
ATOM     23  O   LIG d   1      -2.939  89.888 116.840  0.00  0.00    -0.241 OA
ATOM     24  O   LIG d   1      -2.652  91.110 118.597  0.00  0.00    -0.241 OA
ENDBRANCH   3  22
TORSDOF 7
ENDMDL
MODEL 6
REMARK VINA RESULT:      -4.0      8.623     11.930
REMARK  7 active torsions:
REMARK  status: ('A' for Active; 'I' for Inactive)
REMARK    1  A    between atoms: C_2  and  C_3 
REMARK    2  A    between atoms: C_3  and  O_6 
REMARK    3  A    between atoms: C_3  and  C_4 
REMARK    4  A    between atoms: C_7  and  O_6 
REMARK    5  A    between atoms: C_9  and  C_10 
REMARK    6  A    between atoms: N_15  and  C_14 
REMARK    7  A    between atoms: N_20  and  C_19 
REMARK       I    between atoms: C_22  and  N_20 
ROOT
ATOM      1  C   LIG d   1       4.269  90.042 116.649  0.00  0.00     0.161 C 
ATOM      2  C   LIG d   1       3.891  89.742 115.329  0.00  0.00     0.016 C 
ATOM      3  C   LIG d   1       4.478  88.706 114.567  0.00  0.00     0.038 C 
ATOM      4  C   LIG d   1       5.385  87.795 115.129  0.00  0.00     0.028 C 
ATOM      5  C   LIG d   1       6.170  88.369 116.305  0.00  0.00    -0.047 C 
ATOM      6  C   LIG d   1       5.178  88.988 117.316  0.00  0.00     0.091 C 
ENDROOT
BRANCH   1   7
ATOM      7  O   LIG d   1       3.095  90.272 117.453  0.00  0.00    -0.368 OA
BRANCH   7   8
ATOM      8  C   LIG d   1       2.423  91.540 117.251  0.00  0.00     0.119 C 
BRANCH   8   9
ATOM      9  C   LIG d   1       2.914  92.504 118.348  0.00  0.00     0.028 C 
ATOM     10  C   LIG d   1       4.087  93.380 117.878  0.00  0.00     0.006 C 
ENDBRANCH   8   9
BRANCH   8  11
ATOM     11  C   LIG d   1       0.913  91.411 117.470  0.00  0.00     0.028 C 
ATOM     12  C   LIG d   1       0.321  90.151 116.817  0.00  0.00     0.006 C 
ENDBRANCH   8  11
ENDBRANCH   7   8
ENDBRANCH   1   7
BRANCH   6  13
ATOM     13  N   LIG d   1       5.867  89.646 118.456  0.00  0.00    -0.311 N 
ATOM     14  C   LIG d   1       6.665  90.704 118.319  0.00  0.00     0.210 C 
ATOM     15  C   LIG d   1       7.292  91.214 119.620  0.00  0.00     0.109 C 
ATOM     16  O   LIG d   1       6.887  91.287 117.247  0.00  0.00    -0.276 OA
ATOM     17  H   LIG d   1       5.718  89.256 119.366  0.00  0.00     0.149 HD
ENDBRANCH   6  13
BRANCH   5  18
ATOM     18  N   LIG d   1       6.974  87.274 116.880  0.00  0.00     0.381 N 
ATOM     19  H   LIG d   1       6.493  86.875 117.661  0.00  0.00    -0.090 HD
ATOM     20  H   LIG d   1       7.847  87.649 117.206  0.00  0.00    -0.090 HD
ATOM     21  H   LIG d   1       7.141  86.575 116.190  0.00  0.00    -0.090 HD
ENDBRANCH   5  18
BRANCH   3  22
ATOM     22  C   LIG d   1       4.189  88.599 113.215  0.00  0.00     0.382 C 
ATOM     23  O   LIG d   1       3.070  88.966 112.782  0.00  0.00    -0.241 OA
ATOM     24  O   LIG d   1       5.016  88.097 112.430  0.00  0.00    -0.241 OA
ENDBRANCH   3  22
TORSDOF 7
ENDMDL
MODEL 7
REMARK VINA RESULT:      -4.0      7.046     10.474
REMARK  7 active torsions:
REMARK  status: ('A' for Active; 'I' for Inactive)
REMARK    1  A    between atoms: C_2  and  C_3 
REMARK    2  A    between atoms: C_3  and  O_6 
REMARK    3  A    between atoms: C_3  and  C_4 
REMARK    4  A    between atoms: C_7  and  O_6 
REMARK    5  A    between atoms: C_9  and  C_10 
REMARK    6  A    between atoms: N_15  and  C_14 
REMARK    7  A    between atoms: N_20  and  C_19 
REMARK       I    between atoms: C_22  and  N_20 
ROOT
ATOM      1  C   LIG d   1       2.939  90.624 117.142  0.00  0.00     0.161 C 
ATOM      2  C   LIG d   1       2.883  90.006 115.882  0.00  0.00     0.016 C 
ATOM      3  C   LIG d   1       4.030  89.680 115.123  0.00  0.00     0.038 C 
ATOM      4  C   LIG d   1       5.326  89.813 115.643  0.00  0.00     0.028 C 
ATOM      5  C   LIG d   1       5.442  90.899 116.707  0.00  0.00    -0.047 C 
ATOM      6  C   LIG d   1       4.346  90.675 117.774  0.00  0.00     0.091 C 
ENDROOT
BRANCH   1   7
ATOM      7  O   LIG d   1       2.010  89.987 118.041  0.00  0.00    -0.368 OA
BRANCH   7   8
ATOM      8  C   LIG d   1       0.771  90.698 118.286  0.00  0.00     0.119 C 
BRANCH   8   9
ATOM      9  C   LIG d   1      -0.308  90.072 117.382  0.00  0.00     0.028 C 
ATOM     10  C   LIG d   1      -1.720  90.584 117.712  0.00  0.00     0.006 C 
ENDBRANCH   8   9
BRANCH   8  11
ATOM     11  C   LIG d   1       0.872  92.161 117.844  0.00  0.00     0.028 C 
ATOM     12  C   LIG d   1       0.661  93.149 119.002  0.00  0.00     0.006 C 
ENDBRANCH   8  11
ENDBRANCH   7   8
ENDBRANCH   1   7
BRANCH   6  13
ATOM     13  N   LIG d   1       4.336  91.743 118.808  0.00  0.00    -0.311 N 
ATOM     14  C   LIG d   1       4.255  93.041 118.521  0.00  0.00     0.210 C 
ATOM     15  C   LIG d   1       4.280  93.975 119.735  0.00  0.00     0.109 C 
ATOM     16  O   LIG d   1       4.133  93.506 117.378  0.00  0.00    -0.276 OA
ATOM     17  H   LIG d   1       4.400  91.453 119.764  0.00  0.00     0.149 HD
ENDBRANCH   6  13
BRANCH   5  18
ATOM     18  N   LIG d   1       6.808  90.836 117.260  0.00  0.00     0.381 N 
ATOM     19  H   LIG d   1       7.413  91.438 116.737  0.00  0.00    -0.090 HD
ATOM     20  H   LIG d   1       7.150  89.895 117.177  0.00  0.00    -0.090 HD
ATOM     21  H   LIG d   1       6.802  91.112 118.218  0.00  0.00    -0.090 HD
ENDBRANCH   5  18
BRANCH   3  22
ATOM     22  C   LIG d   1       3.887  89.251 113.812  0.00  0.00     0.382 C 
ATOM     23  O   LIG d   1       4.838  89.379 113.004  0.00  0.00    -0.241 OA
ATOM     24  O   LIG d   1       2.805  88.778 113.416  0.00  0.00    -0.241 OA
ENDBRANCH   3  22
TORSDOF 7
ENDMDL
MODEL 8
REMARK VINA RESULT:      -4.0      9.795     11.815
REMARK  7 active torsions:
REMARK  status: ('A' for Active; 'I' for Inactive)
REMARK    1  A    between atoms: C_2  and  C_3 
REMARK    2  A    between atoms: C_3  and  O_6 
REMARK    3  A    between atoms: C_3  and  C_4 
REMARK    4  A    between atoms: C_7  and  O_6 
REMARK    5  A    between atoms: C_9  and  C_10 
REMARK    6  A    between atoms: N_15  and  C_14 
REMARK    7  A    between atoms: N_20  and  C_19 
REMARK       I    between atoms: C_22  and  N_20 
ROOT
ATOM      1  C   LIG d   1       4.560  88.368 116.756  0.00  0.00     0.161 C 
ATOM      2  C   LIG d   1       3.714  89.489 116.773  0.00  0.00     0.016 C 
ATOM      3  C   LIG d   1       4.169  90.803 117.028  0.00  0.00     0.038 C 
ATOM      4  C   LIG d   1       5.534  91.108 117.136  0.00  0.00     0.028 C 
ATOM      5  C   LIG d   1       6.378  89.937 117.628  0.00  0.00    -0.047 C 
ATOM      6  C   LIG d   1       6.067  88.695 116.761  0.00  0.00     0.091 C 
ENDROOT
BRANCH   1   7
ATOM      7  O   LIG d   1       4.233  87.527 115.632  0.00  0.00    -0.368 OA
BRANCH   7   8
ATOM      8  C   LIG d   1       3.149  87.985 114.786  0.00  0.00     0.119 C 
BRANCH   8   9
ATOM      9  C   LIG d   1       2.149  86.821 114.646  0.00  0.00     0.028 C 
ATOM     10  C   LIG d   1       1.129  86.782 115.796  0.00  0.00     0.006 C 
ENDBRANCH   8   9
BRANCH   8  11
ATOM     11  C   LIG d   1       3.637  88.275 113.364  0.00  0.00     0.028 C 
ATOM     12  C   LIG d   1       5.099  87.858 113.138  0.00  0.00     0.006 C 
ENDBRANCH   8  11
ENDBRANCH   7   8
ENDBRANCH   1   7
BRANCH   6  13
ATOM     13  N   LIG d   1       6.789  87.483 117.228  0.00  0.00    -0.311 N 
ATOM     14  C   LIG d   1       7.938  87.064 116.700  0.00  0.00     0.210 C 
ATOM     15  C   LIG d   1       8.503  85.780 117.316  0.00  0.00     0.109 C 
ATOM     16  O   LIG d   1       8.558  87.651 115.801  0.00  0.00    -0.276 OA
ATOM     17  H   LIG d   1       6.372  86.963 117.976  0.00  0.00     0.149 HD
ENDBRANCH   6  13
BRANCH   5  18
ATOM     18  N   LIG d   1       7.793  90.349 117.562  0.00  0.00     0.381 N 
ATOM     19  H   LIG d   1       7.853  91.315 117.310  0.00  0.00    -0.090 HD
ATOM     20  H   LIG d   1       8.256  89.809 116.851  0.00  0.00    -0.090 HD
ATOM     21  H   LIG d   1       8.233  90.199 118.443  0.00  0.00    -0.090 HD
ENDBRANCH   5  18
BRANCH   3  22
ATOM     22  C   LIG d   1       3.249  91.824 117.219  0.00  0.00     0.382 C 
ATOM     23  O   LIG d   1       2.025  91.560 117.290  0.00  0.00    -0.241 OA
ATOM     24  O   LIG d   1       3.625  93.010 117.276  0.00  0.00    -0.241 OA
ENDBRANCH   3  22
TORSDOF 7
ENDMDL
MODEL 9
REMARK VINA RESULT:      -4.0      8.305     10.964
REMARK  7 active torsions:
REMARK  status: ('A' for Active; 'I' for Inactive)
REMARK    1  A    between atoms: C_2  and  C_3 
REMARK    2  A    between atoms: C_3  and  O_6 
REMARK    3  A    between atoms: C_3  and  C_4 
REMARK    4  A    between atoms: C_7  and  O_6 
REMARK    5  A    between atoms: C_9  and  C_10 
REMARK    6  A    between atoms: N_15  and  C_14 
REMARK    7  A    between atoms: N_20  and  C_19 
REMARK       I    between atoms: C_22  and  N_20 
ROOT
ATOM      1  C   LIG d   1       3.638  89.354 116.125  0.00  0.00     0.161 C 
ATOM      2  C   LIG d   1       3.798  90.585 116.782  0.00  0.00     0.016 C 
ATOM      3  C   LIG d   1       2.724  91.312 117.344  0.00  0.00     0.038 C 
ATOM      4  C   LIG d   1       1.427  90.781 117.419  0.00  0.00     0.028 C 
ATOM      5  C   LIG d   1       1.124  89.767 116.322  0.00  0.00    -0.047 C 
ATOM      6  C   LIG d   1       2.248  88.706 116.294  0.00  0.00     0.091 C 
ENDROOT
BRANCH   1   7
ATOM      7  O   LIG d   1       4.671  88.439 116.541  0.00  0.00    -0.368 OA
BRANCH   7   8
ATOM      8  C   LIG d   1       5.821  88.336 115.667  0.00  0.00     0.119 C 
BRANCH   8   9
ATOM      9  C   LIG d   1       5.491  87.284 114.590  0.00  0.00     0.028 C 
ATOM     10  C   LIG d   1       5.453  87.886 113.175  0.00  0.00     0.006 C 
ENDBRANCH   8   9
BRANCH   8  11
ATOM     11  C   LIG d   1       7.040  87.784 116.412  0.00  0.00     0.028 C 
ATOM     12  C   LIG d   1       6.933  86.277 116.696  0.00  0.00     0.006 C 
ENDBRANCH   8  11
ENDBRANCH   7   8
ENDBRANCH   1   7
BRANCH   6  13
ATOM     13  N   LIG d   1       2.072  87.723 115.194  0.00  0.00    -0.311 N 
ATOM     14  C   LIG d   1       1.928  86.414 115.395  0.00  0.00     0.210 C 
ATOM     15  C   LIG d   1       1.782  85.576 114.122  0.00  0.00     0.109 C 
ATOM     16  O   LIG d   1       1.876  85.872 116.510  0.00  0.00    -0.276 OA
ATOM     17  H   LIG d   1       2.072  88.080 114.258  0.00  0.00     0.149 HD
ENDBRANCH   6  13
BRANCH   5  18
ATOM     18  N   LIG d   1      -0.206  89.193 116.600  0.00  0.00     0.381 N 
ATOM     19  H   LIG d   1      -0.886  89.925 116.653  0.00  0.00    -0.090 HD
ATOM     20  H   LIG d   1      -0.178  88.724 117.488  0.00  0.00    -0.090 HD
ATOM     21  H   LIG d   1      -0.456  88.548 115.883  0.00  0.00    -0.090 HD
ENDBRANCH   5  18
BRANCH   3  22
ATOM     22  C   LIG d   1       2.934  92.604 117.803  0.00  0.00     0.382 C 
ATOM     23  O   LIG d   1       2.182  93.086 118.684  0.00  0.00    -0.241 OA
ATOM     24  O   LIG d   1       3.839  93.308 117.316  0.00  0.00    -0.241 OA
ENDBRANCH   3  22
TORSDOF 7
ENDMDL
