MODEL 1
REMARK VINA RESULT:      -5.2      0.000      0.000
REMARK  7 active torsions:
REMARK  status: ('A' for Active; 'I' for Inactive)
REMARK    1  A    between atoms: C_2  and  C_3 
REMARK    2  A    between atoms: C_3  and  O_6 
REMARK    3  A    between atoms: C_3  and  C_4 
REMARK    4  A    between atoms: C_7  and  O_6 
REMARK    5  A    between atoms: C_9  and  C_10 
REMARK    6  A    between atoms: N_15  and  C_14 
REMARK    7  A    between atoms: N_20  and  C_19 
REMARK       I    between atoms: C_22  and  N_20 
ROOT
ATOM      1  C   LIG d   1      -7.383  92.853 117.198  0.00  0.00     0.161 C 
ATOM      2  C   LIG d   1      -8.346  93.869 117.319  0.00  0.00     0.016 C 
ATOM      3  C   LIG d   1      -8.232  94.944 118.231  0.00  0.00     0.038 C 
ATOM      4  C   LIG d   1      -7.067  95.160 118.981  0.00  0.00     0.028 C 
ATOM      5  C   LIG d   1      -6.282  93.883 119.261  0.00  0.00    -0.047 C 
ATOM      6  C   LIG d   1      -6.053  93.132 117.929  0.00  0.00     0.091 C 
ENDROOT
BRANCH   1   7
ATOM      7  O   LIG d   1      -7.140  92.575 115.804  0.00  0.00    -0.368 OA
BRANCH   7   8
ATOM      8  C   LIG d   1      -7.831  91.427 115.254  0.00  0.00     0.119 C 
BRANCH   8   9
ATOM      9  C   LIG d   1      -8.116  90.457 116.417  0.00  0.00     0.028 C 
ATOM     10  C   LIG d   1      -9.145  89.377 116.042  0.00  0.00     0.006 C 
ENDBRANCH   8   9
BRANCH   8  11
ATOM     11  C   LIG d   1      -6.934  90.648 114.287  0.00  0.00     0.028 C 
ATOM     12  C   LIG d   1      -5.758  89.955 114.992  0.00  0.00     0.006 C 
ENDBRANCH   8  11
ENDBRANCH   7   8
ENDBRANCH   1   7
BRANCH   6  13
ATOM     13  N   LIG d   1      -5.365  91.829 118.123  0.00  0.00    -0.311 N 
ATOM     14  C   LIG d   1      -4.048  91.713 118.288  0.00  0.00     0.210 C 
ATOM     15  C   LIG d   1      -3.542  90.277 118.452  0.00  0.00     0.109 C 
ATOM     16  O   LIG d   1      -3.256  92.665 118.347  0.00  0.00    -0.276 OA
ATOM     17  H   LIG d   1      -5.936  91.007 118.121  0.00  0.00     0.149 HD
ENDBRANCH   6  13
BRANCH   5  18
ATOM     18  N   LIG d   1      -5.025  94.270 119.929  0.00  0.00     0.381 N 
ATOM     19  H   LIG d   1      -5.223  94.626 120.843  0.00  0.00    -0.090 HD
ATOM     20  H   LIG d   1      -4.584  94.998 119.396  0.00  0.00    -0.090 HD
ATOM     21  H   LIG d   1      -4.418  93.482 119.997  0.00  0.00    -0.090 HD
ENDBRANCH   5  18
BRANCH   3  22
ATOM     22  C   LIG d   1      -9.309  95.795 118.427  0.00  0.00     0.382 C 
ATOM     23  O   LIG d   1      -9.225  97.001 118.091  0.00  0.00    -0.241 OA
ATOM     24  O   LIG d   1     -10.348  95.383 118.977  0.00  0.00    -0.241 OA
ENDBRANCH   3  22
TORSDOF 7
ENDMDL
MODEL 2
REMARK VINA RESULT:      -5.1      1.903      4.320
REMARK  7 active torsions:
REMARK  status: ('A' for Active; 'I' for Inactive)
REMARK    1  A    between atoms: C_2  and  C_3 
REMARK    2  A    between atoms: C_3  and  O_6 
REMARK    3  A    between atoms: C_3  and  C_4 
REMARK    4  A    between atoms: C_7  and  O_6 
REMARK    5  A    between atoms: C_9  and  C_10 
REMARK    6  A    between atoms: N_15  and  C_14 
REMARK    7  A    between atoms: N_20  and  C_19 
REMARK       I    between atoms: C_22  and  N_20 
ROOT
ATOM      1  C   LIG d   1      -5.449  92.819 118.324  0.00  0.00     0.161 C 
ATOM      2  C   LIG d   1      -5.747  93.947 119.107  0.00  0.00     0.016 C 
ATOM      3  C   LIG d   1      -6.887  94.758 118.900  0.00  0.00     0.038 C 
ATOM      4  C   LIG d   1      -7.892  94.405 117.988  0.00  0.00     0.028 C 
ATOM      5  C   LIG d   1      -7.387  93.553 116.828  0.00  0.00    -0.047 C 
ATOM      6  C   LIG d   1      -6.591  92.355 117.396  0.00  0.00     0.091 C 
ENDROOT
BRANCH   1   7
ATOM      7  O   LIG d   1      -5.022  91.735 119.172  0.00  0.00    -0.368 OA
BRANCH   7   8
ATOM      8  C   LIG d   1      -3.611  91.408 119.127  0.00  0.00     0.119 C 
BRANCH   8   9
ATOM      9  C   LIG d   1      -2.900  92.533 118.348  0.00  0.00     0.028 C 
ATOM     10  C   LIG d   1      -1.373  92.354 118.323  0.00  0.00     0.006 C 
ENDBRANCH   8   9
BRANCH   8  11
ATOM     11  C   LIG d   1      -3.360  90.133 118.317  0.00  0.00     0.028 C 
ATOM     12  C   LIG d   1      -3.032  88.920 119.202  0.00  0.00     0.006 C 
ENDBRANCH   8  11
ENDBRANCH   7   8
ENDBRANCH   1   7
BRANCH   6  13
ATOM     13  N   LIG d   1      -5.990  91.517 116.327  0.00  0.00    -0.311 N 
ATOM     14  C   LIG d   1      -6.591  90.447 115.808  0.00  0.00     0.210 C 
ATOM     15  C   LIG d   1      -5.788  89.713 114.730  0.00  0.00     0.109 C 
ATOM     16  O   LIG d   1      -7.727  90.056 116.115  0.00  0.00    -0.276 OA
ATOM     17  H   LIG d   1      -5.082  91.781 115.996  0.00  0.00     0.149 HD
ENDBRANCH   6  13
BRANCH   5  18
ATOM     18  N   LIG d   1      -8.558  93.144 116.031  0.00  0.00     0.381 N 
ATOM     19  H   LIG d   1      -9.275  92.796 116.637  0.00  0.00    -0.090 HD
ATOM     20  H   LIG d   1      -8.286  92.405 115.408  0.00  0.00    -0.090 HD
ATOM     21  H   LIG d   1      -8.902  93.919 115.508  0.00  0.00    -0.090 HD
ENDBRANCH   5  18
BRANCH   3  22
ATOM     22  C   LIG d   1      -7.010  95.957 119.585  0.00  0.00     0.382 C 
ATOM     23  O   LIG d   1      -8.144  96.369 119.930  0.00  0.00    -0.241 OA
ATOM     24  O   LIG d   1      -6.005  96.655 119.822  0.00  0.00    -0.241 OA
ENDBRANCH   3  22
TORSDOF 7
ENDMDL
MODEL 3
REMARK VINA RESULT:      -5.0      1.738      4.923
REMARK  7 active torsions:
REMARK  status: ('A' for Active; 'I' for Inactive)
REMARK    1  A    between atoms: C_2  and  C_3 
REMARK    2  A    between atoms: C_3  and  O_6 
REMARK    3  A    between atoms: C_3  and  C_4 
REMARK    4  A    between atoms: C_7  and  O_6 
REMARK    5  A    between atoms: C_9  and  C_10 
REMARK    6  A    between atoms: N_15  and  C_14 
REMARK    7  A    between atoms: N_20  and  C_19 
REMARK       I    between atoms: C_22  and  N_20 
ROOT
ATOM      1  C   LIG d   1      -5.952  91.939 117.433  0.00  0.00     0.161 C 
ATOM      2  C   LIG d   1      -5.010  90.899 117.507  0.00  0.00     0.016 C 
ATOM      3  C   LIG d   1      -3.854  90.953 118.319  0.00  0.00     0.038 C 
ATOM      4  C   LIG d   1      -3.637  91.995 119.232  0.00  0.00     0.028 C 
ATOM      5  C   LIG d   1      -4.301  93.306 118.825  0.00  0.00    -0.047 C 
ATOM      6  C   LIG d   1      -5.790  93.036 118.506  0.00  0.00     0.091 C 
ENDROOT
BRANCH   1   7
ATOM      7  O   LIG d   1      -7.286  91.395 117.470  0.00  0.00    -0.368 OA
BRANCH   7   8
ATOM      8  C   LIG d   1      -8.055  91.507 116.248  0.00  0.00     0.119 C 
BRANCH   8   9
ATOM      9  C   LIG d   1      -8.098  90.110 115.598  0.00  0.00     0.028 C 
ATOM     10  C   LIG d   1      -9.225  89.232 116.168  0.00  0.00     0.006 C 
ENDBRANCH   8   9
BRANCH   8  11
ATOM     11  C   LIG d   1      -7.352  92.407 115.228  0.00  0.00     0.028 C 
ATOM     12  C   LIG d   1      -7.022  91.677 113.916  0.00  0.00     0.006 C 
ENDBRANCH   8  11
ENDBRANCH   7   8
ENDBRANCH   1   7
BRANCH   6  13
ATOM     13  N   LIG d   1      -6.494  94.251 118.017  0.00  0.00    -0.311 N 
ATOM     14  C   LIG d   1      -7.471  94.853 118.693  0.00  0.00     0.210 C 
ATOM     15  C   LIG d   1      -8.076  96.079 118.001  0.00  0.00     0.109 C 
ATOM     16  O   LIG d   1      -7.873  94.508 119.814  0.00  0.00    -0.276 OA
ATOM     17  H   LIG d   1      -6.210  94.617 117.130  0.00  0.00     0.149 HD
ENDBRANCH   6  13
BRANCH   5  18
ATOM     18  N   LIG d   1      -4.112  94.264 119.930  0.00  0.00     0.381 N 
ATOM     19  H   LIG d   1      -3.184  94.639 119.898  0.00  0.00    -0.090 HD
ATOM     20  H   LIG d   1      -4.227  93.781 120.803  0.00  0.00    -0.090 HD
ATOM     21  H   LIG d   1      -4.778  95.002 119.860  0.00  0.00    -0.090 HD
ENDBRANCH   5  18
BRANCH   3  22
ATOM     22  C   LIG d   1      -2.879  89.975 118.191  0.00  0.00     0.382 C 
ATOM     23  O   LIG d   1      -1.666  90.288 118.258  0.00  0.00    -0.241 OA
ATOM     24  O   LIG d   1      -3.196  88.792 117.967  0.00  0.00    -0.241 OA
ENDBRANCH   3  22
TORSDOF 7
ENDMDL
MODEL 4
REMARK VINA RESULT:      -4.9      1.823      2.434
REMARK  7 active torsions:
REMARK  status: ('A' for Active; 'I' for Inactive)
REMARK    1  A    between atoms: C_2  and  C_3 
REMARK    2  A    between atoms: C_3  and  O_6 
REMARK    3  A    between atoms: C_3  and  C_4 
REMARK    4  A    between atoms: C_7  and  O_6 
REMARK    5  A    between atoms: C_9  and  C_10 
REMARK    6  A    between atoms: N_15  and  C_14 
REMARK    7  A    between atoms: N_20  and  C_19 
REMARK       I    between atoms: C_22  and  N_20 
ROOT
ATOM      1  C   LIG d   1      -5.859  91.765 118.191  0.00  0.00     0.161 C 
ATOM      2  C   LIG d   1      -6.463  93.028 118.310  0.00  0.00     0.016 C 
ATOM      3  C   LIG d   1      -5.818  94.148 118.884  0.00  0.00     0.038 C 
ATOM      4  C   LIG d   1      -4.462  94.120 119.242  0.00  0.00     0.028 C 
ATOM      5  C   LIG d   1      -3.961  92.726 119.606  0.00  0.00    -0.047 C 
ATOM      6  C   LIG d   1      -4.342  91.744 118.475  0.00  0.00     0.091 C 
ENDROOT
BRANCH   1   7
ATOM      7  O   LIG d   1      -6.132  91.214 116.888  0.00  0.00    -0.368 OA
BRANCH   7   8
ATOM      8  C   LIG d   1      -7.501  91.321 116.424  0.00  0.00     0.119 C 
BRANCH   8   9
ATOM      9  C   LIG d   1      -7.859  89.994 115.727  0.00  0.00     0.028 C 
ATOM     10  C   LIG d   1      -9.156  89.375 116.274  0.00  0.00     0.006 C 
ENDBRANCH   8   9
BRANCH   8  11
ATOM     11  C   LIG d   1      -7.641  92.397 115.344  0.00  0.00     0.028 C 
ATOM     12  C   LIG d   1      -7.140  91.929 113.968  0.00  0.00     0.006 C 
ENDBRANCH   8  11
ENDBRANCH   7   8
ENDBRANCH   1   7
BRANCH   6  13
ATOM     13  N   LIG d   1      -3.963  90.342 118.789  0.00  0.00    -0.311 N 
ATOM     14  C   LIG d   1      -2.778  89.817 118.483  0.00  0.00     0.210 C 
ATOM     15  C   LIG d   1      -2.600  88.348 118.879  0.00  0.00     0.109 C 
ATOM     16  O   LIG d   1      -1.846  90.438 117.949  0.00  0.00    -0.276 OA
ATOM     17  H   LIG d   1      -4.648  89.777 119.250  0.00  0.00     0.149 HD
ENDBRANCH   6  13
BRANCH   5  18
ATOM     18  N   LIG d   1      -2.505  92.820 119.824  0.00  0.00     0.381 N 
ATOM     19  H   LIG d   1      -2.031  92.170 119.229  0.00  0.00    -0.090 HD
ATOM     20  H   LIG d   1      -2.303  92.578 120.778  0.00  0.00    -0.090 HD
ATOM     21  H   LIG d   1      -2.190  93.746 119.635  0.00  0.00    -0.090 HD
ENDBRANCH   5  18
BRANCH   3  22
ATOM     22  C   LIG d   1      -6.544  95.301 119.141  0.00  0.00     0.382 C 
ATOM     23  O   LIG d   1      -7.732  95.394 118.751  0.00  0.00    -0.241 OA
ATOM     24  O   LIG d   1      -6.010  96.267 119.718  0.00  0.00    -0.241 OA
ENDBRANCH   3  22
TORSDOF 7
ENDMDL
MODEL 5
REMARK VINA RESULT:      -4.6      6.364      9.083
REMARK  7 active torsions:
REMARK  status: ('A' for Active; 'I' for Inactive)
REMARK    1  A    between atoms: C_2  and  C_3 
REMARK    2  A    between atoms: C_3  and  O_6 
REMARK    3  A    between atoms: C_3  and  C_4 
REMARK    4  A    between atoms: C_7  and  O_6 
REMARK    5  A    between atoms: C_9  and  C_10 
REMARK    6  A    between atoms: N_15  and  C_14 
REMARK    7  A    between atoms: N_20  and  C_19 
REMARK       I    between atoms: C_22  and  N_20 
ROOT
ATOM      1  C   LIG d   1       0.789  88.713 117.330  0.00  0.00     0.161 C 
ATOM      2  C   LIG d   1      -0.591  88.465 117.418  0.00  0.00     0.016 C 
ATOM      3  C   LIG d   1      -1.525  89.418 117.885  0.00  0.00     0.038 C 
ATOM      4  C   LIG d   1      -1.158  90.745 118.155  0.00  0.00     0.028 C 
ATOM      5  C   LIG d   1       0.303  90.899 118.562  0.00  0.00    -0.047 C 
ATOM      6  C   LIG d   1       1.193  90.191 117.515  0.00  0.00     0.091 C 
ENDROOT
BRANCH   1   7
ATOM      7  O   LIG d   1       1.297  88.207 116.080  0.00  0.00    -0.368 OA
BRANCH   7   8
ATOM      8  C   LIG d   1       2.224  87.097 116.172  0.00  0.00     0.119 C 
BRANCH   8   9
ATOM      9  C   LIG d   1       3.312  87.313 115.102  0.00  0.00     0.028 C 
ATOM     10  C   LIG d   1       3.370  88.769 114.610  0.00  0.00     0.006 C 
ENDBRANCH   8   9
BRANCH   8  11
ATOM     11  C   LIG d   1       1.547  85.774 115.801  0.00  0.00     0.028 C 
ATOM     12  C   LIG d   1       1.221  85.672 114.302  0.00  0.00     0.006 C 
ENDBRANCH   8  11
ENDBRANCH   7   8
ENDBRANCH   1   7
BRANCH   6  13
ATOM     13  N   LIG d   1       2.633  90.221 117.881  0.00  0.00    -0.311 N 
ATOM     14  C   LIG d   1       3.473  91.171 117.475  0.00  0.00     0.210 C 
ATOM     15  C   LIG d   1       4.920  91.001 117.950  0.00  0.00     0.109 C 
ATOM     16  O   LIG d   1       3.152  92.155 116.792  0.00  0.00    -0.276 OA
ATOM     17  H   LIG d   1       2.972  89.477 118.459  0.00  0.00     0.149 HD
ENDBRANCH   6  13
BRANCH   5  18
ATOM     18  N   LIG d   1       0.584  92.342 118.679  0.00  0.00     0.381 N 
ATOM     19  H   LIG d   1      -0.168  92.867 118.280  0.00  0.00    -0.090 HD
ATOM     20  H   LIG d   1       1.422  92.553 118.166  0.00  0.00    -0.090 HD
ATOM     21  H   LIG d   1       0.701  92.590 119.637  0.00  0.00    -0.090 HD
ENDBRANCH   5  18
BRANCH   3  22
ATOM     22  C   LIG d   1      -2.836  89.036 118.125  0.00  0.00     0.382 C 
ATOM     23  O   LIG d   1      -3.778  89.624 117.539  0.00  0.00    -0.241 OA
ATOM     24  O   LIG d   1      -3.092  88.140 118.952  0.00  0.00    -0.241 OA
ENDBRANCH   3  22
TORSDOF 7
ENDMDL
MODEL 6
REMARK VINA RESULT:      -4.4      8.202     11.364
REMARK  7 active torsions:
REMARK  status: ('A' for Active; 'I' for Inactive)
REMARK    1  A    between atoms: C_2  and  C_3 
REMARK    2  A    between atoms: C_3  and  O_6 
REMARK    3  A    between atoms: C_3  and  C_4 
REMARK    4  A    between atoms: C_7  and  O_6 
REMARK    5  A    between atoms: C_9  and  C_10 
REMARK    6  A    between atoms: N_15  and  C_14 
REMARK    7  A    between atoms: N_20  and  C_19 
REMARK       I    between atoms: C_22  and  N_20 
ROOT
ATOM      1  C   LIG d   1       2.679  89.557 116.578  0.00  0.00     0.161 C 
ATOM      2  C   LIG d   1       2.466  89.003 115.305  0.00  0.00     0.016 C 
ATOM      3  C   LIG d   1       3.513  88.570 114.460  0.00  0.00     0.038 C 
ATOM      4  C   LIG d   1       4.845  88.521 114.895  0.00  0.00     0.028 C 
ATOM      5  C   LIG d   1       5.164  89.540 115.984  0.00  0.00    -0.047 C 
ATOM      6  C   LIG d   1       4.118  89.410 117.115  0.00  0.00     0.091 C 
ENDROOT
BRANCH   1   7
ATOM      7  O   LIG d   1       1.735  89.004 117.516  0.00  0.00    -0.368 OA
BRANCH   7   8
ATOM      8  C   LIG d   1       0.380  89.509 117.430  0.00  0.00     0.119 C 
BRANCH   8   9
ATOM      9  C   LIG d   1       0.274  90.715 118.384  0.00  0.00     0.028 C 
ATOM     10  C   LIG d   1       0.011  92.033 117.636  0.00  0.00     0.006 C 
ENDBRANCH   8   9
BRANCH   8  11
ATOM     11  C   LIG d   1      -0.631  88.486 117.956  0.00  0.00     0.028 C 
ATOM     12  C   LIG d   1      -2.088  88.897 117.692  0.00  0.00     0.006 C 
ENDBRANCH   8  11
ENDBRANCH   7   8
ENDBRANCH   1   7
BRANCH   6  13
ATOM     13  N   LIG d   1       4.306  90.428 118.181  0.00  0.00    -0.311 N 
ATOM     14  C   LIG d   1       4.021  91.719 118.022  0.00  0.00     0.210 C 
ATOM     15  C   LIG d   1       4.308  92.600 119.241  0.00  0.00     0.109 C 
ATOM     16  O   LIG d   1       3.526  92.212 116.997  0.00  0.00    -0.276 OA
ATOM     17  H   LIG d   1       4.674  90.109 119.056  0.00  0.00     0.149 HD
ENDBRANCH   6  13
BRANCH   5  18
ATOM     18  N   LIG d   1       6.544  89.288 116.441  0.00  0.00     0.381 N 
ATOM     19  H   LIG d   1       6.866  88.413 116.078  0.00  0.00    -0.090 HD
ATOM     20  H   LIG d   1       6.549  89.234 117.445  0.00  0.00    -0.090 HD
ATOM     21  H   LIG d   1       7.143  90.023 116.138  0.00  0.00    -0.090 HD
ENDBRANCH   5  18
BRANCH   3  22
ATOM     22  C   LIG d   1       3.236  88.216 113.148  0.00  0.00     0.382 C 
ATOM     23  O   LIG d   1       3.731  87.170 112.663  0.00  0.00    -0.241 OA
ATOM     24  O   LIG d   1       2.532  88.952 112.430  0.00  0.00    -0.241 OA
ENDBRANCH   3  22
TORSDOF 7
ENDMDL
MODEL 7
REMARK VINA RESULT:      -4.4      8.280     11.167
REMARK  7 active torsions:
REMARK  status: ('A' for Active; 'I' for Inactive)
REMARK    1  A    between atoms: C_2  and  C_3 
REMARK    2  A    between atoms: C_3  and  O_6 
REMARK    3  A    between atoms: C_3  and  C_4 
REMARK    4  A    between atoms: C_7  and  O_6 
REMARK    5  A    between atoms: C_9  and  C_10 
REMARK    6  A    between atoms: N_15  and  C_14 
REMARK    7  A    between atoms: N_20  and  C_19 
REMARK       I    between atoms: C_22  and  N_20 
ROOT
ATOM      1  C   LIG d   1       2.432  89.498 116.742  0.00  0.00     0.161 C 
ATOM      2  C   LIG d   1       2.905  90.120 117.910  0.00  0.00     0.016 C 
ATOM      3  C   LIG d   1       4.265  90.445 118.122  0.00  0.00     0.038 C 
ATOM      4  C   LIG d   1       5.227  90.308 117.111  0.00  0.00     0.028 C 
ATOM      5  C   LIG d   1       4.889  89.219 116.097  0.00  0.00    -0.047 C 
ATOM      6  C   LIG d   1       3.449  89.442 115.582  0.00  0.00     0.091 C 
ENDROOT
BRANCH   1   7
ATOM      7  O   LIG d   1       1.214  90.135 116.309  0.00  0.00    -0.368 OA
BRANCH   7   8
ATOM      8  C   LIG d   1       0.340  90.620 117.359  0.00  0.00     0.119 C 
BRANCH   8   9
ATOM      9  C   LIG d   1      -0.954  89.785 117.306  0.00  0.00     0.028 C 
ATOM     10  C   LIG d   1      -0.781  88.393 117.936  0.00  0.00     0.006 C 
ENDBRANCH   8   9
BRANCH   8  11
ATOM     11  C   LIG d   1      -0.097  92.064 117.097  0.00  0.00     0.028 C 
ATOM     12  C   LIG d   1       0.537  93.065 118.075  0.00  0.00     0.006 C 
ENDBRANCH   8  11
ENDBRANCH   7   8
ENDBRANCH   1   7
BRANCH   6  13
ATOM     13  N   LIG d   1       3.009  88.372 114.650  0.00  0.00    -0.311 N 
ATOM     14  C   LIG d   1       3.169  88.439 113.329  0.00  0.00     0.210 C 
ATOM     15  C   LIG d   1       2.626  87.237 112.550  0.00  0.00     0.109 C 
ATOM     16  O   LIG d   1       3.740  89.364 112.732  0.00  0.00    -0.276 OA
ATOM     17  H   LIG d   1       2.564  87.570 115.052  0.00  0.00     0.149 HD
ENDBRANCH   6  13
BRANCH   5  18
ATOM     18  N   LIG d   1       5.902  89.278 115.026  0.00  0.00     0.381 N 
ATOM     19  H   LIG d   1       6.145  90.230 114.842  0.00  0.00    -0.090 HD
ATOM     20  H   LIG d   1       5.512  88.883 114.188  0.00  0.00    -0.090 HD
ATOM     21  H   LIG d   1       6.713  88.766 115.296  0.00  0.00    -0.090 HD
ENDBRANCH   5  18
BRANCH   3  22
ATOM     22  C   LIG d   1       4.680  90.877 119.372  0.00  0.00     0.382 C 
ATOM     23  O   LIG d   1       4.096  91.838 119.930  0.00  0.00    -0.241 OA
ATOM     24  O   LIG d   1       5.660  90.348 119.930  0.00  0.00    -0.241 OA
ENDBRANCH   3  22
TORSDOF 7
ENDMDL
MODEL 8
REMARK VINA RESULT:      -4.0      9.204     11.704
REMARK  7 active torsions:
REMARK  status: ('A' for Active; 'I' for Inactive)
REMARK    1  A    between atoms: C_2  and  C_3 
REMARK    2  A    between atoms: C_3  and  O_6 
REMARK    3  A    between atoms: C_3  and  C_4 
REMARK    4  A    between atoms: C_7  and  O_6 
REMARK    5  A    between atoms: C_9  and  C_10 
REMARK    6  A    between atoms: N_15  and  C_14 
REMARK    7  A    between atoms: N_20  and  C_19 
REMARK       I    between atoms: C_22  and  N_20 
ROOT
ATOM      1  C   LIG d   1       4.030  89.206 117.012  0.00  0.00     0.161 C 
ATOM      2  C   LIG d   1       2.810  89.883 116.848  0.00  0.00     0.016 C 
ATOM      3  C   LIG d   1       2.599  91.219 117.261  0.00  0.00     0.038 C 
ATOM      4  C   LIG d   1       3.648  92.023 117.731  0.00  0.00     0.028 C 
ATOM      5  C   LIG d   1       4.775  91.230 118.383  0.00  0.00    -0.047 C 
ATOM      6  C   LIG d   1       5.217  90.103 117.421  0.00  0.00     0.091 C 
ENDROOT
BRANCH   1   7
ATOM      7  O   LIG d   1       4.347  88.473 115.812  0.00  0.00    -0.368 OA
BRANCH   7   8
ATOM      8  C   LIG d   1       3.374  88.552 114.741  0.00  0.00     0.119 C 
BRANCH   8   9
ATOM      9  C   LIG d   1       2.929  87.113 114.413  0.00  0.00     0.028 C 
ATOM     10  C   LIG d   1       3.725  86.059 115.201  0.00  0.00     0.006 C 
ENDBRANCH   8   9
BRANCH   8  11
ATOM     11  C   LIG d   1       4.005  89.085 113.452  0.00  0.00     0.028 C 
ATOM     12  C   LIG d   1       5.540  89.128 113.514  0.00  0.00     0.006 C 
ENDBRANCH   8  11
ENDBRANCH   7   8
ENDBRANCH   1   7
BRANCH   6  13
ATOM     13  N   LIG d   1       6.260  89.227 118.015  0.00  0.00    -0.311 N 
ATOM     14  C   LIG d   1       7.566  89.461 117.904  0.00  0.00     0.210 C 
ATOM     15  C   LIG d   1       8.469  88.422 118.575  0.00  0.00     0.109 C 
ATOM     16  O   LIG d   1       8.062  90.449 117.341  0.00  0.00    -0.276 OA
ATOM     17  H   LIG d   1       5.945  88.419 118.517  0.00  0.00     0.149 HD
ENDBRANCH   6  13
BRANCH   5  18
ATOM     18  N   LIG d   1       5.860  92.177 118.702  0.00  0.00     0.381 N 
ATOM     19  H   LIG d   1       5.885  92.344 119.688  0.00  0.00    -0.090 HD
ATOM     20  H   LIG d   1       5.677  93.049 118.238  0.00  0.00    -0.090 HD
ATOM     21  H   LIG d   1       6.735  91.808 118.398  0.00  0.00    -0.090 HD
ENDBRANCH   5  18
BRANCH   3  22
ATOM     22  C   LIG d   1       1.319  91.750 117.242  0.00  0.00     0.382 C 
ATOM     23  O   LIG d   1       1.139  92.961 117.513  0.00  0.00    -0.241 OA
ATOM     24  O   LIG d   1       0.337  91.023 117.002  0.00  0.00    -0.241 OA
ENDBRANCH   3  22
TORSDOF 7
ENDMDL
MODEL 9
REMARK VINA RESULT:      -4.0      9.881     14.216
REMARK  7 active torsions:
REMARK  status: ('A' for Active; 'I' for Inactive)
REMARK    1  A    between atoms: C_2  and  C_3 
REMARK    2  A    between atoms: C_3  and  O_6 
REMARK    3  A    between atoms: C_3  and  C_4 
REMARK    4  A    between atoms: C_7  and  O_6 
REMARK    5  A    between atoms: C_9  and  C_10 
REMARK    6  A    between atoms: N_15  and  C_14 
REMARK    7  A    between atoms: N_20  and  C_19 
REMARK       I    between atoms: C_22  and  N_20 
ROOT
ATOM      1  C   LIG d   1       5.138  89.127 118.371  0.00  0.00     0.161 C 
ATOM      2  C   LIG d   1       6.129  88.185 118.048  0.00  0.00     0.016 C 
ATOM      3  C   LIG d   1       6.331  87.686 116.741  0.00  0.00     0.038 C 
ATOM      4  C   LIG d   1       5.650  88.211 115.633  0.00  0.00     0.028 C 
ATOM      5  C   LIG d   1       4.289  88.802 115.983  0.00  0.00    -0.047 C 
ATOM      6  C   LIG d   1       4.459  89.794 117.157  0.00  0.00     0.091 C 
ENDROOT
BRANCH   1   7
ATOM      7  O   LIG d   1       5.684  90.128 119.252  0.00  0.00    -0.368 OA
BRANCH   7   8
ATOM      8  C   LIG d   1       6.357  91.241 118.613  0.00  0.00     0.119 C 
BRANCH   8   9
ATOM      9  C   LIG d   1       7.864  91.097 118.899  0.00  0.00     0.028 C 
ATOM     10  C   LIG d   1       8.668  90.728 117.641  0.00  0.00     0.006 C 
ENDBRANCH   8   9
BRANCH   8  11
ATOM     11  C   LIG d   1       5.950  92.576 119.245  0.00  0.00     0.028 C 
ATOM     12  C   LIG d   1       6.819  93.750 118.768  0.00  0.00     0.006 C 
ENDBRANCH   8  11
ENDBRANCH   7   8
ENDBRANCH   1   7
BRANCH   6  13
ATOM     13  N   LIG d   1       3.162  90.355 117.618  0.00  0.00    -0.311 N 
ATOM     14  C   LIG d   1       2.800  91.621 117.423  0.00  0.00     0.210 C 
ATOM     15  C   LIG d   1       1.431  91.998 117.996  0.00  0.00     0.109 C 
ATOM     16  O   LIG d   1       3.469  92.460 116.801  0.00  0.00    -0.276 OA
ATOM     17  H   LIG d   1       2.545  89.735 118.104  0.00  0.00     0.149 HD
ENDBRANCH   6  13
BRANCH   5  18
ATOM     18  N   LIG d   1       3.750  89.436 114.764  0.00  0.00     0.381 N 
ATOM     19  H   LIG d   1       4.502  89.787 114.205  0.00  0.00    -0.090 HD
ATOM     20  H   LIG d   1       3.167  90.209 115.031  0.00  0.00    -0.090 HD
ATOM     21  H   LIG d   1       3.219  88.774 114.242  0.00  0.00    -0.090 HD
ENDBRANCH   5  18
BRANCH   3  22
ATOM     22  C   LIG d   1       7.196  86.621 116.538  0.00  0.00     0.382 C 
ATOM     23  O   LIG d   1       6.784  85.444 116.676  0.00  0.00    -0.241 OA
ATOM     24  O   LIG d   1       8.394  86.823 116.263  0.00  0.00    -0.241 OA
ENDBRANCH   3  22
TORSDOF 7
ENDMDL
