MODEL 1
REMARK VINA RESULT:      -4.9      0.000      0.000
REMARK  7 active torsions:
REMARK  status: ('A' for Active; 'I' for Inactive)
REMARK    1  A    between atoms: C_2  and  C_3 
REMARK    2  A    between atoms: C_3  and  O_6 
REMARK    3  A    between atoms: C_3  and  C_4 
REMARK    4  A    between atoms: C_7  and  O_6 
REMARK    5  A    between atoms: C_9  and  C_10 
REMARK    6  A    between atoms: N_15  and  C_14 
REMARK    7  A    between atoms: N_20  and  C_19 
REMARK       I    between atoms: C_22  and  N_20 
ROOT
ATOM      1  C   LIG d   1      -3.897  89.425 117.307  0.00  0.00     0.161 C 
ATOM      2  C   LIG d   1      -3.483  88.550 116.288  0.00  0.00     0.016 C 
ATOM      3  C   LIG d   1      -4.234  88.312 115.114  0.00  0.00     0.038 C 
ATOM      4  C   LIG d   1      -5.386  89.052 114.808  0.00  0.00     0.028 C 
ATOM      5  C   LIG d   1      -6.111  89.581 116.041  0.00  0.00    -0.047 C 
ATOM      6  C   LIG d   1      -5.096  90.324 116.940  0.00  0.00     0.091 C 
ENDROOT
BRANCH   1   7
ATOM      7  O   LIG d   1      -2.783  90.228 117.744  0.00  0.00    -0.368 OA
BRANCH   7   8
ATOM      8  C   LIG d   1      -2.274  89.945 119.070  0.00  0.00     0.119 C 
BRANCH   8   9
ATOM      9  C   LIG d   1      -1.894  91.291 119.717  0.00  0.00     0.028 C 
ATOM     10  C   LIG d   1      -2.196  92.489 118.801  0.00  0.00     0.006 C 
ENDBRANCH   8   9
BRANCH   8  11
ATOM     11  C   LIG d   1      -0.971  89.143 119.007  0.00  0.00     0.028 C 
ATOM     12  C   LIG d   1      -0.139  89.454 117.753  0.00  0.00     0.006 C 
ENDBRANCH   8  11
ENDBRANCH   7   8
ENDBRANCH   1   7
BRANCH   6  13
ATOM     13  N   LIG d   1      -5.705  90.802 118.208  0.00  0.00    -0.311 N 
ATOM     14  C   LIG d   1      -6.173  92.037 118.377  0.00  0.00     0.210 C 
ATOM     15  C   LIG d   1      -6.742  92.328 119.769  0.00  0.00     0.109 C 
ATOM     16  O   LIG d   1      -6.201  92.909 117.496  0.00  0.00    -0.276 OA
ATOM     17  H   LIG d   1      -5.751  90.149 118.966  0.00  0.00     0.149 HD
ENDBRANCH   6  13
BRANCH   5  18
ATOM     18  N   LIG d   1      -7.210  90.447 115.574  0.00  0.00     0.381 N 
ATOM     19  H   LIG d   1      -7.274  90.404 114.576  0.00  0.00    -0.090 HD
ATOM     20  H   LIG d   1      -7.012  91.396 115.837  0.00  0.00    -0.090 HD
ATOM     21  H   LIG d   1      -8.071  90.154 115.982  0.00  0.00    -0.090 HD
ENDBRANCH   5  18
BRANCH   3  22
ATOM     22  C   LIG d   1      -3.856  87.295 114.251  0.00  0.00     0.382 C 
ATOM     23  O   LIG d   1      -3.397  86.221 114.710  0.00  0.00    -0.241 OA
ATOM     24  O   LIG d   1      -3.925  87.455 113.018  0.00  0.00    -0.241 OA
ENDBRANCH   3  22
TORSDOF 7
ENDMDL
MODEL 2
REMARK VINA RESULT:      -4.6      7.182      9.303
REMARK  7 active torsions:
REMARK  status: ('A' for Active; 'I' for Inactive)
REMARK    1  A    between atoms: C_2  and  C_3 
REMARK    2  A    between atoms: C_3  and  O_6 
REMARK    3  A    between atoms: C_3  and  C_4 
REMARK    4  A    between atoms: C_7  and  O_6 
REMARK    5  A    between atoms: C_9  and  C_10 
REMARK    6  A    between atoms: N_15  and  C_14 
REMARK    7  A    between atoms: N_20  and  C_19 
REMARK       I    between atoms: C_22  and  N_20 
ROOT
ATOM      1  C   LIG d   1       4.228  89.470 114.740  0.00  0.00     0.161 C 
ATOM      2  C   LIG d   1       3.558  88.576 113.887  0.00  0.00     0.016 C 
ATOM      3  C   LIG d   1       3.732  87.174 113.938  0.00  0.00     0.038 C 
ATOM      4  C   LIG d   1       4.479  86.556 114.951  0.00  0.00     0.028 C 
ATOM      5  C   LIG d   1       5.576  87.446 115.524  0.00  0.00    -0.047 C 
ATOM      6  C   LIG d   1       4.961  88.806 115.924  0.00  0.00     0.091 C 
ENDROOT
BRANCH   1   7
ATOM      7  O   LIG d   1       3.309  90.472 115.218  0.00  0.00    -0.368 OA
BRANCH   7   8
ATOM      8  C   LIG d   1       2.700  90.216 116.507  0.00  0.00     0.119 C 
BRANCH   8   9
ATOM      9  C   LIG d   1       1.327  89.566 116.250  0.00  0.00     0.028 C 
ATOM     10  C   LIG d   1       1.265  88.110 116.741  0.00  0.00     0.006 C 
ENDBRANCH   8   9
BRANCH   8  11
ATOM     11  C   LIG d   1       2.399  91.520 117.250  0.00  0.00     0.028 C 
ATOM     12  C   LIG d   1       3.657  92.366 117.504  0.00  0.00     0.006 C 
ENDBRANCH   8  11
ENDBRANCH   7   8
ENDBRANCH   1   7
BRANCH   6  13
ATOM     13  N   LIG d   1       5.983  89.767 116.416  0.00  0.00    -0.311 N 
ATOM     14  C   LIG d   1       6.288  89.917 117.704  0.00  0.00     0.210 C 
ATOM     15  C   LIG d   1       7.355  90.977 117.996  0.00  0.00     0.109 C 
ATOM     16  O   LIG d   1       5.800  89.250 118.629  0.00  0.00    -0.276 OA
ATOM     17  H   LIG d   1       6.450  90.327 115.730  0.00  0.00     0.149 HD
ENDBRANCH   6  13
BRANCH   5  18
ATOM     18  N   LIG d   1       6.184  86.729 116.661  0.00  0.00     0.381 N 
ATOM     19  H   LIG d   1       7.155  86.571 116.482  0.00  0.00    -0.090 HD
ATOM     20  H   LIG d   1       5.733  85.836 116.761  0.00  0.00    -0.090 HD
ATOM     21  H   LIG d   1       6.074  87.260 117.497  0.00  0.00    -0.090 HD
ENDBRANCH   5  18
BRANCH   3  22
ATOM     22  C   LIG d   1       3.187  86.378 112.942  0.00  0.00     0.382 C 
ATOM     23  O   LIG d   1       2.013  86.582 112.549  0.00  0.00    -0.241 OA
ATOM     24  O   LIG d   1       3.838  85.431 112.462  0.00  0.00    -0.241 OA
ENDBRANCH   3  22
TORSDOF 7
ENDMDL
MODEL 3
REMARK VINA RESULT:      -4.6      5.826      8.673
REMARK  7 active torsions:
REMARK  status: ('A' for Active; 'I' for Inactive)
REMARK    1  A    between atoms: C_2  and  C_3 
REMARK    2  A    between atoms: C_3  and  O_6 
REMARK    3  A    between atoms: C_3  and  C_4 
REMARK    4  A    between atoms: C_7  and  O_6 
REMARK    5  A    between atoms: C_9  and  C_10 
REMARK    6  A    between atoms: N_15  and  C_14 
REMARK    7  A    between atoms: N_20  and  C_19 
REMARK       I    between atoms: C_22  and  N_20 
ROOT
ATOM      1  C   LIG d   1       3.174  89.047 115.982  0.00  0.00     0.161 C 
ATOM      2  C   LIG d   1       3.580  90.263 116.556  0.00  0.00     0.016 C 
ATOM      3  C   LIG d   1       2.691  91.156 117.198  0.00  0.00     0.038 C 
ATOM      4  C   LIG d   1       1.352  90.819 117.444  0.00  0.00     0.028 C 
ATOM      5  C   LIG d   1       0.783  89.822 116.440  0.00  0.00    -0.047 C 
ATOM      6  C   LIG d   1       1.738  88.611 116.339  0.00  0.00     0.091 C 
ENDROOT
BRANCH   1   7
ATOM      7  O   LIG d   1       4.113  88.008 116.325  0.00  0.00    -0.368 OA
BRANCH   7   8
ATOM      8  C   LIG d   1       4.801  87.379 115.216  0.00  0.00     0.119 C 
BRANCH   8   9
ATOM      9  C   LIG d   1       6.306  87.379 115.545  0.00  0.00     0.028 C 
ATOM     10  C   LIG d   1       6.602  87.952 116.941  0.00  0.00     0.006 C 
ENDBRANCH   8   9
BRANCH   8  11
ATOM     11  C   LIG d   1       4.666  88.208 113.935  0.00  0.00     0.028 C 
ATOM     12  C   LIG d   1       4.119  87.392 112.752  0.00  0.00     0.006 C 
ENDBRANCH   8  11
ENDBRANCH   7   8
ENDBRANCH   1   7
BRANCH   6  13
ATOM     13  N   LIG d   1       1.299  87.627 115.315  0.00  0.00    -0.311 N 
ATOM     14  C   LIG d   1       1.329  86.309 115.505  0.00  0.00     0.210 C 
ATOM     15  C   LIG d   1       0.851  85.473 114.313  0.00  0.00     0.109 C 
ATOM     16  O   LIG d   1       1.677  85.753 116.558  0.00  0.00    -0.276 OA
ATOM     17  H   LIG d   1       0.972  87.992 114.442  0.00  0.00     0.149 HD
ENDBRANCH   6  13
BRANCH   5  18
ATOM     18  N   LIG d   1      -0.571  89.455 116.895  0.00  0.00     0.381 N 
ATOM     19  H   LIG d   1      -0.865  88.614 116.440  0.00  0.00    -0.090 HD
ATOM     20  H   LIG d   1      -1.209  90.189 116.642  0.00  0.00    -0.090 HD
ATOM     21  H   LIG d   1      -0.576  89.326 117.882  0.00  0.00    -0.090 HD
ENDBRANCH   5  18
BRANCH   3  22
ATOM     22  C   LIG d   1       3.131  92.418 117.565  0.00  0.00     0.382 C 
ATOM     23  O   LIG d   1       2.463  93.103 118.376  0.00  0.00    -0.241 OA
ATOM     24  O   LIG d   1       4.165  92.898 117.063  0.00  0.00    -0.241 OA
ENDBRANCH   3  22
TORSDOF 7
ENDMDL
MODEL 4
REMARK VINA RESULT:      -4.4      5.567      7.591
REMARK  7 active torsions:
REMARK  status: ('A' for Active; 'I' for Inactive)
REMARK    1  A    between atoms: C_2  and  C_3 
REMARK    2  A    between atoms: C_3  and  O_6 
REMARK    3  A    between atoms: C_3  and  C_4 
REMARK    4  A    between atoms: C_7  and  O_6 
REMARK    5  A    between atoms: C_9  and  C_10 
REMARK    6  A    between atoms: N_15  and  C_14 
REMARK    7  A    between atoms: N_20  and  C_19 
REMARK       I    between atoms: C_22  and  N_20 
ROOT
ATOM      1  C   LIG d   1       3.436  90.049 116.362  0.00  0.00     0.161 C 
ATOM      2  C   LIG d   1       4.150  89.783 115.181  0.00  0.00     0.016 C 
ATOM      3  C   LIG d   1       3.771  88.788 114.251  0.00  0.00     0.038 C 
ATOM      4  C   LIG d   1       2.561  88.088 114.365  0.00  0.00     0.028 C 
ATOM      5  C   LIG d   1       2.063  87.968 115.801  0.00  0.00    -0.047 C 
ATOM      6  C   LIG d   1       2.052  89.372 116.448  0.00  0.00     0.091 C 
ENDROOT
BRANCH   1   7
ATOM      7  O   LIG d   1       3.310  91.473 116.546  0.00  0.00    -0.368 OA
BRANCH   7   8
ATOM      8  C   LIG d   1       4.238  92.079 117.479  0.00  0.00     0.119 C 
BRANCH   8   9
ATOM      9  C   LIG d   1       5.050  90.943 118.130  0.00  0.00     0.028 C 
ATOM     10  C   LIG d   1       6.567  91.183 118.049  0.00  0.00     0.006 C 
ENDBRANCH   8   9
BRANCH   8  11
ATOM     11  C   LIG d   1       3.501  92.764 118.634  0.00  0.00     0.028 C 
ATOM     12  C   LIG d   1       1.986  92.871 118.393  0.00  0.00     0.006 C 
ENDBRANCH   8  11
ENDBRANCH   7   8
ENDBRANCH   1   7
BRANCH   6  13
ATOM     13  N   LIG d   1       1.658  89.334 117.880  0.00  0.00    -0.311 N 
ATOM     14  C   LIG d   1       0.403  89.488 118.300  0.00  0.00     0.210 C 
ATOM     15  C   LIG d   1       0.218  89.434 119.819  0.00  0.00     0.109 C 
ATOM     16  O   LIG d   1      -0.579  89.631 117.556  0.00  0.00    -0.276 OA
ATOM     17  H   LIG d   1       2.388  89.191 118.550  0.00  0.00     0.149 HD
ENDBRANCH   6  13
BRANCH   5  18
ATOM     18  N   LIG d   1       0.729  87.340 115.760  0.00  0.00     0.381 N 
ATOM     19  H   LIG d   1       0.258  87.601 114.917  0.00  0.00    -0.090 HD
ATOM     20  H   LIG d   1       0.189  87.673 116.539  0.00  0.00    -0.090 HD
ATOM     21  H   LIG d   1       0.817  86.349 115.807  0.00  0.00    -0.090 HD
ENDBRANCH   5  18
BRANCH   3  22
ATOM     22  C   LIG d   1       4.629  88.455 113.214  0.00  0.00     0.382 C 
ATOM     23  O   LIG d   1       5.490  89.280 112.823  0.00  0.00    -0.241 OA
ATOM     24  O   LIG d   1       4.523  87.358 112.633  0.00  0.00    -0.241 OA
ENDBRANCH   3  22
TORSDOF 7
ENDMDL
MODEL 5
REMARK VINA RESULT:      -4.4      5.849      8.128
REMARK  7 active torsions:
REMARK  status: ('A' for Active; 'I' for Inactive)
REMARK    1  A    between atoms: C_2  and  C_3 
REMARK    2  A    between atoms: C_3  and  O_6 
REMARK    3  A    between atoms: C_3  and  C_4 
REMARK    4  A    between atoms: C_7  and  O_6 
REMARK    5  A    between atoms: C_9  and  C_10 
REMARK    6  A    between atoms: N_15  and  C_14 
REMARK    7  A    between atoms: N_20  and  C_19 
REMARK       I    between atoms: C_22  and  N_20 
ROOT
ATOM      1  C   LIG d   1       2.717  90.040 116.683  0.00  0.00     0.161 C 
ATOM      2  C   LIG d   1       2.805  89.480 115.397  0.00  0.00     0.016 C 
ATOM      3  C   LIG d   1       4.031  89.167 114.767  0.00  0.00     0.038 C 
ATOM      4  C   LIG d   1       5.256  89.253 115.445  0.00  0.00     0.028 C 
ATOM      5  C   LIG d   1       5.258  90.288 116.565  0.00  0.00    -0.047 C 
ATOM      6  C   LIG d   1       4.038  90.037 117.481  0.00  0.00     0.091 C 
ENDROOT
BRANCH   1   7
ATOM      7  O   LIG d   1       1.677  89.381 117.433  0.00  0.00    -0.368 OA
BRANCH   7   8
ATOM      8  C   LIG d   1       0.376  90.019 117.415  0.00  0.00     0.119 C 
BRANCH   8   9
ATOM      9  C   LIG d   1       0.257  90.863 118.698  0.00  0.00     0.028 C 
ATOM     10  C   LIG d   1       0.147  92.368 118.403  0.00  0.00     0.006 C 
ENDBRANCH   8   9
BRANCH   8  11
ATOM     11  C   LIG d   1      -0.751  88.986 117.501  0.00  0.00     0.028 C 
ATOM     12  C   LIG d   1      -1.625  89.162 118.754  0.00  0.00     0.006 C 
ENDBRANCH   8  11
ENDBRANCH   7   8
ENDBRANCH   1   7
BRANCH   6  13
ATOM     13  N   LIG d   1       3.917  91.057 118.555  0.00  0.00    -0.311 N 
ATOM     14  C   LIG d   1       3.814  92.364 118.317  0.00  0.00     0.210 C 
ATOM     15  C   LIG d   1       3.720  93.244 119.567  0.00  0.00     0.109 C 
ATOM     16  O   LIG d   1       3.761  92.875 117.188  0.00  0.00    -0.276 OA
ATOM     17  H   LIG d   1       3.920  90.727 119.500  0.00  0.00     0.149 HD
ENDBRANCH   6  13
BRANCH   5  18
ATOM     18  N   LIG d   1       6.546  90.175 117.274  0.00  0.00     0.381 N 
ATOM     19  H   LIG d   1       6.633  90.917 117.939  0.00  0.00    -0.090 HD
ATOM     20  H   LIG d   1       7.293  90.260 116.607  0.00  0.00    -0.090 HD
ATOM     21  H   LIG d   1       6.604  89.295 117.738  0.00  0.00    -0.090 HD
ENDBRANCH   5  18
BRANCH   3  22
ATOM     22  C   LIG d   1       4.042  88.800 113.430  0.00  0.00     0.382 C 
ATOM     23  O   LIG d   1       5.133  88.671 112.824  0.00  0.00    -0.241 OA
ATOM     24  O   LIG d   1       2.974  88.639 112.810  0.00  0.00    -0.241 OA
ENDBRANCH   3  22
TORSDOF 7
ENDMDL
MODEL 6
REMARK VINA RESULT:      -4.3      5.170      7.007
REMARK  7 active torsions:
REMARK  status: ('A' for Active; 'I' for Inactive)
REMARK    1  A    between atoms: C_2  and  C_3 
REMARK    2  A    between atoms: C_3  and  O_6 
REMARK    3  A    between atoms: C_3  and  C_4 
REMARK    4  A    between atoms: C_7  and  O_6 
REMARK    5  A    between atoms: C_9  and  C_10 
REMARK    6  A    between atoms: N_15  and  C_14 
REMARK    7  A    between atoms: N_20  and  C_19 
REMARK       I    between atoms: C_22  and  N_20 
ROOT
ATOM      1  C   LIG d   1       2.772  90.201 116.892  0.00  0.00     0.161 C 
ATOM      2  C   LIG d   1       3.709  90.052 115.856  0.00  0.00     0.016 C 
ATOM      3  C   LIG d   1       3.605  89.066 114.848  0.00  0.00     0.038 C 
ATOM      4  C   LIG d   1       2.468  88.254 114.721  0.00  0.00     0.028 C 
ATOM      5  C   LIG d   1       1.735  88.028 116.038  0.00  0.00    -0.047 C 
ATOM      6  C   LIG d   1       1.469  89.397 116.706  0.00  0.00     0.091 C 
ENDROOT
BRANCH   1   7
ATOM      7  O   LIG d   1       2.475  91.598 117.085  0.00  0.00    -0.368 OA
BRANCH   7   8
ATOM      8  C   LIG d   1       3.045  92.214 118.267  0.00  0.00     0.119 C 
BRANCH   8   9
ATOM      9  C   LIG d   1       2.076  93.321 118.725  0.00  0.00     0.028 C 
ATOM     10  C   LIG d   1       0.615  92.843 118.761  0.00  0.00     0.006 C 
ENDBRANCH   8   9
BRANCH   8  11
ATOM     11  C   LIG d   1       4.358  92.933 117.942  0.00  0.00     0.028 C 
ATOM     12  C   LIG d   1       5.596  92.160 118.423  0.00  0.00     0.006 C 
ENDBRANCH   8  11
ENDBRANCH   7   8
ENDBRANCH   1   7
BRANCH   6  13
ATOM     13  N   LIG d   1       0.829  89.262 118.040  0.00  0.00    -0.311 N 
ATOM     14  C   LIG d   1      -0.489  89.311 118.230  0.00  0.00     0.210 C 
ATOM     15  C   LIG d   1      -0.938  89.170 119.688  0.00  0.00     0.109 C 
ATOM     16  O   LIG d   1      -1.329  89.426 117.325  0.00  0.00    -0.276 OA
ATOM     17  H   LIG d   1       1.436  89.134 118.826  0.00  0.00     0.149 HD
ENDBRANCH   6  13
BRANCH   5  18
ATOM     18  N   LIG d   1       0.498  87.282 115.737  0.00  0.00     0.381 N 
ATOM     19  H   LIG d   1      -0.229  87.920 115.481  0.00  0.00    -0.090 HD
ATOM     20  H   LIG d   1       0.208  86.788 116.563  0.00  0.00    -0.090 HD
ATOM     21  H   LIG d   1       0.661  86.637 114.996  0.00  0.00    -0.090 HD
ENDBRANCH   5  18
BRANCH   3  22
ATOM     22  C   LIG d   1       4.664  88.859 113.977  0.00  0.00     0.382 C 
ATOM     23  O   LIG d   1       5.442  87.891 114.156  0.00  0.00    -0.241 OA
ATOM     24  O   LIG d   1       4.878  89.653 113.042  0.00  0.00    -0.241 OA
ENDBRANCH   3  22
TORSDOF 7
ENDMDL
MODEL 7
REMARK VINA RESULT:      -4.3      4.593      6.601
REMARK  7 active torsions:
REMARK  status: ('A' for Active; 'I' for Inactive)
REMARK    1  A    between atoms: C_2  and  C_3 
REMARK    2  A    between atoms: C_3  and  O_6 
REMARK    3  A    between atoms: C_3  and  C_4 
REMARK    4  A    between atoms: C_7  and  O_6 
REMARK    5  A    between atoms: C_9  and  C_10 
REMARK    6  A    between atoms: N_15  and  C_14 
REMARK    7  A    between atoms: N_20  and  C_19 
REMARK       I    between atoms: C_22  and  N_20 
ROOT
ATOM      1  C   LIG d   1       1.971  90.582 117.400  0.00  0.00     0.161 C 
ATOM      2  C   LIG d   1       2.990  90.574 116.434  0.00  0.00     0.016 C 
ATOM      3  C   LIG d   1       3.075  89.612 115.400  0.00  0.00     0.038 C 
ATOM      4  C   LIG d   1       2.055  88.677 115.172  0.00  0.00     0.028 C 
ATOM      5  C   LIG d   1       1.261  88.329 116.427  0.00  0.00    -0.047 C 
ATOM      6  C   LIG d   1       0.789  89.637 117.101  0.00  0.00     0.091 C 
ENDROOT
BRANCH   1   7
ATOM      7  O   LIG d   1       1.498  91.929 117.600  0.00  0.00    -0.368 OA
BRANCH   7   8
ATOM      8  C   LIG d   1       2.326  92.778 118.432  0.00  0.00     0.119 C 
BRANCH   8   9
ATOM      9  C   LIG d   1       2.793  91.935 119.635  0.00  0.00     0.028 C 
ATOM     10  C   LIG d   1       4.291  92.113 119.930  0.00  0.00     0.006 C 
ENDBRANCH   8   9
BRANCH   8  11
ATOM     11  C   LIG d   1       1.514  93.929 119.035  0.00  0.00     0.028 C 
ATOM     12  C   LIG d   1       0.004  93.643 119.061  0.00  0.00     0.006 C 
ENDBRANCH   8  11
ENDBRANCH   7   8
ENDBRANCH   1   7
BRANCH   6  13
ATOM     13  N   LIG d   1       0.076  89.389 118.382  0.00  0.00    -0.311 N 
ATOM     14  C   LIG d   1      -1.248  89.284 118.475  0.00  0.00     0.210 C 
ATOM     15  C   LIG d   1      -1.780  89.048 119.893  0.00  0.00     0.109 C 
ATOM     16  O   LIG d   1      -2.031  89.331 117.515  0.00  0.00    -0.276 OA
ATOM     17  H   LIG d   1       0.637  89.306 119.207  0.00  0.00     0.149 HD
ENDBRANCH   6  13
BRANCH   5  18
ATOM     18  N   LIG d   1       0.146  87.453 116.020  0.00  0.00     0.381 N 
ATOM     19  H   LIG d   1      -0.549  87.432 116.740  0.00  0.00    -0.090 HD
ATOM     20  H   LIG d   1       0.496  86.519 115.893  0.00  0.00    -0.090 HD
ATOM     21  H   LIG d   1      -0.255  87.783 115.170  0.00  0.00    -0.090 HD
ENDBRANCH   5  18
BRANCH   3  22
ATOM     22  C   LIG d   1       4.210  89.555 114.606  0.00  0.00     0.382 C 
ATOM     23  O   LIG d   1       5.240  88.975 115.026  0.00  0.00    -0.241 OA
ATOM     24  O   LIG d   1       4.232  90.115 113.494  0.00  0.00    -0.241 OA
ENDBRANCH   3  22
TORSDOF 7
ENDMDL
MODEL 8
REMARK VINA RESULT:      -4.2      4.281      7.103
REMARK  7 active torsions:
REMARK  status: ('A' for Active; 'I' for Inactive)
REMARK    1  A    between atoms: C_2  and  C_3 
REMARK    2  A    between atoms: C_3  and  O_6 
REMARK    3  A    between atoms: C_3  and  C_4 
REMARK    4  A    between atoms: C_7  and  O_6 
REMARK    5  A    between atoms: C_9  and  C_10 
REMARK    6  A    between atoms: N_15  and  C_14 
REMARK    7  A    between atoms: N_20  and  C_19 
REMARK       I    between atoms: C_22  and  N_20 
ROOT
ATOM      1  C   LIG d   1       1.031  89.108 117.228  0.00  0.00     0.161 C 
ATOM      2  C   LIG d   1      -0.349  88.882 117.362  0.00  0.00     0.016 C 
ATOM      3  C   LIG d   1      -1.233  89.802 117.971  0.00  0.00     0.038 C 
ATOM      4  C   LIG d   1      -0.819  91.086 118.354  0.00  0.00     0.028 C 
ATOM      5  C   LIG d   1       0.665  91.166 118.699  0.00  0.00    -0.047 C 
ATOM      6  C   LIG d   1       1.483  90.550 117.540  0.00  0.00     0.091 C 
ENDROOT
BRANCH   1   7
ATOM      7  O   LIG d   1       1.463  88.722 115.909  0.00  0.00    -0.368 OA
BRANCH   7   8
ATOM      8  C   LIG d   1       2.296  87.539 115.832  0.00  0.00     0.119 C 
BRANCH   8   9
ATOM      9  C   LIG d   1       3.694  87.987 115.363  0.00  0.00     0.028 C 
ATOM     10  C   LIG d   1       3.641  89.236 114.467  0.00  0.00     0.006 C 
ENDBRANCH   8   9
BRANCH   8  11
ATOM     11  C   LIG d   1       1.796  86.575 114.753  0.00  0.00     0.028 C 
ATOM     12  C   LIG d   1       0.379  86.051 115.032  0.00  0.00     0.006 C 
ENDBRANCH   8  11
ENDBRANCH   7   8
ENDBRANCH   1   7
BRANCH   6  13
ATOM     13  N   LIG d   1       2.939  90.512 117.833  0.00  0.00    -0.311 N 
ATOM     14  C   LIG d   1       3.783  91.480 117.481  0.00  0.00     0.210 C 
ATOM     15  C   LIG d   1       5.246  91.232 117.862  0.00  0.00     0.109 C 
ATOM     16  O   LIG d   1       3.454  92.536 116.919  0.00  0.00    -0.276 OA
ATOM     17  H   LIG d   1       3.287  89.705 118.314  0.00  0.00     0.149 HD
ENDBRANCH   6  13
BRANCH   5  18
ATOM     18  N   LIG d   1       0.989  92.583 118.946  0.00  0.00     0.381 N 
ATOM     19  H   LIG d   1       1.669  92.653 119.677  0.00  0.00    -0.090 HD
ATOM     20  H   LIG d   1       0.156  93.060 119.244  0.00  0.00    -0.090 HD
ATOM     21  H   LIG d   1       1.341  93.003 118.114  0.00  0.00    -0.090 HD
ENDBRANCH   5  18
BRANCH   3  22
ATOM     22  C   LIG d   1      -2.541  89.425 118.238  0.00  0.00     0.382 C 
ATOM     23  O   LIG d   1      -3.234  90.092 119.044  0.00  0.00    -0.241 OA
ATOM     24  O   LIG d   1      -3.022  88.401 117.717  0.00  0.00    -0.241 OA
ENDBRANCH   3  22
TORSDOF 7
ENDMDL
MODEL 9
REMARK VINA RESULT:      -4.1      7.713     10.768
REMARK  7 active torsions:
REMARK  status: ('A' for Active; 'I' for Inactive)
REMARK    1  A    between atoms: C_2  and  C_3 
REMARK    2  A    between atoms: C_3  and  O_6 
REMARK    3  A    between atoms: C_3  and  C_4 
REMARK    4  A    between atoms: C_7  and  O_6 
REMARK    5  A    between atoms: C_9  and  C_10 
REMARK    6  A    between atoms: N_15  and  C_14 
REMARK    7  A    between atoms: N_20  and  C_19 
REMARK       I    between atoms: C_22  and  N_20 
ROOT
ATOM      1  C   LIG d   1       4.413  87.892 117.238  0.00  0.00     0.161 C 
ATOM      2  C   LIG d   1       3.568  89.001 117.069  0.00  0.00     0.016 C 
ATOM      3  C   LIG d   1       4.037  90.333 117.004  0.00  0.00     0.038 C 
ATOM      4  C   LIG d   1       5.405  90.636 116.951  0.00  0.00     0.028 C 
ATOM      5  C   LIG d   1       6.284  89.588 117.625  0.00  0.00    -0.047 C 
ATOM      6  C   LIG d   1       5.917  88.193 117.070  0.00  0.00     0.091 C 
ENDROOT
BRANCH   1   7
ATOM      7  O   LIG d   1       4.013  86.832 116.347  0.00  0.00    -0.368 OA
BRANCH   7   8
ATOM      8  C   LIG d   1       3.384  87.244 115.108  0.00  0.00     0.119 C 
BRANCH   8   9
ATOM      9  C   LIG d   1       2.274  86.224 114.790  0.00  0.00     0.028 C 
ATOM     10  C   LIG d   1       0.914  86.632 115.382  0.00  0.00     0.006 C 
ENDBRANCH   8   9
BRANCH   8  11
ATOM     11  C   LIG d   1       4.362  87.160 113.932  0.00  0.00     0.028 C 
ATOM     12  C   LIG d   1       4.775  88.542 113.400  0.00  0.00     0.006 C 
ENDBRANCH   8  11
ENDBRANCH   7   8
ENDBRANCH   1   7
BRANCH   6  13
ATOM     13  N   LIG d   1       6.672  87.101 117.738  0.00  0.00    -0.311 N 
ATOM     14  C   LIG d   1       7.793  86.576 117.245  0.00  0.00     0.210 C 
ATOM     15  C   LIG d   1       8.400  85.446 118.082  0.00  0.00     0.109 C 
ATOM     16  O   LIG d   1       8.359  86.961 116.211  0.00  0.00    -0.276 OA
ATOM     17  H   LIG d   1       6.301  86.750 118.599  0.00  0.00     0.149 HD
ENDBRANCH   6  13
BRANCH   5  18
ATOM     18  N   LIG d   1       7.690  89.958 117.376  0.00  0.00     0.381 N 
ATOM     19  H   LIG d   1       8.130  90.219 118.236  0.00  0.00    -0.090 HD
ATOM     20  H   LIG d   1       7.713  90.750 116.758  0.00  0.00    -0.090 HD
ATOM     21  H   LIG d   1       8.177  89.192 116.965  0.00  0.00    -0.090 HD
ENDBRANCH   5  18
BRANCH   3  22
ATOM     22  C   LIG d   1       3.131  91.382 117.031  0.00  0.00     0.382 C 
ATOM     23  O   LIG d   1       1.898  91.147 117.029  0.00  0.00    -0.241 OA
ATOM     24  O   LIG d   1       3.529  92.562 117.013  0.00  0.00    -0.241 OA
ENDBRANCH   3  22
TORSDOF 7
ENDMDL
