MODEL 1
REMARK VINA RESULT:      -5.7      0.000      0.000
REMARK  7 active torsions:
REMARK  status: ('A' for Active; 'I' for Inactive)
REMARK    1  A    between atoms: C_2  and  C_3 
REMARK    2  A    between atoms: C_3  and  O_6 
REMARK    3  A    between atoms: C_3  and  C_4 
REMARK    4  A    between atoms: C_7  and  O_6 
REMARK    5  A    between atoms: C_9  and  C_10 
REMARK    6  A    between atoms: N_15  and  C_14 
REMARK    7  A    between atoms: N_20  and  C_19 
REMARK       I    between atoms: C_22  and  N_20 
ROOT
ATOM      1  C   LIG d   1      -4.693  91.382 117.772  0.00  0.00     0.161 C 
ATOM      2  C   LIG d   1      -3.678  92.237 118.234  0.00  0.00     0.016 C 
ATOM      3  C   LIG d   1      -3.932  93.454 118.907  0.00  0.00     0.038 C 
ATOM      4  C   LIG d   1      -5.226  93.827 119.301  0.00  0.00     0.028 C 
ATOM      5  C   LIG d   1      -6.321  93.244 118.414  0.00  0.00    -0.047 C 
ATOM      6  C   LIG d   1      -6.107  91.718 118.291  0.00  0.00     0.091 C 
ENDROOT
BRANCH   1   7
ATOM      7  O   LIG d   1      -4.358  90.015 118.081  0.00  0.00    -0.368 OA
BRANCH   7   8
ATOM      8  C   LIG d   1      -3.119  89.810 118.803  0.00  0.00     0.119 C 
BRANCH   8   9
ATOM      9  C   LIG d   1      -2.113  89.173 117.824  0.00  0.00     0.028 C 
ATOM     10  C   LIG d   1      -0.776  89.933 117.780  0.00  0.00     0.006 C 
ENDBRANCH   8   9
BRANCH   8  11
ATOM     11  C   LIG d   1      -3.293  88.786 119.928  0.00  0.00     0.028 C 
ATOM     12  C   LIG d   1      -2.263  87.647 119.862  0.00  0.00     0.006 C 
ENDBRANCH   8  11
ENDBRANCH   7   8
ENDBRANCH   1   7
BRANCH   6  13
ATOM     13  N   LIG d   1      -7.086  91.081 117.372  0.00  0.00    -0.311 N 
ATOM     14  C   LIG d   1      -7.062  91.241 116.050  0.00  0.00     0.210 C 
ATOM     15  C   LIG d   1      -8.175  90.512 115.290  0.00  0.00     0.109 C 
ATOM     16  O   LIG d   1      -6.205  91.890 115.431  0.00  0.00    -0.276 OA
ATOM     17  H   LIG d   1      -7.798  90.512 117.787  0.00  0.00     0.149 HD
ENDBRANCH   6  13
BRANCH   5  18
ATOM     18  N   LIG d   1      -7.619  93.599 119.018  0.00  0.00     0.381 N 
ATOM     19  H   LIG d   1      -7.653  93.275 119.964  0.00  0.00    -0.090 HD
ATOM     20  H   LIG d   1      -8.353  93.144 118.503  0.00  0.00    -0.090 HD
ATOM     21  H   LIG d   1      -7.749  94.586 118.993  0.00  0.00    -0.090 HD
ENDBRANCH   5  18
BRANCH   3  22
ATOM     22  C   LIG d   1      -2.888  94.331 119.158  0.00  0.00     0.382 C 
ATOM     23  O   LIG d   1      -1.729  94.054 118.769  0.00  0.00    -0.241 OA
ATOM     24  O   LIG d   1      -3.084  95.376 119.808  0.00  0.00    -0.241 OA
ENDBRANCH   3  22
TORSDOF 7
ENDMDL
MODEL 2
REMARK VINA RESULT:      -5.5      2.734      5.017
REMARK  7 active torsions:
REMARK  status: ('A' for Active; 'I' for Inactive)
REMARK    1  A    between atoms: C_2  and  C_3 
REMARK    2  A    between atoms: C_3  and  O_6 
REMARK    3  A    between atoms: C_3  and  C_4 
REMARK    4  A    between atoms: C_7  and  O_6 
REMARK    5  A    between atoms: C_9  and  C_10 
REMARK    6  A    between atoms: N_15  and  C_14 
REMARK    7  A    between atoms: N_20  and  C_19 
REMARK       I    between atoms: C_22  and  N_20 
ROOT
ATOM      1  C   LIG d   1      -6.543  92.771 118.189  0.00  0.00     0.161 C 
ATOM      2  C   LIG d   1      -7.694  93.575 118.197  0.00  0.00     0.016 C 
ATOM      3  C   LIG d   1      -7.726  94.883 118.733  0.00  0.00     0.038 C 
ATOM      4  C   LIG d   1      -6.562  95.536 119.164  0.00  0.00     0.028 C 
ATOM      5  C   LIG d   1      -5.473  94.581 119.640  0.00  0.00    -0.047 C 
ATOM      6  C   LIG d   1      -5.237  93.507 118.554  0.00  0.00     0.091 C 
ENDROOT
BRANCH   1   7
ATOM      7  O   LIG d   1      -6.410  92.120 116.910  0.00  0.00    -0.368 OA
BRANCH   7   8
ATOM      8  C   LIG d   1      -6.673  90.695 116.889  0.00  0.00     0.119 C 
BRANCH   8   9
ATOM      9  C   LIG d   1      -5.529  90.024 116.105  0.00  0.00     0.028 C 
ATOM     10  C   LIG d   1      -5.954  89.607 114.688  0.00  0.00     0.006 C 
ENDBRANCH   8   9
BRANCH   8  11
ATOM     11  C   LIG d   1      -7.947  90.375 116.101  0.00  0.00     0.028 C 
ATOM     12  C   LIG d   1      -8.816  89.305 116.781  0.00  0.00     0.006 C 
ENDBRANCH   8  11
ENDBRANCH   7   8
ENDBRANCH   1   7
BRANCH   6  13
ATOM     13  N   LIG d   1      -4.246  92.483 118.975  0.00  0.00    -0.311 N 
ATOM     14  C   LIG d   1      -2.946  92.562 118.695  0.00  0.00     0.210 C 
ATOM     15  C   LIG d   1      -2.102  91.389 119.206  0.00  0.00     0.109 C 
ATOM     16  O   LIG d   1      -2.407  93.507 118.100  0.00  0.00    -0.276 OA
ATOM     17  H   LIG d   1      -4.592  91.697 119.490  0.00  0.00     0.149 HD
ENDBRANCH   6  13
BRANCH   5  18
ATOM     18  N   LIG d   1      -4.270  95.385 119.929  0.00  0.00     0.381 N 
ATOM     19  H   LIG d   1      -3.798  95.607 119.076  0.00  0.00    -0.090 HD
ATOM     20  H   LIG d   1      -3.647  94.844 120.503  0.00  0.00    -0.090 HD
ATOM     21  H   LIG d   1      -4.526  96.223 120.403  0.00  0.00    -0.090 HD
ENDBRANCH   5  18
BRANCH   3  22
ATOM     22  C   LIG d   1      -8.940  95.537 118.878  0.00  0.00     0.382 C 
ATOM     23  O   LIG d   1      -8.966  96.779 119.055  0.00  0.00    -0.241 OA
ATOM     24  O   LIG d   1     -10.007  94.895 118.879  0.00  0.00    -0.241 OA
ENDBRANCH   3  22
TORSDOF 7
ENDMDL
MODEL 3
REMARK VINA RESULT:      -4.9      2.577      6.243
REMARK  7 active torsions:
REMARK  status: ('A' for Active; 'I' for Inactive)
REMARK    1  A    between atoms: C_2  and  C_3 
REMARK    2  A    between atoms: C_3  and  O_6 
REMARK    3  A    between atoms: C_3  and  C_4 
REMARK    4  A    between atoms: C_7  and  O_6 
REMARK    5  A    between atoms: C_9  and  C_10 
REMARK    6  A    between atoms: N_15  and  C_14 
REMARK    7  A    between atoms: N_20  and  C_19 
REMARK       I    between atoms: C_22  and  N_20 
ROOT
ATOM      1  C   LIG d   1      -6.016  93.133 118.448  0.00  0.00     0.161 C 
ATOM      2  C   LIG d   1      -6.864  92.746 117.397  0.00  0.00     0.016 C 
ATOM      3  C   LIG d   1      -6.630  91.611 116.586  0.00  0.00     0.038 C 
ATOM      4  C   LIG d   1      -5.607  90.695 116.871  0.00  0.00     0.028 C 
ATOM      5  C   LIG d   1      -4.427  91.315 117.612  0.00  0.00    -0.047 C 
ATOM      6  C   LIG d   1      -4.957  92.083 118.845  0.00  0.00     0.091 C 
ENDROOT
BRANCH   1   7
ATOM      7  O   LIG d   1      -6.803  93.509 119.596  0.00  0.00    -0.368 OA
BRANCH   7   8
ATOM      8  C   LIG d   1      -6.900  94.929 119.864  0.00  0.00     0.119 C 
BRANCH   8   9
ATOM      9  C   LIG d   1      -7.642  95.575 118.678  0.00  0.00     0.028 C 
ATOM     10  C   LIG d   1      -9.166  95.399 118.773  0.00  0.00     0.006 C 
ENDBRANCH   8   9
BRANCH   8  11
ATOM     11  C   LIG d   1      -5.518  95.588 119.885  0.00  0.00     0.028 C 
ATOM     12  C   LIG d   1      -5.566  97.086 119.544  0.00  0.00     0.006 C 
ENDBRANCH   8  11
ENDBRANCH   7   8
ENDBRANCH   1   7
BRANCH   6  13
ATOM     13  N   LIG d   1      -3.876  92.790 119.579  0.00  0.00    -0.311 N 
ATOM     14  C   LIG d   1      -2.804  93.310 118.984  0.00  0.00     0.210 C 
ATOM     15  C   LIG d   1      -1.801  93.980 119.929  0.00  0.00     0.109 C 
ATOM     16  O   LIG d   1      -2.604  93.309 117.760  0.00  0.00    -0.276 OA
ATOM     17  H   LIG d   1      -3.973  92.865 120.573  0.00  0.00     0.149 HD
ENDBRANCH   6  13
BRANCH   5  18
ATOM     18  N   LIG d   1      -3.500  90.223 117.966  0.00  0.00     0.381 N 
ATOM     19  H   LIG d   1      -3.037  89.892 117.144  0.00  0.00    -0.090 HD
ATOM     20  H   LIG d   1      -4.027  89.463 118.359  0.00  0.00    -0.090 HD
ATOM     21  H   LIG d   1      -2.828  90.547 118.627  0.00  0.00    -0.090 HD
ENDBRANCH   5  18
BRANCH   3  22
ATOM     22  C   LIG d   1      -7.401  91.406 115.452  0.00  0.00     0.382 C 
ATOM     23  O   LIG d   1      -6.847  91.262 114.335  0.00  0.00    -0.241 OA
ATOM     24  O   LIG d   1      -8.644  91.408 115.525  0.00  0.00    -0.241 OA
ENDBRANCH   3  22
TORSDOF 7
ENDMDL
MODEL 4
REMARK VINA RESULT:      -4.5      2.571      6.009
REMARK  7 active torsions:
REMARK  status: ('A' for Active; 'I' for Inactive)
REMARK    1  A    between atoms: C_2  and  C_3 
REMARK    2  A    between atoms: C_3  and  O_6 
REMARK    3  A    between atoms: C_3  and  C_4 
REMARK    4  A    between atoms: C_7  and  O_6 
REMARK    5  A    between atoms: C_9  and  C_10 
REMARK    6  A    between atoms: N_15  and  C_14 
REMARK    7  A    between atoms: N_20  and  C_19 
REMARK       I    between atoms: C_22  and  N_20 
ROOT
ATOM      1  C   LIG d   1      -3.643  92.350 118.618  0.00  0.00     0.161 C 
ATOM      2  C   LIG d   1      -4.696  92.104 117.721  0.00  0.00     0.016 C 
ATOM      3  C   LIG d   1      -4.954  90.835 117.154  0.00  0.00     0.038 C 
ATOM      4  C   LIG d   1      -4.265  89.685 117.565  0.00  0.00     0.028 C 
ATOM      5  C   LIG d   1      -2.863  89.974 118.091  0.00  0.00    -0.047 C 
ATOM      6  C   LIG d   1      -2.949  91.084 119.163  0.00  0.00     0.091 C 
ENDROOT
BRANCH   1   7
ATOM      7  O   LIG d   1      -4.109  93.173 119.705  0.00  0.00    -0.368 OA
BRANCH   7   8
ATOM      8  C   LIG d   1      -3.418  94.433 119.892  0.00  0.00     0.119 C 
BRANCH   8   9
ATOM      9  C   LIG d   1      -4.484  95.545 119.930  0.00  0.00     0.028 C 
ATOM     10  C   LIG d   1      -5.909  94.998 119.737  0.00  0.00     0.006 C 
ENDBRANCH   8   9
BRANCH   8  11
ATOM     11  C   LIG d   1      -2.529  94.765 118.690  0.00  0.00     0.028 C 
ATOM     12  C   LIG d   1      -1.668  96.018 118.913  0.00  0.00     0.006 C 
ENDBRANCH   8  11
ENDBRANCH   7   8
ENDBRANCH   1   7
BRANCH   6  13
ATOM     13  N   LIG d   1      -1.611  91.487 119.670  0.00  0.00    -0.311 N 
ATOM     14  C   LIG d   1      -0.517  91.513 118.911  0.00  0.00     0.210 C 
ATOM     15  C   LIG d   1       0.763  91.940 119.637  0.00  0.00     0.109 C 
ATOM     16  O   LIG d   1      -0.491  91.255 117.698  0.00  0.00    -0.276 OA
ATOM     17  H   LIG d   1      -1.548  91.742 120.636  0.00  0.00     0.149 HD
ENDBRANCH   6  13
BRANCH   5  18
ATOM     18  N   LIG d   1      -2.312  88.708 118.611  0.00  0.00     0.381 N 
ATOM     19  H   LIG d   1      -2.616  87.946 118.039  0.00  0.00    -0.090 HD
ATOM     20  H   LIG d   1      -2.660  88.561 119.543  0.00  0.00    -0.090 HD
ATOM     21  H   LIG d   1      -1.317  88.749 118.623  0.00  0.00    -0.090 HD
ENDBRANCH   5  18
BRANCH   3  22
ATOM     22  C   LIG d   1      -5.886  90.715 116.134  0.00  0.00     0.382 C 
ATOM     23  O   LIG d   1      -6.381  89.594 115.865  0.00  0.00    -0.241 OA
ATOM     24  O   LIG d   1      -6.206  91.706 115.451  0.00  0.00    -0.241 OA
ENDBRANCH   3  22
TORSDOF 7
ENDMDL
MODEL 5
REMARK VINA RESULT:      -4.5      2.564      5.955
REMARK  7 active torsions:
REMARK  status: ('A' for Active; 'I' for Inactive)
REMARK    1  A    between atoms: C_2  and  C_3 
REMARK    2  A    between atoms: C_3  and  O_6 
REMARK    3  A    between atoms: C_3  and  C_4 
REMARK    4  A    between atoms: C_7  and  O_6 
REMARK    5  A    between atoms: C_9  and  C_10 
REMARK    6  A    between atoms: N_15  and  C_14 
REMARK    7  A    between atoms: N_20  and  C_19 
REMARK       I    between atoms: C_22  and  N_20 
ROOT
ATOM      1  C   LIG d   1      -3.600  92.269 118.604  0.00  0.00     0.161 C 
ATOM      2  C   LIG d   1      -4.624  92.050 117.667  0.00  0.00     0.016 C 
ATOM      3  C   LIG d   1      -4.899  90.786 117.096  0.00  0.00     0.038 C 
ATOM      4  C   LIG d   1      -4.262  89.618 117.539  0.00  0.00     0.028 C 
ATOM      5  C   LIG d   1      -2.874  89.868 118.120  0.00  0.00    -0.047 C 
ATOM      6  C   LIG d   1      -2.968  90.986 119.183  0.00  0.00     0.091 C 
ENDROOT
BRANCH   1   7
ATOM      7  O   LIG d   1      -4.084  93.113 119.667  0.00  0.00    -0.368 OA
BRANCH   7   8
ATOM      8  C   LIG d   1      -4.609  94.403 119.268  0.00  0.00     0.119 C 
BRANCH   8   9
ATOM      9  C   LIG d   1      -3.732  95.484 119.930  0.00  0.00     0.028 C 
ATOM     10  C   LIG d   1      -2.507  95.851 119.075  0.00  0.00     0.006 C 
ENDBRANCH   8   9
BRANCH   8  11
ATOM     11  C   LIG d   1      -6.018  94.628 119.824  0.00  0.00     0.028 C 
ATOM     12  C   LIG d   1      -7.119  94.333 118.793  0.00  0.00     0.006 C 
ENDBRANCH   8  11
ENDBRANCH   7   8
ENDBRANCH   1   7
BRANCH   6  13
ATOM     13  N   LIG d   1      -1.640  91.351 119.741  0.00  0.00    -0.311 N 
ATOM     14  C   LIG d   1      -0.595  91.686 118.986  0.00  0.00     0.210 C 
ATOM     15  C   LIG d   1       0.686  92.008 119.762  0.00  0.00     0.109 C 
ATOM     16  O   LIG d   1      -0.616  91.778 117.750  0.00  0.00    -0.276 OA
ATOM     17  H   LIG d   1      -1.543  91.333 120.737  0.00  0.00     0.149 HD
ENDBRANCH   6  13
BRANCH   5  18
ATOM     18  N   LIG d   1      -2.383  88.589 118.668  0.00  0.00     0.381 N 
ATOM     19  H   LIG d   1      -2.805  87.826 118.177  0.00  0.00    -0.090 HD
ATOM     20  H   LIG d   1      -2.649  88.527 119.635  0.00  0.00    -0.090 HD
ATOM     21  H   LIG d   1      -1.392  88.540 118.584  0.00  0.00    -0.090 HD
ENDBRANCH   5  18
BRANCH   3  22
ATOM     22  C   LIG d   1      -5.792  90.689 116.040  0.00  0.00     0.382 C 
ATOM     23  O   LIG d   1      -6.213  91.728 115.477  0.00  0.00    -0.241 OA
ATOM     24  O   LIG d   1      -6.217  89.577 115.672  0.00  0.00    -0.241 OA
ENDBRANCH   3  22
TORSDOF 7
ENDMDL
MODEL 6
REMARK VINA RESULT:      -3.9      1.908      2.508
REMARK  7 active torsions:
REMARK  status: ('A' for Active; 'I' for Inactive)
REMARK    1  A    between atoms: C_2  and  C_3 
REMARK    2  A    between atoms: C_3  and  O_6 
REMARK    3  A    between atoms: C_3  and  C_4 
REMARK    4  A    between atoms: C_7  and  O_6 
REMARK    5  A    between atoms: C_9  and  C_10 
REMARK    6  A    between atoms: N_15  and  C_14 
REMARK    7  A    between atoms: N_20  and  C_19 
REMARK       I    between atoms: C_22  and  N_20 
ROOT
ATOM      1  C   LIG d   1      -4.485  91.645 118.062  0.00  0.00     0.161 C 
ATOM      2  C   LIG d   1      -4.678  92.763 118.891  0.00  0.00     0.016 C 
ATOM      3  C   LIG d   1      -5.853  93.549 118.876  0.00  0.00     0.038 C 
ATOM      4  C   LIG d   1      -6.984  93.179 118.133  0.00  0.00     0.028 C 
ATOM      5  C   LIG d   1      -6.652  92.343 116.902  0.00  0.00    -0.047 C 
ATOM      6  C   LIG d   1      -5.752  91.160 117.325  0.00  0.00     0.091 C 
ENDROOT
BRANCH   1   7
ATOM      7  O   LIG d   1      -3.905  90.567 118.822  0.00  0.00    -0.368 OA
BRANCH   7   8
ATOM      8  C   LIG d   1      -2.491  90.329 118.614  0.00  0.00     0.119 C 
BRANCH   8   9
ATOM      9  C   LIG d   1      -2.254  88.812 118.737  0.00  0.00     0.028 C 
ATOM     10  C   LIG d   1      -0.774  88.467 118.978  0.00  0.00     0.006 C 
ENDBRANCH   8   9
BRANCH   8  11
ATOM     11  C   LIG d   1      -1.649  90.963 119.725  0.00  0.00     0.028 C 
ATOM     12  C   LIG d   1      -0.472  91.789 119.184  0.00  0.00     0.006 C 
ENDBRANCH   8  11
ENDBRANCH   7   8
ENDBRANCH   1   7
BRANCH   6  13
ATOM     13  N   LIG d   1      -5.312  90.340 116.167  0.00  0.00    -0.311 N 
ATOM     14  C   LIG d   1      -6.113  89.495 115.520  0.00  0.00     0.210 C 
ATOM     15  C   LIG d   1      -5.453  88.733 114.367  0.00  0.00     0.109 C 
ATOM     16  O   LIG d   1      -7.316  89.329 115.771  0.00  0.00    -0.276 OA
ATOM     17  H   LIG d   1      -4.358  90.435 115.876  0.00  0.00     0.149 HD
ENDBRANCH   6  13
BRANCH   5  18
ATOM     18  N   LIG d   1      -7.928  91.912 116.299  0.00  0.00     0.381 N 
ATOM     19  H   LIG d   1      -7.825  90.997 115.908  0.00  0.00    -0.090 HD
ATOM     20  H   LIG d   1      -8.169  92.547 115.559  0.00  0.00    -0.090 HD
ATOM     21  H   LIG d   1      -8.646  91.907 116.989  0.00  0.00    -0.090 HD
ENDBRANCH   5  18
BRANCH   3  22
ATOM     22  C   LIG d   1      -5.890  94.743 119.581  0.00  0.00     0.382 C 
ATOM     23  O   LIG d   1      -4.820  95.298 119.930  0.00  0.00    -0.241 OA
ATOM     24  O   LIG d   1      -6.979  95.249 119.910  0.00  0.00    -0.241 OA
ENDBRANCH   3  22
TORSDOF 7
ENDMDL
MODEL 7
REMARK VINA RESULT:      -3.8      8.500     11.460
REMARK  7 active torsions:
REMARK  status: ('A' for Active; 'I' for Inactive)
REMARK    1  A    between atoms: C_2  and  C_3 
REMARK    2  A    between atoms: C_3  and  O_6 
REMARK    3  A    between atoms: C_3  and  C_4 
REMARK    4  A    between atoms: C_7  and  O_6 
REMARK    5  A    between atoms: C_9  and  C_10 
REMARK    6  A    between atoms: N_15  and  C_14 
REMARK    7  A    between atoms: N_20  and  C_19 
REMARK       I    between atoms: C_22  and  N_20 
ROOT
ATOM      1  C   LIG d   1       3.957  85.430 115.676  0.00  0.00     0.161 C 
ATOM      2  C   LIG d   1       2.574  85.588 115.866  0.00  0.00     0.016 C 
ATOM      3  C   LIG d   1       2.013  86.246 116.985  0.00  0.00     0.038 C 
ATOM      4  C   LIG d   1       2.807  86.928 117.919  0.00  0.00     0.028 C 
ATOM      5  C   LIG d   1       4.219  86.365 118.039  0.00  0.00    -0.047 C 
ATOM      6  C   LIG d   1       4.840  86.263 116.627  0.00  0.00     0.091 C 
ENDROOT
BRANCH   1   7
ATOM      7  O   LIG d   1       4.296  85.710 114.303  0.00  0.00    -0.368 OA
BRANCH   7   8
ATOM      8  C   LIG d   1       3.371  86.559 113.579  0.00  0.00     0.119 C 
BRANCH   8   9
ATOM      9  C   LIG d   1       2.482  85.643 112.715  0.00  0.00     0.028 C 
ATOM     10  C   LIG d   1       1.084  86.237 112.477  0.00  0.00     0.006 C 
ENDBRANCH   8   9
BRANCH   8  11
ATOM     11  C   LIG d   1       4.107  87.464 112.586  0.00  0.00     0.028 C 
ATOM     12  C   LIG d   1       5.315  88.178 113.212  0.00  0.00     0.006 C 
ENDBRANCH   8  11
ENDBRANCH   7   8
ENDBRANCH   1   7
BRANCH   6  13
ATOM     13  N   LIG d   1       6.191  85.643 116.645  0.00  0.00    -0.311 N 
ATOM     14  C   LIG d   1       7.321  86.346 116.582  0.00  0.00     0.210 C 
ATOM     15  C   LIG d   1       8.604  85.508 116.595  0.00  0.00     0.109 C 
ATOM     16  O   LIG d   1       7.383  87.584 116.550  0.00  0.00    -0.276 OA
ATOM     17  H   LIG d   1       6.234  84.645 116.702  0.00  0.00     0.149 HD
ENDBRANCH   6  13
BRANCH   5  18
ATOM     18  N   LIG d   1       4.978  87.252 118.942  0.00  0.00     0.381 N 
ATOM     19  H   LIG d   1       5.860  86.836 119.163  0.00  0.00    -0.090 HD
ATOM     20  H   LIG d   1       4.460  87.366 119.796  0.00  0.00    -0.090 HD
ATOM     21  H   LIG d   1       5.119  88.138 118.510  0.00  0.00    -0.090 HD
ENDBRANCH   5  18
BRANCH   3  22
ATOM     22  C   LIG d   1       0.644  86.193 117.199  0.00  0.00     0.382 C 
ATOM     23  O   LIG d   1      -0.123  86.934 116.539  0.00  0.00    -0.241 OA
ATOM     24  O   LIG d   1       0.170  85.444 118.075  0.00  0.00    -0.241 OA
ENDBRANCH   3  22
TORSDOF 7
ENDMDL
MODEL 8
REMARK VINA RESULT:      -3.1      7.877     10.815
REMARK  7 active torsions:
REMARK  status: ('A' for Active; 'I' for Inactive)
REMARK    1  A    between atoms: C_2  and  C_3 
REMARK    2  A    between atoms: C_3  and  O_6 
REMARK    3  A    between atoms: C_3  and  C_4 
REMARK    4  A    between atoms: C_7  and  O_6 
REMARK    5  A    between atoms: C_9  and  C_10 
REMARK    6  A    between atoms: N_15  and  C_14 
REMARK    7  A    between atoms: N_20  and  C_19 
REMARK       I    between atoms: C_22  and  N_20 
ROOT
ATOM      1  C   LIG d   1       5.059  90.140 119.116  0.00  0.00     0.161 C 
ATOM      2  C   LIG d   1       3.800  90.708 119.372  0.00  0.00     0.016 C 
ATOM      3  C   LIG d   1       2.624  89.944 119.551  0.00  0.00     0.038 C 
ATOM      4  C   LIG d   1       2.655  88.544 119.636  0.00  0.00     0.028 C 
ATOM      5  C   LIG d   1       3.822  87.917 118.881  0.00  0.00    -0.047 C 
ATOM      6  C   LIG d   1       5.132  88.612 119.316  0.00  0.00     0.091 C 
ENDROOT
BRANCH   1   7
ATOM      7  O   LIG d   1       6.063  90.798 119.913  0.00  0.00    -0.368 OA
BRANCH   7   8
ATOM      8  C   LIG d   1       6.962  91.685 119.202  0.00  0.00     0.119 C 
BRANCH   8   9
ATOM      9  C   LIG d   1       8.389  91.130 119.371  0.00  0.00     0.028 C 
ATOM     10  C   LIG d   1       9.135  91.012 118.031  0.00  0.00     0.006 C 
ENDBRANCH   8   9
BRANCH   8  11
ATOM     11  C   LIG d   1       6.991  93.077 119.840  0.00  0.00     0.028 C 
ATOM     12  C   LIG d   1       7.248  94.195 118.817  0.00  0.00     0.006 C 
ENDBRANCH   8  11
ENDBRANCH   7   8
ENDBRANCH   1   7
BRANCH   6  13
ATOM     13  N   LIG d   1       6.314  88.116 118.563  0.00  0.00    -0.311 N 
ATOM     14  C   LIG d   1       6.543  88.407 117.283  0.00  0.00     0.210 C 
ATOM     15  C   LIG d   1       7.809  87.777 116.693  0.00  0.00     0.109 C 
ATOM     16  O   LIG d   1       5.836  89.154 116.590  0.00  0.00    -0.276 OA
ATOM     17  H   LIG d   1       6.956  87.528 119.057  0.00  0.00     0.149 HD
ENDBRANCH   6  13
BRANCH   5  18
ATOM     18  N   LIG d   1       3.812  86.470 119.167  0.00  0.00     0.381 N 
ATOM     19  H   LIG d   1       4.322  86.288 120.009  0.00  0.00    -0.090 HD
ATOM     20  H   LIG d   1       4.266  85.986 118.413  0.00  0.00    -0.090 HD
ATOM     21  H   LIG d   1       2.874  86.147 119.262  0.00  0.00    -0.090 HD
ENDBRANCH   5  18
BRANCH   3  22
ATOM     22  C   LIG d   1       1.393  90.580 119.606  0.00  0.00     0.382 C 
ATOM     23  O   LIG d   1       1.333  91.809 119.851  0.00  0.00    -0.241 OA
ATOM     24  O   LIG d   1       0.340  89.932 119.459  0.00  0.00    -0.241 OA
ENDBRANCH   3  22
TORSDOF 7
ENDMDL
MODEL 9
REMARK VINA RESULT:      -3.1      7.593     10.491
REMARK  7 active torsions:
REMARK  status: ('A' for Active; 'I' for Inactive)
REMARK    1  A    between atoms: C_2  and  C_3 
REMARK    2  A    between atoms: C_3  and  O_6 
REMARK    3  A    between atoms: C_3  and  C_4 
REMARK    4  A    between atoms: C_7  and  O_6 
REMARK    5  A    between atoms: C_9  and  C_10 
REMARK    6  A    between atoms: N_15  and  C_14 
REMARK    7  A    between atoms: N_20  and  C_19 
REMARK       I    between atoms: C_22  and  N_20 
ROOT
ATOM      1  C   LIG d   1       2.460  86.513 117.746  0.00  0.00     0.161 C 
ATOM      2  C   LIG d   1       1.744  86.322 116.553  0.00  0.00     0.016 C 
ATOM      3  C   LIG d   1       2.337  85.869 115.353  0.00  0.00     0.038 C 
ATOM      4  C   LIG d   1       3.669  85.430 115.304  0.00  0.00     0.028 C 
ATOM      5  C   LIG d   1       4.560  86.081 116.356  0.00  0.00    -0.047 C 
ATOM      6  C   LIG d   1       3.891  85.934 117.742  0.00  0.00     0.091 C 
ENDROOT
BRANCH   1   7
ATOM      7  O   LIG d   1       1.710  85.985 118.858  0.00  0.00    -0.368 OA
BRANCH   7   8
ATOM      8  C   LIG d   1       1.124  86.963 119.753  0.00  0.00     0.119 C 
BRANCH   8   9
ATOM      9  C   LIG d   1      -0.407  86.866 119.607  0.00  0.00     0.028 C 
ATOM     10  C   LIG d   1      -0.937  85.453 119.903  0.00  0.00     0.006 C 
ENDBRANCH   8   9
BRANCH   8  11
ATOM     11  C   LIG d   1       1.483  88.390 119.331  0.00  0.00     0.028 C 
ATOM     12  C   LIG d   1       0.249  89.231 118.964  0.00  0.00     0.006 C 
ENDBRANCH   8  11
ENDBRANCH   7   8
ENDBRANCH   1   7
BRANCH   6  13
ATOM     13  N   LIG d   1       4.656  86.617 118.817  0.00  0.00    -0.311 N 
ATOM     14  C   LIG d   1       5.291  87.775 118.642  0.00  0.00     0.210 C 
ATOM     15  C   LIG d   1       6.036  88.295 119.875  0.00  0.00     0.109 C 
ATOM     16  O   LIG d   1       5.280  88.436 117.593  0.00  0.00    -0.276 OA
ATOM     17  H   LIG d   1       4.691  86.165 119.710  0.00  0.00     0.149 HD
ENDBRANCH   6  13
BRANCH   5  18
ATOM     18  N   LIG d   1       5.883  85.432 116.282  0.00  0.00     0.381 N 
ATOM     19  H   LIG d   1       5.772  84.439 116.235  0.00  0.00    -0.090 HD
ATOM     20  H   LIG d   1       6.400  85.652 117.115  0.00  0.00    -0.090 HD
ATOM     21  H   LIG d   1       6.378  85.757 115.480  0.00  0.00    -0.090 HD
ENDBRANCH   5  18
BRANCH   3  22
ATOM     22  C   LIG d   1       1.607  85.890 114.174  0.00  0.00     0.382 C 
ATOM     23  O   LIG d   1       2.177  85.667 113.079  0.00  0.00    -0.241 OA
ATOM     24  O   LIG d   1       0.394  86.174 114.188  0.00  0.00    -0.241 OA
ENDBRANCH   3  22
TORSDOF 7
ENDMDL
