MODEL 1
REMARK VINA RESULT:      -4.7      0.000      0.000
REMARK  7 active torsions:
REMARK  status: ('A' for Active; 'I' for Inactive)
REMARK    1  A    between atoms: C_2  and  C_3 
REMARK    2  A    between atoms: C_3  and  O_6 
REMARK    3  A    between atoms: C_3  and  C_4 
REMARK    4  A    between atoms: C_7  and  O_6 
REMARK    5  A    between atoms: C_9  and  C_10 
REMARK    6  A    between atoms: N_15  and  C_14 
REMARK    7  A    between atoms: N_20  and  C_19 
REMARK       I    between atoms: C_22  and  N_20 
ROOT
ATOM      1  C   LIG d   1       1.434  88.742 116.158  0.00  0.00     0.161 C 
ATOM      2  C   LIG d   1       0.109  88.871 116.605  0.00  0.00     0.016 C 
ATOM      3  C   LIG d   1      -0.387  90.030 117.247  0.00  0.00     0.038 C 
ATOM      4  C   LIG d   1       0.375  91.203 117.351  0.00  0.00     0.028 C 
ATOM      5  C   LIG d   1       1.879  90.949 117.367  0.00  0.00    -0.047 C 
ATOM      6  C   LIG d   1       2.249  90.052 116.163  0.00  0.00     0.091 C 
ENDROOT
BRANCH   1   7
ATOM      7  O   LIG d   1       1.452  88.146 114.846  0.00  0.00    -0.368 OA
BRANCH   7   8
ATOM      8  C   LIG d   1       1.746  86.728 114.794  0.00  0.00     0.119 C 
BRANCH   8   9
ATOM      9  C   LIG d   1       3.076  86.559 114.035  0.00  0.00     0.028 C 
ATOM     10  C   LIG d   1       3.086  87.307 112.692  0.00  0.00     0.006 C 
ENDBRANCH   8   9
BRANCH   8  11
ATOM     11  C   LIG d   1       0.705  85.974 113.960  0.00  0.00     0.028 C 
ATOM     12  C   LIG d   1      -0.599  85.714 114.730  0.00  0.00     0.006 C 
ENDBRANCH   8  11
ENDBRANCH   7   8
ENDBRANCH   1   7
BRANCH   6  13
ATOM     13  N   LIG d   1       3.690  89.686 116.151  0.00  0.00    -0.311 N 
ATOM     14  C   LIG d   1       4.482  89.862 115.095  0.00  0.00     0.210 C 
ATOM     15  C   LIG d   1       5.929  89.398 115.288  0.00  0.00     0.109 C 
ATOM     16  O   LIG d   1       4.131  90.387 114.028  0.00  0.00    -0.276 OA
ATOM     17  H   LIG d   1       4.065  89.282 116.987  0.00  0.00     0.149 HD
ENDBRANCH   6  13
BRANCH   5  18
ATOM     18  N   LIG d   1       2.553  92.261 117.339  0.00  0.00     0.381 N 
ATOM     19  H   LIG d   1       2.718  92.577 118.274  0.00  0.00    -0.090 HD
ATOM     20  H   LIG d   1       1.952  92.925 116.884  0.00  0.00    -0.090 HD
ATOM     21  H   LIG d   1       3.416  92.191 116.847  0.00  0.00    -0.090 HD
ENDBRANCH   5  18
BRANCH   3  22
ATOM     22  C   LIG d   1      -1.645  90.008 117.828  0.00  0.00     0.382 C 
ATOM     23  O   LIG d   1      -2.649  89.702 117.140  0.00  0.00    -0.241 OA
ATOM     24  O   LIG d   1      -1.796  90.333 119.021  0.00  0.00    -0.241 OA
ENDBRANCH   3  22
TORSDOF 7
ENDMDL
MODEL 2
REMARK VINA RESULT:      -4.6      2.743      5.613
REMARK  7 active torsions:
REMARK  status: ('A' for Active; 'I' for Inactive)
REMARK    1  A    between atoms: C_2  and  C_3 
REMARK    2  A    between atoms: C_3  and  O_6 
REMARK    3  A    between atoms: C_3  and  C_4 
REMARK    4  A    between atoms: C_7  and  O_6 
REMARK    5  A    between atoms: C_9  and  C_10 
REMARK    6  A    between atoms: N_15  and  C_14 
REMARK    7  A    between atoms: N_20  and  C_19 
REMARK       I    between atoms: C_22  and  N_20 
ROOT
ATOM      1  C   LIG d   1       4.333  88.575 116.678  0.00  0.00     0.161 C 
ATOM      2  C   LIG d   1       5.176  89.260 117.570  0.00  0.00     0.016 C 
ATOM      3  C   LIG d   1       6.253  90.074 117.154  0.00  0.00     0.038 C 
ATOM      4  C   LIG d   1       6.470  90.383 115.803  0.00  0.00     0.028 C 
ATOM      5  C   LIG d   1       5.956  89.312 114.846  0.00  0.00    -0.047 C 
ATOM      6  C   LIG d   1       4.486  88.989 115.199  0.00  0.00     0.091 C 
ENDROOT
BRANCH   1   7
ATOM      7  O   LIG d   1       2.962  88.713 117.098  0.00  0.00    -0.368 OA
BRANCH   7   8
ATOM      8  C   LIG d   1       2.237  89.841 116.548  0.00  0.00     0.119 C 
BRANCH   8   9
ATOM      9  C   LIG d   1       2.066  90.876 117.677  0.00  0.00     0.028 C 
ATOM     10  C   LIG d   1       2.937  92.126 117.464  0.00  0.00     0.006 C 
ENDBRANCH   8   9
BRANCH   8  11
ATOM     11  C   LIG d   1       0.814  89.445 116.142  0.00  0.00     0.028 C 
ATOM     12  C   LIG d   1       0.620  87.923 116.062  0.00  0.00     0.006 C 
ENDBRANCH   8  11
ENDBRANCH   7   8
ENDBRANCH   1   7
BRANCH   6  13
ATOM     13  N   LIG d   1       3.931  87.890 114.366  0.00  0.00    -0.311 N 
ATOM     14  C   LIG d   1       3.292  88.094 113.216  0.00  0.00     0.210 C 
ATOM     15  C   LIG d   1       2.782  86.825 112.525  0.00  0.00     0.109 C 
ATOM     16  O   LIG d   1       3.126  89.203 112.685  0.00  0.00    -0.276 OA
ATOM     17  H   LIG d   1       4.049  86.956 114.706  0.00  0.00     0.149 HD
ENDBRANCH   6  13
BRANCH   5  18
ATOM     18  N   LIG d   1       6.122  89.824 113.473  0.00  0.00     0.381 N 
ATOM     19  H   LIG d   1       6.962  89.456 113.074  0.00  0.00    -0.090 HD
ATOM     20  H   LIG d   1       6.200  90.825 113.507  0.00  0.00    -0.090 HD
ATOM     21  H   LIG d   1       5.338  89.563 112.915  0.00  0.00    -0.090 HD
ENDBRANCH   5  18
BRANCH   3  22
ATOM     22  C   LIG d   1       7.152  90.558 118.092  0.00  0.00     0.382 C 
ATOM     23  O   LIG d   1       6.735  91.009 119.186  0.00  0.00    -0.241 OA
ATOM     24  O   LIG d   1       8.372  90.589 117.841  0.00  0.00    -0.241 OA
ENDBRANCH   3  22
TORSDOF 7
ENDMDL
MODEL 3
REMARK VINA RESULT:      -4.4      1.712      2.095
REMARK  7 active torsions:
REMARK  status: ('A' for Active; 'I' for Inactive)
REMARK    1  A    between atoms: C_2  and  C_3 
REMARK    2  A    between atoms: C_3  and  O_6 
REMARK    3  A    between atoms: C_3  and  C_4 
REMARK    4  A    between atoms: C_7  and  O_6 
REMARK    5  A    between atoms: C_9  and  C_10 
REMARK    6  A    between atoms: N_15  and  C_14 
REMARK    7  A    between atoms: N_20  and  C_19 
REMARK       I    between atoms: C_22  and  N_20 
ROOT
ATOM      1  C   LIG d   1       0.527  89.684 117.137  0.00  0.00     0.161 C 
ATOM      2  C   LIG d   1      -0.874  89.712 117.247  0.00  0.00     0.016 C 
ATOM      3  C   LIG d   1      -1.589  90.803 117.793  0.00  0.00     0.038 C 
ATOM      4  C   LIG d   1      -0.958  92.010 118.128  0.00  0.00     0.028 C 
ATOM      5  C   LIG d   1       0.510  91.842 118.505  0.00  0.00    -0.047 C 
ATOM      6  C   LIG d   1       1.223  91.036 117.396  0.00  0.00     0.091 C 
ENDROOT
BRANCH   1   7
ATOM      7  O   LIG d   1       0.905  89.164 115.847  0.00  0.00    -0.368 OA
BRANCH   7   8
ATOM      8  C   LIG d   1       1.491  87.839 115.841  0.00  0.00     0.119 C 
BRANCH   8   9
ATOM      9  C   LIG d   1       2.571  87.815 114.742  0.00  0.00     0.028 C 
ATOM     10  C   LIG d   1       3.266  89.177 114.573  0.00  0.00     0.006 C 
ENDBRANCH   8   9
BRANCH   8  11
ATOM     11  C   LIG d   1       0.467  86.778 115.427  0.00  0.00     0.028 C 
ATOM     12  C   LIG d   1       0.801  86.122 114.078  0.00  0.00     0.006 C 
ENDBRANCH   8  11
ENDBRANCH   7   8
ENDBRANCH   1   7
BRANCH   6  13
ATOM     13  N   LIG d   1       2.645  90.754 117.725  0.00  0.00    -0.311 N 
ATOM     14  C   LIG d   1       3.646  91.577 117.417  0.00  0.00     0.210 C 
ATOM     15  C   LIG d   1       5.037  91.085 117.830  0.00  0.00     0.109 C 
ATOM     16  O   LIG d   1       3.511  92.681 116.870  0.00  0.00    -0.276 OA
ATOM     17  H   LIG d   1       2.841  89.893 118.198  0.00  0.00     0.149 HD
ENDBRANCH   6  13
BRANCH   5  18
ATOM     18  N   LIG d   1       1.078  93.190 118.697  0.00  0.00     0.381 N 
ATOM     19  H   LIG d   1       1.969  93.249 118.247  0.00  0.00    -0.090 HD
ATOM     20  H   LIG d   1       1.210  93.350 119.680  0.00  0.00    -0.090 HD
ATOM     21  H   LIG d   1       0.461  93.876 118.321  0.00  0.00    -0.090 HD
ENDBRANCH   5  18
BRANCH   3  22
ATOM     22  C   LIG d   1      -2.947  90.677 118.044  0.00  0.00     0.382 C 
ATOM     23  O   LIG d   1      -3.567  89.662 117.646  0.00  0.00    -0.241 OA
ATOM     24  O   LIG d   1      -3.569  91.586 118.625  0.00  0.00    -0.241 OA
ENDBRANCH   3  22
TORSDOF 7
ENDMDL
MODEL 4
REMARK VINA RESULT:      -4.4      2.536      4.471
REMARK  7 active torsions:
REMARK  status: ('A' for Active; 'I' for Inactive)
REMARK    1  A    between atoms: C_2  and  C_3 
REMARK    2  A    between atoms: C_3  and  O_6 
REMARK    3  A    between atoms: C_3  and  C_4 
REMARK    4  A    between atoms: C_7  and  O_6 
REMARK    5  A    between atoms: C_9  and  C_10 
REMARK    6  A    between atoms: N_15  and  C_14 
REMARK    7  A    between atoms: N_20  and  C_19 
REMARK       I    between atoms: C_22  and  N_20 
ROOT
ATOM      1  C   LIG d   1       2.752  88.974 115.911  0.00  0.00     0.161 C 
ATOM      2  C   LIG d   1       3.201  90.159 116.519  0.00  0.00     0.016 C 
ATOM      3  C   LIG d   1       2.337  91.092 117.136  0.00  0.00     0.038 C 
ATOM      4  C   LIG d   1       0.972  90.829 117.322  0.00  0.00     0.028 C 
ATOM      5  C   LIG d   1       0.391  89.879 116.280  0.00  0.00    -0.047 C 
ATOM      6  C   LIG d   1       1.279  88.617 116.202  0.00  0.00     0.091 C 
ENDROOT
BRANCH   1   7
ATOM      7  O   LIG d   1       3.615  87.879 116.278  0.00  0.00    -0.368 OA
BRANCH   7   8
ATOM      8  C   LIG d   1       4.447  87.342 115.221  0.00  0.00     0.119 C 
BRANCH   8   9
ATOM      9  C   LIG d   1       5.904  87.737 115.532  0.00  0.00     0.028 C 
ATOM     10  C   LIG d   1       6.202  87.736 117.041  0.00  0.00     0.006 C 
ENDBRANCH   8   9
BRANCH   8  11
ATOM     11  C   LIG d   1       4.129  87.998 113.874  0.00  0.00     0.028 C 
ATOM     12  C   LIG d   1       5.388  88.461 113.124  0.00  0.00     0.006 C 
ENDBRANCH   8  11
ENDBRANCH   7   8
ENDBRANCH   1   7
BRANCH   6  13
ATOM     13  N   LIG d   1       0.829  87.672 115.147  0.00  0.00    -0.311 N 
ATOM     14  C   LIG d   1       0.564  86.387 115.378  0.00  0.00     0.210 C 
ATOM     15  C   LIG d   1       0.133  85.584 114.146  0.00  0.00     0.109 C 
ATOM     16  O   LIG d   1       0.613  85.844 116.491  0.00  0.00    -0.276 OA
ATOM     17  H   LIG d   1       0.733  88.036 114.219  0.00  0.00     0.149 HD
ENDBRANCH   6  13
BRANCH   5  18
ATOM     18  N   LIG d   1      -1.000  89.584 116.673  0.00  0.00     0.381 N 
ATOM     19  H   LIG d   1      -1.222  90.066 117.521  0.00  0.00    -0.090 HD
ATOM     20  H   LIG d   1      -1.089  88.597 116.838  0.00  0.00    -0.090 HD
ATOM     21  H   LIG d   1      -1.625  89.864 115.949  0.00  0.00    -0.090 HD
ENDBRANCH   5  18
BRANCH   3  22
ATOM     22  C   LIG d   1       2.832  92.323 117.540  0.00  0.00     0.382 C 
ATOM     23  O   LIG d   1       2.219  92.991 118.408  0.00  0.00    -0.241 OA
ATOM     24  O   LIG d   1       3.858  92.795 117.015  0.00  0.00    -0.241 OA
ENDBRANCH   3  22
TORSDOF 7
ENDMDL
MODEL 5
REMARK VINA RESULT:      -4.2      1.752      4.866
REMARK  7 active torsions:
REMARK  status: ('A' for Active; 'I' for Inactive)
REMARK    1  A    between atoms: C_2  and  C_3 
REMARK    2  A    between atoms: C_3  and  O_6 
REMARK    3  A    between atoms: C_3  and  C_4 
REMARK    4  A    between atoms: C_7  and  O_6 
REMARK    5  A    between atoms: C_9  and  C_10 
REMARK    6  A    between atoms: N_15  and  C_14 
REMARK    7  A    between atoms: N_20  and  C_19 
REMARK       I    between atoms: C_22  and  N_20 
ROOT
ATOM      1  C   LIG d   1       0.644  88.804 116.083  0.00  0.00     0.161 C 
ATOM      2  C   LIG d   1       1.970  88.862 115.624  0.00  0.00     0.016 C 
ATOM      3  C   LIG d   1       2.857  89.917 115.937  0.00  0.00     0.038 C 
ATOM      4  C   LIG d   1       2.522  90.917 116.862  0.00  0.00     0.028 C 
ATOM      5  C   LIG d   1       1.022  91.174 116.959  0.00  0.00    -0.047 C 
ATOM      6  C   LIG d   1       0.296  89.829 117.183  0.00  0.00     0.091 C 
ENDROOT
BRANCH   1   7
ATOM      7  O   LIG d   1       0.339  87.467 116.529  0.00  0.00    -0.368 OA
BRANCH   7   8
ATOM      8  C   LIG d   1       1.140  86.406 115.955  0.00  0.00     0.119 C 
BRANCH   8   9
ATOM      9  C   LIG d   1       0.221  85.576 115.037  0.00  0.00     0.028 C 
ATOM     10  C   LIG d   1       0.450  85.881 113.547  0.00  0.00     0.006 C 
ENDBRANCH   8   9
BRANCH   8  11
ATOM     11  C   LIG d   1       1.627  85.430 117.030  0.00  0.00     0.028 C 
ATOM     12  C   LIG d   1       2.125  86.141 118.298  0.00  0.00     0.006 C 
ENDBRANCH   8  11
ENDBRANCH   7   8
ENDBRANCH   1   7
BRANCH   6  13
ATOM     13  N   LIG d   1      -1.183  89.979 117.206  0.00  0.00    -0.311 N 
ATOM     14  C   LIG d   1      -1.883  90.174 118.322  0.00  0.00     0.210 C 
ATOM     15  C   LIG d   1      -3.398  90.283 118.124  0.00  0.00     0.109 C 
ATOM     16  O   LIG d   1      -1.390  90.299 119.453  0.00  0.00    -0.276 OA
ATOM     17  H   LIG d   1      -1.660  89.922 116.327  0.00  0.00     0.149 HD
ENDBRANCH   6  13
BRANCH   5  18
ATOM     18  N   LIG d   1       0.805  92.138 118.055  0.00  0.00     0.381 N 
ATOM     19  H   LIG d   1       0.587  93.038 117.676  0.00  0.00    -0.090 HD
ATOM     20  H   LIG d   1       1.652  92.218 118.589  0.00  0.00    -0.090 HD
ATOM     21  H   LIG d   1       0.062  91.827 118.640  0.00  0.00    -0.090 HD
ENDBRANCH   5  18
BRANCH   3  22
ATOM     22  C   LIG d   1       4.081  90.001 115.291  0.00  0.00     0.382 C 
ATOM     23  O   LIG d   1       4.131  90.335 114.083  0.00  0.00    -0.241 OA
ATOM     24  O   LIG d   1       5.133  89.703 115.890  0.00  0.00    -0.241 OA
ENDBRANCH   3  22
TORSDOF 7
ENDMDL
MODEL 6
REMARK VINA RESULT:      -4.0      2.425      4.260
REMARK  7 active torsions:
REMARK  status: ('A' for Active; 'I' for Inactive)
REMARK    1  A    between atoms: C_2  and  C_3 
REMARK    2  A    between atoms: C_3  and  O_6 
REMARK    3  A    between atoms: C_3  and  C_4 
REMARK    4  A    between atoms: C_7  and  O_6 
REMARK    5  A    between atoms: C_9  and  C_10 
REMARK    6  A    between atoms: N_15  and  C_14 
REMARK    7  A    between atoms: N_20  and  C_19 
REMARK       I    between atoms: C_22  and  N_20 
ROOT
ATOM      1  C   LIG d   1       3.664  89.988 116.355  0.00  0.00     0.161 C 
ATOM      2  C   LIG d   1       3.635  91.095 117.220  0.00  0.00     0.016 C 
ATOM      3  C   LIG d   1       2.441  91.640 117.746  0.00  0.00     0.038 C 
ATOM      4  C   LIG d   1       1.198  91.017 117.563  0.00  0.00     0.028 C 
ATOM      5  C   LIG d   1       1.118  90.189 116.284  0.00  0.00    -0.047 C 
ATOM      6  C   LIG d   1       2.328  89.228 116.233  0.00  0.00     0.091 C 
ENDROOT
BRANCH   1   7
ATOM      7  O   LIG d   1       4.719  89.088 116.750  0.00  0.00    -0.368 OA
BRANCH   7   8
ATOM      8  C   LIG d   1       5.869  89.029 115.871  0.00  0.00     0.119 C 
BRANCH   8   9
ATOM      9  C   LIG d   1       5.519  89.824 114.598  0.00  0.00     0.028 C 
ATOM     10  C   LIG d   1       5.667  88.980 113.320  0.00  0.00     0.006 C 
ENDBRANCH   8   9
BRANCH   8  11
ATOM     11  C   LIG d   1       6.134  87.598 115.395  0.00  0.00     0.028 C 
ATOM     12  C   LIG d   1       5.332  86.550 116.184  0.00  0.00     0.006 C 
ENDBRANCH   8  11
ENDBRANCH   7   8
ENDBRANCH   1   7
BRANCH   6  13
ATOM     13  N   LIG d   1       2.372  88.440 114.974  0.00  0.00    -0.311 N 
ATOM     14  C   LIG d   1       1.920  87.191 114.874  0.00  0.00     0.210 C 
ATOM     15  C   LIG d   1       2.080  86.554 113.490  0.00  0.00     0.109 C 
ATOM     16  O   LIG d   1       1.372  86.562 115.791  0.00  0.00    -0.276 OA
ATOM     17  H   LIG d   1       2.772  88.885 114.171  0.00  0.00     0.149 HD
ENDBRANCH   6  13
BRANCH   5  18
ATOM     18  N   LIG d   1      -0.179  89.486 116.288  0.00  0.00     0.381 N 
ATOM     19  H   LIG d   1      -0.679  89.702 117.128  0.00  0.00    -0.090 HD
ATOM     20  H   LIG d   1      -0.012  88.496 116.267  0.00  0.00    -0.090 HD
ATOM     21  H   LIG d   1      -0.716  89.757 115.494  0.00  0.00    -0.090 HD
ENDBRANCH   5  18
BRANCH   3  22
ATOM     22  C   LIG d   1       2.479  92.844 118.433  0.00  0.00     0.382 C 
ATOM     23  O   LIG d   1       3.579  93.319 118.804  0.00  0.00    -0.241 OA
ATOM     24  O   LIG d   1       1.424  93.439 118.724  0.00  0.00    -0.241 OA
ENDBRANCH   3  22
TORSDOF 7
ENDMDL
MODEL 7
REMARK VINA RESULT:      -3.9      2.051      4.240
REMARK  7 active torsions:
REMARK  status: ('A' for Active; 'I' for Inactive)
REMARK    1  A    between atoms: C_2  and  C_3 
REMARK    2  A    between atoms: C_3  and  O_6 
REMARK    3  A    between atoms: C_3  and  C_4 
REMARK    4  A    between atoms: C_7  and  O_6 
REMARK    5  A    between atoms: C_9  and  C_10 
REMARK    6  A    between atoms: N_15  and  C_14 
REMARK    7  A    between atoms: N_20  and  C_19 
REMARK       I    between atoms: C_22  and  N_20 
ROOT
ATOM      1  C   LIG d   1       2.919  89.406 115.950  0.00  0.00     0.161 C 
ATOM      2  C   LIG d   1       1.806  89.987 116.580  0.00  0.00     0.016 C 
ATOM      3  C   LIG d   1       0.549  89.348 116.682  0.00  0.00     0.038 C 
ATOM      4  C   LIG d   1       0.361  88.014 116.291  0.00  0.00     0.028 C 
ATOM      5  C   LIG d   1       1.318  87.564 115.193  0.00  0.00    -0.047 C 
ATOM      6  C   LIG d   1       2.765  87.907 115.616  0.00  0.00     0.091 C 
ENDROOT
BRANCH   1   7
ATOM      7  O   LIG d   1       4.100  89.622 116.747  0.00  0.00    -0.368 OA
BRANCH   7   8
ATOM      8  C   LIG d   1       4.887  90.794 116.417  0.00  0.00     0.119 C 
BRANCH   8   9
ATOM      9  C   LIG d   1       6.248  90.303 115.887  0.00  0.00     0.028 C 
ATOM     10  C   LIG d   1       6.586  88.881 116.366  0.00  0.00     0.006 C 
ENDBRANCH   8   9
BRANCH   8  11
ATOM     11  C   LIG d   1       5.211  91.617 117.667  0.00  0.00     0.028 C 
ATOM     12  C   LIG d   1       4.789  90.917 118.968  0.00  0.00     0.006 C 
ENDBRANCH   8  11
ENDBRANCH   7   8
ENDBRANCH   1   7
BRANCH   6  13
ATOM     13  N   LIG d   1       3.758  87.577 114.561  0.00  0.00    -0.311 N 
ATOM     14  C   LIG d   1       3.849  88.237 113.407  0.00  0.00     0.210 C 
ATOM     15  C   LIG d   1       4.928  87.720 112.451  0.00  0.00     0.109 C 
ATOM     16  O   LIG d   1       3.160  89.221 113.099  0.00  0.00    -0.276 OA
ATOM     17  H   LIG d   1       4.378  86.812 114.741  0.00  0.00     0.149 HD
ENDBRANCH   6  13
BRANCH   5  18
ATOM     18  N   LIG d   1       1.105  86.120 114.980  0.00  0.00     0.381 N 
ATOM     19  H   LIG d   1       1.913  85.719 114.547  0.00  0.00    -0.090 HD
ATOM     20  H   LIG d   1       0.322  85.994 114.363  0.00  0.00    -0.090 HD
ATOM     21  H   LIG d   1       0.928  85.670 115.851  0.00  0.00    -0.090 HD
ENDBRANCH   5  18
BRANCH   3  22
ATOM     22  C   LIG d   1      -0.548  90.060 117.144  0.00  0.00     0.382 C 
ATOM     23  O   LIG d   1      -1.700  89.573 117.041  0.00  0.00    -0.241 OA
ATOM     24  O   LIG d   1      -0.405  91.202 117.621  0.00  0.00    -0.241 OA
ENDBRANCH   3  22
TORSDOF 7
ENDMDL
MODEL 8
REMARK VINA RESULT:      -3.9      2.066      3.109
REMARK  7 active torsions:
REMARK  status: ('A' for Active; 'I' for Inactive)
REMARK    1  A    between atoms: C_2  and  C_3 
REMARK    2  A    between atoms: C_3  and  O_6 
REMARK    3  A    between atoms: C_3  and  C_4 
REMARK    4  A    between atoms: C_7  and  O_6 
REMARK    5  A    between atoms: C_9  and  C_10 
REMARK    6  A    between atoms: N_15  and  C_14 
REMARK    7  A    between atoms: N_20  and  C_19 
REMARK       I    between atoms: C_22  and  N_20 
ROOT
ATOM      1  C   LIG d   1       3.522  88.523 116.393  0.00  0.00     0.161 C 
ATOM      2  C   LIG d   1       2.163  88.867 116.317  0.00  0.00     0.016 C 
ATOM      3  C   LIG d   1       1.638  90.081 116.818  0.00  0.00     0.038 C 
ATOM      4  C   LIG d   1       2.467  91.105 117.297  0.00  0.00     0.028 C 
ATOM      5  C   LIG d   1       3.793  90.600 117.857  0.00  0.00    -0.047 C 
ATOM      6  C   LIG d   1       4.459  89.675 116.812  0.00  0.00     0.091 C 
ENDROOT
BRANCH   1   7
ATOM      7  O   LIG d   1       3.954  87.957 115.140  0.00  0.00    -0.368 OA
BRANCH   7   8
ATOM      8  C   LIG d   1       3.386  88.547 113.945  0.00  0.00     0.119 C 
BRANCH   8   9
ATOM      9  C   LIG d   1       3.168  87.411 112.926  0.00  0.00     0.028 C 
ATOM     10  C   LIG d   1       2.075  86.424 113.373  0.00  0.00     0.006 C 
ENDBRANCH   8   9
BRANCH   8  11
ATOM     11  C   LIG d   1       4.372  89.508 113.274  0.00  0.00     0.028 C 
ATOM     12  C   LIG d   1       5.795  88.935 113.185  0.00  0.00     0.006 C 
ENDBRANCH   8  11
ENDBRANCH   7   8
ENDBRANCH   1   7
BRANCH   6  13
ATOM     13  N   LIG d   1       5.720  89.070 117.313  0.00  0.00    -0.311 N 
ATOM     14  C   LIG d   1       6.924  89.596 117.092  0.00  0.00     0.210 C 
ATOM     15  C   LIG d   1       8.095  88.802 117.680  0.00  0.00     0.109 C 
ATOM     16  O   LIG d   1       7.131  90.662 116.492  0.00  0.00    -0.276 OA
ATOM     17  H   LIG d   1       5.642  88.220 117.836  0.00  0.00     0.149 HD
ENDBRANCH   6  13
BRANCH   5  18
ATOM     18  N   LIG d   1       4.613  91.778 118.193  0.00  0.00     0.381 N 
ATOM     19  H   LIG d   1       5.561  91.622 117.913  0.00  0.00    -0.090 HD
ATOM     20  H   LIG d   1       4.597  91.913 119.189  0.00  0.00    -0.090 HD
ATOM     21  H   LIG d   1       4.253  92.587 117.736  0.00  0.00    -0.090 HD
ENDBRANCH   5  18
BRANCH   3  22
ATOM     22  C   LIG d   1       0.265  90.262 116.879  0.00  0.00     0.382 C 
ATOM     23  O   LIG d   1      -0.206  91.343 117.307  0.00  0.00    -0.241 OA
ATOM     24  O   LIG d   1      -0.509  89.342 116.553  0.00  0.00    -0.241 OA
ENDBRANCH   3  22
TORSDOF 7
ENDMDL
MODEL 9
REMARK VINA RESULT:      -3.9      2.295      5.162
REMARK  7 active torsions:
REMARK  status: ('A' for Active; 'I' for Inactive)
REMARK    1  A    between atoms: C_2  and  C_3 
REMARK    2  A    between atoms: C_3  and  O_6 
REMARK    3  A    between atoms: C_3  and  C_4 
REMARK    4  A    between atoms: C_7  and  O_6 
REMARK    5  A    between atoms: C_9  and  C_10 
REMARK    6  A    between atoms: N_15  and  C_14 
REMARK    7  A    between atoms: N_20  and  C_19 
REMARK       I    between atoms: C_22  and  N_20 
ROOT
ATOM      1  C   LIG d   1       3.336  90.040 115.775  0.00  0.00     0.161 C 
ATOM      2  C   LIG d   1       4.740  90.077 115.777  0.00  0.00     0.016 C 
ATOM      3  C   LIG d   1       5.526  89.727 116.899  0.00  0.00     0.038 C 
ATOM      4  C   LIG d   1       4.962  89.168 118.055  0.00  0.00     0.028 C 
ATOM      5  C   LIG d   1       3.513  89.584 118.283  0.00  0.00    -0.047 C 
ATOM      6  C   LIG d   1       2.706  89.326 116.990  0.00  0.00     0.091 C 
ENDROOT
BRANCH   1   7
ATOM      7  O   LIG d   1       2.864  89.449 114.548  0.00  0.00    -0.368 OA
BRANCH   7   8
ATOM      8  C   LIG d   1       3.478  88.193 114.168  0.00  0.00     0.119 C 
BRANCH   8   9
ATOM      9  C   LIG d   1       4.105  88.388 112.773  0.00  0.00     0.028 C 
ATOM     10  C   LIG d   1       5.642  88.363 112.812  0.00  0.00     0.006 C 
ENDBRANCH   8   9
BRANCH   8  11
ATOM     11  C   LIG d   1       2.429  87.091 113.991  0.00  0.00     0.028 C 
ATOM     12  C   LIG d   1       3.048  85.686 113.919  0.00  0.00     0.006 C 
ENDBRANCH   8  11
ENDBRANCH   7   8
ENDBRANCH   1   7
BRANCH   6  13
ATOM     13  N   LIG d   1       1.297  89.785 117.100  0.00  0.00    -0.311 N 
ATOM     14  C   LIG d   1       0.251  89.018 116.796  0.00  0.00     0.210 C 
ATOM     15  C   LIG d   1      -1.115  89.693 116.961  0.00  0.00     0.109 C 
ATOM     16  O   LIG d   1       0.323  87.833 116.437  0.00  0.00    -0.276 OA
ATOM     17  H   LIG d   1       1.145  90.723 117.414  0.00  0.00     0.149 HD
ENDBRANCH   6  13
BRANCH   5  18
ATOM     18  N   LIG d   1       3.007  88.823 119.441  0.00  0.00     0.381 N 
ATOM     19  H   LIG d   1       2.926  89.427 120.235  0.00  0.00    -0.090 HD
ATOM     20  H   LIG d   1       3.664  88.096 119.664  0.00  0.00    -0.090 HD
ATOM     21  H   LIG d   1       2.120  88.424 119.226  0.00  0.00    -0.090 HD
ENDBRANCH   5  18
BRANCH   3  22
ATOM     22  C   LIG d   1       6.891  89.973 116.886  0.00  0.00     0.382 C 
ATOM     23  O   LIG d   1       7.317  91.131 116.657  0.00  0.00    -0.241 OA
ATOM     24  O   LIG d   1       7.702  89.044 117.056  0.00  0.00    -0.241 OA
ENDBRANCH   3  22
TORSDOF 7
ENDMDL
