MODEL 1
REMARK VINA RESULT:      -4.6      0.000      0.000
REMARK  7 active torsions:
REMARK  status: ('A' for Active; 'I' for Inactive)
REMARK    1  A    between atoms: C_2  and  C_3 
REMARK    2  A    between atoms: C_3  and  O_6 
REMARK    3  A    between atoms: C_3  and  C_4 
REMARK    4  A    between atoms: C_7  and  O_6 
REMARK    5  A    between atoms: C_9  and  C_10 
REMARK    6  A    between atoms: N_15  and  C_14 
REMARK    7  A    between atoms: N_20  and  C_19 
REMARK       I    between atoms: C_22  and  N_20 
ROOT
ATOM      1  C   LIG d   1       2.846  90.054 116.221  0.00  0.00     0.161 C 
ATOM      2  C   LIG d   1       2.895  89.318 115.026  0.00  0.00     0.016 C 
ATOM      3  C   LIG d   1       4.102  88.915 114.408  0.00  0.00     0.038 C 
ATOM      4  C   LIG d   1       5.347  89.094 115.029  0.00  0.00     0.028 C 
ATOM      5  C   LIG d   1       5.381  90.278 115.990  0.00  0.00    -0.047 C 
ATOM      6  C   LIG d   1       4.191  90.162 116.970  0.00  0.00     0.091 C 
ENDROOT
BRANCH   1   7
ATOM      7  O   LIG d   1       1.832  89.511 117.089  0.00  0.00    -0.368 OA
BRANCH   7   8
ATOM      8  C   LIG d   1       0.563  90.210 117.103  0.00  0.00     0.119 C 
BRANCH   8   9
ATOM      9  C   LIG d   1       0.435  90.910 118.470  0.00  0.00     0.028 C 
ATOM     10  C   LIG d   1       0.786  89.977 119.641  0.00  0.00     0.006 C 
ENDBRANCH   8   9
BRANCH   8  11
ATOM     11  C   LIG d   1      -0.613  89.232 117.036  0.00  0.00     0.028 C 
ATOM     12  C   LIG d   1      -0.178  87.798 116.695  0.00  0.00     0.006 C 
ENDBRANCH   8  11
ENDBRANCH   7   8
ENDBRANCH   1   7
BRANCH   6  13
ATOM     13  N   LIG d   1       4.101  91.325 117.891  0.00  0.00    -0.311 N 
ATOM     14  C   LIG d   1       4.638  91.338 119.110  0.00  0.00     0.210 C 
ATOM     15  C   LIG d   1       4.411  92.629 119.903  0.00  0.00     0.109 C 
ATOM     16  O   LIG d   1       5.309  90.416 119.597  0.00  0.00    -0.276 OA
ATOM     17  H   LIG d   1       3.601  92.128 117.564  0.00  0.00     0.149 HD
ENDBRANCH   6  13
BRANCH   5  18
ATOM     18  N   LIG d   1       6.691  90.264 116.668  0.00  0.00     0.381 N 
ATOM     19  H   LIG d   1       7.406  90.000 116.019  0.00  0.00    -0.090 HD
ATOM     20  H   LIG d   1       6.668  89.583 117.406  0.00  0.00    -0.090 HD
ATOM     21  H   LIG d   1       6.890  91.165 117.043  0.00  0.00    -0.090 HD
ENDBRANCH   5  18
BRANCH   3  22
ATOM     22  C   LIG d   1       4.072  88.362 113.137  0.00  0.00     0.382 C 
ATOM     23  O   LIG d   1       3.041  88.469 112.431  0.00  0.00    -0.241 OA
ATOM     24  O   LIG d   1       5.048  87.720 112.705  0.00  0.00    -0.241 OA
ENDBRANCH   3  22
TORSDOF 7
ENDMDL
MODEL 2
REMARK VINA RESULT:      -4.4      4.430      6.823
REMARK  7 active torsions:
REMARK  status: ('A' for Active; 'I' for Inactive)
REMARK    1  A    between atoms: C_2  and  C_3 
REMARK    2  A    between atoms: C_3  and  O_6 
REMARK    3  A    between atoms: C_3  and  C_4 
REMARK    4  A    between atoms: C_7  and  O_6 
REMARK    5  A    between atoms: C_9  and  C_10 
REMARK    6  A    between atoms: N_15  and  C_14 
REMARK    7  A    between atoms: N_20  and  C_19 
REMARK       I    between atoms: C_22  and  N_20 
ROOT
ATOM      1  C   LIG d   1      -0.528  90.008 117.160  0.00  0.00     0.161 C 
ATOM      2  C   LIG d   1       0.658  90.484 117.743  0.00  0.00     0.016 C 
ATOM      3  C   LIG d   1       0.720  91.646 118.545  0.00  0.00     0.038 C 
ATOM      4  C   LIG d   1      -0.437  92.332 118.946  0.00  0.00     0.028 C 
ATOM      5  C   LIG d   1      -1.599  92.182 117.971  0.00  0.00    -0.047 C 
ATOM      6  C   LIG d   1      -1.817  90.680 117.678  0.00  0.00     0.091 C 
ENDROOT
BRANCH   1   7
ATOM      7  O   LIG d   1      -0.611  88.578 117.318  0.00  0.00    -0.368 OA
BRANCH   7   8
ATOM      8  C   LIG d   1       0.627  87.845 117.144  0.00  0.00     0.119 C 
BRANCH   8   9
ATOM      9  C   LIG d   1       0.524  87.070 115.816  0.00  0.00     0.028 C 
ATOM     10  C   LIG d   1      -0.818  86.333 115.670  0.00  0.00     0.006 C 
ENDBRANCH   8   9
BRANCH   8  11
ATOM     11  C   LIG d   1       0.798  86.775 118.226  0.00  0.00     0.028 C 
ATOM     12  C   LIG d   1       1.148  87.367 119.600  0.00  0.00     0.006 C 
ENDBRANCH   8  11
ENDBRANCH   7   8
ENDBRANCH   1   7
BRANCH   6  13
ATOM     13  N   LIG d   1      -2.882  90.449 116.667  0.00  0.00    -0.311 N 
ATOM     14  C   LIG d   1      -4.170  90.313 116.977  0.00  0.00     0.210 C 
ATOM     15  C   LIG d   1      -5.099  90.061 115.785  0.00  0.00     0.109 C 
ATOM     16  O   LIG d   1      -4.636  90.409 118.122  0.00  0.00    -0.276 OA
ATOM     17  H   LIG d   1      -2.596  90.388 115.709  0.00  0.00     0.149 HD
ENDBRANCH   6  13
BRANCH   5  18
ATOM     18  N   LIG d   1      -2.777  92.829 118.578  0.00  0.00     0.381 N 
ATOM     19  H   LIG d   1      -2.484  93.595 119.152  0.00  0.00    -0.090 HD
ATOM     20  H   LIG d   1      -3.251  92.162 119.161  0.00  0.00    -0.090 HD
ATOM     21  H   LIG d   1      -3.392  93.155 117.866  0.00  0.00    -0.090 HD
ENDBRANCH   5  18
BRANCH   3  22
ATOM     22  C   LIG d   1       1.952  92.157 118.922  0.00  0.00     0.382 C 
ATOM     23  O   LIG d   1       2.041  92.903 119.927  0.00  0.00    -0.241 OA
ATOM     24  O   LIG d   1       2.970  91.916 118.245  0.00  0.00    -0.241 OA
ENDBRANCH   3  22
TORSDOF 7
ENDMDL
MODEL 3
REMARK VINA RESULT:      -4.4      7.545     10.118
REMARK  7 active torsions:
REMARK  status: ('A' for Active; 'I' for Inactive)
REMARK    1  A    between atoms: C_2  and  C_3 
REMARK    2  A    between atoms: C_3  and  O_6 
REMARK    3  A    between atoms: C_3  and  C_4 
REMARK    4  A    between atoms: C_7  and  O_6 
REMARK    5  A    between atoms: C_9  and  C_10 
REMARK    6  A    between atoms: N_15  and  C_14 
REMARK    7  A    between atoms: N_20  and  C_19 
REMARK       I    between atoms: C_22  and  N_20 
ROOT
ATOM      1  C   LIG d   1      -5.500  91.424 118.907  0.00  0.00     0.161 C 
ATOM      2  C   LIG d   1      -4.514  90.702 118.215  0.00  0.00     0.016 C 
ATOM      3  C   LIG d   1      -4.568  90.448 116.825  0.00  0.00     0.038 C 
ATOM      4  C   LIG d   1      -5.542  91.032 116.002  0.00  0.00     0.028 C 
ATOM      5  C   LIG d   1      -6.841  91.351 116.734  0.00  0.00    -0.047 C 
ATOM      6  C   LIG d   1      -6.513  92.162 118.008  0.00  0.00     0.091 C 
ENDROOT
BRANCH   1   7
ATOM      7  O   LIG d   1      -4.878  92.346 119.824  0.00  0.00    -0.368 OA
BRANCH   7   8
ATOM      8  C   LIG d   1      -4.218  93.489 119.227  0.00  0.00     0.119 C 
BRANCH   8   9
ATOM      9  C   LIG d   1      -2.709  93.351 119.507  0.00  0.00     0.028 C 
ATOM     10  C   LIG d   1      -1.882  93.217 118.217  0.00  0.00     0.006 C 
ENDBRANCH   8   9
BRANCH   8  11
ATOM     11  C   LIG d   1      -4.639  94.795 119.908  0.00  0.00     0.028 C 
ATOM     12  C   LIG d   1      -3.785  95.996 119.473  0.00  0.00     0.006 C 
ENDBRANCH   8  11
ENDBRANCH   7   8
ENDBRANCH   1   7
BRANCH   6  13
ATOM     13  N   LIG d   1      -7.720  92.445 118.827  0.00  0.00    -0.311 N 
ATOM     14  C   LIG d   1      -8.494  93.514 118.648  0.00  0.00     0.210 C 
ATOM     15  C   LIG d   1      -9.678  93.624 119.615  0.00  0.00     0.109 C 
ATOM     16  O   LIG d   1      -8.331  94.365 117.761  0.00  0.00    -0.276 OA
ATOM     17  H   LIG d   1      -7.944  91.789 119.550  0.00  0.00     0.149 HD
ENDBRANCH   6  13
BRANCH   5  18
ATOM     18  N   LIG d   1      -7.715  92.079 115.794  0.00  0.00     0.381 N 
ATOM     19  H   LIG d   1      -8.097  92.887 116.243  0.00  0.00    -0.090 HD
ATOM     20  H   LIG d   1      -8.475  91.478 115.525  0.00  0.00    -0.090 HD
ATOM     21  H   LIG d   1      -7.197  92.351 114.988  0.00  0.00    -0.090 HD
ENDBRANCH   5  18
BRANCH   3  22
ATOM     22  C   LIG d   1      -3.662  89.569 116.251  0.00  0.00     0.382 C 
ATOM     23  O   LIG d   1      -2.477  89.534 116.661  0.00  0.00    -0.241 OA
ATOM     24  O   LIG d   1      -4.003  88.841 115.300  0.00  0.00    -0.241 OA
ENDBRANCH   3  22
TORSDOF 7
ENDMDL
MODEL 4
REMARK VINA RESULT:      -4.4      1.807      4.734
REMARK  7 active torsions:
REMARK  status: ('A' for Active; 'I' for Inactive)
REMARK    1  A    between atoms: C_2  and  C_3 
REMARK    2  A    between atoms: C_3  and  O_6 
REMARK    3  A    between atoms: C_3  and  C_4 
REMARK    4  A    between atoms: C_7  and  O_6 
REMARK    5  A    between atoms: C_9  and  C_10 
REMARK    6  A    between atoms: N_15  and  C_14 
REMARK    7  A    between atoms: N_20  and  C_19 
REMARK       I    between atoms: C_22  and  N_20 
ROOT
ATOM      1  C   LIG d   1       2.293  90.028 116.890  0.00  0.00     0.161 C 
ATOM      2  C   LIG d   1       2.583  91.075 117.780  0.00  0.00     0.016 C 
ATOM      3  C   LIG d   1       3.864  91.660 117.903  0.00  0.00     0.038 C 
ATOM      4  C   LIG d   1       4.914  91.336 117.030  0.00  0.00     0.028 C 
ATOM      5  C   LIG d   1       4.809  89.929 116.452  0.00  0.00    -0.047 C 
ATOM      6  C   LIG d   1       3.397  89.737 115.852  0.00  0.00     0.091 C 
ENDROOT
BRANCH   1   7
ATOM      7  O   LIG d   1       1.038  90.281 116.229  0.00  0.00    -0.368 OA
BRANCH   7   8
ATOM      8  C   LIG d   1      -0.107  89.550 116.732  0.00  0.00     0.119 C 
BRANCH   8   9
ATOM      9  C   LIG d   1      -0.748  90.401 117.845  0.00  0.00     0.028 C 
ATOM     10  C   LIG d   1      -2.243  90.663 117.596  0.00  0.00     0.006 C 
ENDBRANCH   8   9
BRANCH   8  11
ATOM     11  C   LIG d   1       0.320  88.247 117.414  0.00  0.00     0.028 C 
ATOM     12  C   LIG d   1      -0.088  86.996 116.618  0.00  0.00     0.006 C 
ENDBRANCH   8  11
ENDBRANCH   7   8
ENDBRANCH   1   7
BRANCH   6  13
ATOM     13  N   LIG d   1       3.181  88.359 115.340  0.00  0.00    -0.311 N 
ATOM     14  C   LIG d   1       3.052  88.069 114.046  0.00  0.00     0.210 C 
ATOM     15  C   LIG d   1       2.817  86.587 113.736  0.00  0.00     0.109 C 
ATOM     16  O   LIG d   1       3.142  88.894 113.124  0.00  0.00    -0.276 OA
ATOM     17  H   LIG d   1       3.127  87.624 116.017  0.00  0.00     0.149 HD
ENDBRANCH   6  13
BRANCH   5  18
ATOM     18  N   LIG d   1       5.886  89.774 115.456  0.00  0.00     0.381 N 
ATOM     19  H   LIG d   1       6.107  88.805 115.344  0.00  0.00    -0.090 HD
ATOM     20  H   LIG d   1       6.707  90.248 115.790  0.00  0.00    -0.090 HD
ATOM     21  H   LIG d   1       5.602  90.161 114.583  0.00  0.00    -0.090 HD
ENDBRANCH   5  18
BRANCH   3  22
ATOM     22  C   LIG d   1       4.117  92.552 118.934  0.00  0.00     0.382 C 
ATOM     23  O   LIG d   1       5.247  93.086 119.038  0.00  0.00    -0.241 OA
ATOM     24  O   LIG d   1       3.243  92.794 119.788  0.00  0.00    -0.241 OA
ENDBRANCH   3  22
TORSDOF 7
ENDMDL
MODEL 5
REMARK VINA RESULT:      -4.3      2.939      6.147
REMARK  7 active torsions:
REMARK  status: ('A' for Active; 'I' for Inactive)
REMARK    1  A    between atoms: C_2  and  C_3 
REMARK    2  A    between atoms: C_3  and  O_6 
REMARK    3  A    between atoms: C_3  and  C_4 
REMARK    4  A    between atoms: C_7  and  O_6 
REMARK    5  A    between atoms: C_9  and  C_10 
REMARK    6  A    between atoms: N_15  and  C_14 
REMARK    7  A    between atoms: N_20  and  C_19 
REMARK       I    between atoms: C_22  and  N_20 
ROOT
ATOM      1  C   LIG d   1       2.806  88.383 115.795  0.00  0.00     0.161 C 
ATOM      2  C   LIG d   1       3.357  89.523 116.402  0.00  0.00     0.016 C 
ATOM      3  C   LIG d   1       2.578  90.533 117.012  0.00  0.00     0.038 C 
ATOM      4  C   LIG d   1       1.194  90.395 117.191  0.00  0.00     0.028 C 
ATOM      5  C   LIG d   1       0.535  89.498 116.149  0.00  0.00    -0.047 C 
ATOM      6  C   LIG d   1       1.306  88.160 116.078  0.00  0.00     0.091 C 
ENDROOT
BRANCH   1   7
ATOM      7  O   LIG d   1       3.565  87.216 116.169  0.00  0.00    -0.368 OA
BRANCH   7   8
ATOM      8  C   LIG d   1       4.380  86.625 115.127  0.00  0.00     0.119 C 
BRANCH   8   9
ATOM      9  C   LIG d   1       5.842  87.035 115.394  0.00  0.00     0.028 C 
ATOM     10  C   LIG d   1       6.384  86.451 116.709  0.00  0.00     0.006 C 
ENDBRANCH   8   9
BRANCH   8  11
ATOM     11  C   LIG d   1       4.040  87.210 113.753  0.00  0.00     0.028 C 
ATOM     12  C   LIG d   1       4.926  86.649 112.630  0.00  0.00     0.006 C 
ENDBRANCH   8  11
ENDBRANCH   7   8
ENDBRANCH   1   7
BRANCH   6  13
ATOM     13  N   LIG d   1       0.778  87.256 115.023  0.00  0.00    -0.311 N 
ATOM     14  C   LIG d   1      -0.113  86.295 115.259  0.00  0.00     0.210 C 
ATOM     15  C   LIG d   1      -0.508  85.465 114.034  0.00  0.00     0.109 C 
ATOM     16  O   LIG d   1      -0.637  86.072 116.361  0.00  0.00    -0.276 OA
ATOM     17  H   LIG d   1       1.127  87.388 114.094  0.00  0.00     0.149 HD
ENDBRANCH   6  13
BRANCH   5  18
ATOM     18  N   LIG d   1      -0.879  89.330 116.535  0.00  0.00     0.381 N 
ATOM     19  H   LIG d   1      -0.941  89.112 117.509  0.00  0.00    -0.090 HD
ATOM     20  H   LIG d   1      -1.269  88.564 116.015  0.00  0.00    -0.090 HD
ATOM     21  H   LIG d   1      -1.387  90.165 116.341  0.00  0.00    -0.090 HD
ENDBRANCH   5  18
BRANCH   3  22
ATOM     22  C   LIG d   1       3.179  91.715 117.416  0.00  0.00     0.382 C 
ATOM     23  O   LIG d   1       2.890  92.218 118.528  0.00  0.00    -0.241 OA
ATOM     24  O   LIG d   1       3.975  92.309 116.663  0.00  0.00    -0.241 OA
ENDBRANCH   3  22
TORSDOF 7
ENDMDL
MODEL 6
REMARK VINA RESULT:      -4.3      1.777      4.822
REMARK  7 active torsions:
REMARK  status: ('A' for Active; 'I' for Inactive)
REMARK    1  A    between atoms: C_2  and  C_3 
REMARK    2  A    between atoms: C_3  and  O_6 
REMARK    3  A    between atoms: C_3  and  C_4 
REMARK    4  A    between atoms: C_7  and  O_6 
REMARK    5  A    between atoms: C_9  and  C_10 
REMARK    6  A    between atoms: N_15  and  C_14 
REMARK    7  A    between atoms: N_20  and  C_19 
REMARK       I    between atoms: C_22  and  N_20 
ROOT
ATOM      1  C   LIG d   1       2.453  90.108 117.172  0.00  0.00     0.161 C 
ATOM      2  C   LIG d   1       2.881  91.156 118.004  0.00  0.00     0.016 C 
ATOM      3  C   LIG d   1       4.167  91.738 117.923  0.00  0.00     0.038 C 
ATOM      4  C   LIG d   1       5.066  91.411 116.897  0.00  0.00     0.028 C 
ATOM      5  C   LIG d   1       4.869  90.003 116.345  0.00  0.00    -0.047 C 
ATOM      6  C   LIG d   1       3.380  89.814 115.974  0.00  0.00     0.091 C 
ENDROOT
BRANCH   1   7
ATOM      7  O   LIG d   1       1.110  90.364 116.715  0.00  0.00    -0.368 OA
BRANCH   7   8
ATOM      8  C   LIG d   1       0.045  89.796 117.516  0.00  0.00     0.119 C 
BRANCH   8   9
ATOM      9  C   LIG d   1      -0.618  88.682 116.683  0.00  0.00     0.028 C 
ATOM     10  C   LIG d   1       0.000  87.300 116.952  0.00  0.00     0.006 C 
ENDBRANCH   8   9
BRANCH   8  11
ATOM     11  C   LIG d   1      -1.063  90.820 117.778  0.00  0.00     0.028 C 
ATOM     12  C   LIG d   1      -1.161  91.227 119.257  0.00  0.00     0.006 C 
ENDBRANCH   8  11
ENDBRANCH   7   8
ENDBRANCH   1   7
BRANCH   6  13
ATOM     13  N   LIG d   1       3.084  88.435 115.504  0.00  0.00    -0.311 N 
ATOM     14  C   LIG d   1       3.009  88.100 114.217  0.00  0.00     0.210 C 
ATOM     15  C   LIG d   1       2.673  86.629 113.951  0.00  0.00     0.109 C 
ATOM     16  O   LIG d   1       3.221  88.873 113.271  0.00  0.00    -0.276 OA
ATOM     17  H   LIG d   1       2.930  87.738 116.205  0.00  0.00     0.149 HD
ENDBRANCH   6  13
BRANCH   5  18
ATOM     18  N   LIG d   1       5.776  89.845 115.193  0.00  0.00     0.381 N 
ATOM     19  H   LIG d   1       6.441  89.122 115.383  0.00  0.00    -0.090 HD
ATOM     20  H   LIG d   1       6.277  90.705 115.054  0.00  0.00    -0.090 HD
ATOM     21  H   LIG d   1       5.254  89.620 114.376  0.00  0.00    -0.090 HD
ENDBRANCH   5  18
BRANCH   3  22
ATOM     22  C   LIG d   1       4.579  92.630 118.901  0.00  0.00     0.382 C 
ATOM     23  O   LIG d   1       3.802  92.940 119.836  0.00  0.00    -0.241 OA
ATOM     24  O   LIG d   1       5.703  93.163 118.836  0.00  0.00    -0.241 OA
ENDBRANCH   3  22
TORSDOF 7
ENDMDL
MODEL 7
REMARK VINA RESULT:      -4.3      2.712      5.639
REMARK  7 active torsions:
REMARK  status: ('A' for Active; 'I' for Inactive)
REMARK    1  A    between atoms: C_2  and  C_3 
REMARK    2  A    between atoms: C_3  and  O_6 
REMARK    3  A    between atoms: C_3  and  C_4 
REMARK    4  A    between atoms: C_7  and  O_6 
REMARK    5  A    between atoms: C_9  and  C_10 
REMARK    6  A    between atoms: N_15  and  C_14 
REMARK    7  A    between atoms: N_20  and  C_19 
REMARK       I    between atoms: C_22  and  N_20 
ROOT
ATOM      1  C   LIG d   1       0.044  89.408 117.184  0.00  0.00     0.161 C 
ATOM      2  C   LIG d   1      -1.351  89.511 117.050  0.00  0.00     0.016 C 
ATOM      3  C   LIG d   1      -2.086  90.659 117.424  0.00  0.00     0.038 C 
ATOM      4  C   LIG d   1      -1.454  91.847 117.821  0.00  0.00     0.028 C 
ATOM      5  C   LIG d   1      -0.083  91.623 118.451  0.00  0.00    -0.047 C 
ATOM      6  C   LIG d   1       0.762  90.733 117.511  0.00  0.00     0.091 C 
ENDROOT
BRANCH   1   7
ATOM      7  O   LIG d   1       0.606  88.812 115.998  0.00  0.00    -0.368 OA
BRANCH   7   8
ATOM      8  C   LIG d   1       1.118  87.465 116.142  0.00  0.00     0.119 C 
BRANCH   8   9
ATOM      9  C   LIG d   1       2.593  87.480 115.695  0.00  0.00     0.028 C 
ATOM     10  C   LIG d   1       2.880  88.576 114.655  0.00  0.00     0.006 C 
ENDBRANCH   8   9
BRANCH   8  11
ATOM     11  C   LIG d   1       0.415  86.496 115.187  0.00  0.00     0.028 C 
ATOM     12  C   LIG d   1      -0.957  86.038 115.707  0.00  0.00     0.006 C 
ENDBRANCH   8  11
ENDBRANCH   7   8
ENDBRANCH   1   7
BRANCH   6  13
ATOM     13  N   LIG d   1       2.088  90.395 118.091  0.00  0.00    -0.311 N 
ATOM     14  C   LIG d   1       3.243  90.798 117.563  0.00  0.00     0.210 C 
ATOM     15  C   LIG d   1       4.494  90.321 118.307  0.00  0.00     0.109 C 
ATOM     16  O   LIG d   1       3.349  91.531 116.569  0.00  0.00    -0.276 OA
ATOM     17  H   LIG d   1       2.094  89.829 118.917  0.00  0.00     0.149 HD
ENDBRANCH   6  13
BRANCH   5  18
ATOM     18  N   LIG d   1       0.520  92.947 118.691  0.00  0.00     0.381 N 
ATOM     19  H   LIG d   1       0.957  93.277 117.854  0.00  0.00    -0.090 HD
ATOM     20  H   LIG d   1       1.225  92.860 119.402  0.00  0.00    -0.090 HD
ATOM     21  H   LIG d   1      -0.180  93.592 118.985  0.00  0.00    -0.090 HD
ENDBRANCH   5  18
BRANCH   3  22
ATOM     22  C   LIG d   1      -3.471  90.613 117.442  0.00  0.00     0.382 C 
ATOM     23  O   LIG d   1      -4.114  91.359 118.220  0.00  0.00    -0.241 OA
ATOM     24  O   LIG d   1      -4.086  89.803 116.722  0.00  0.00    -0.241 OA
ENDBRANCH   3  22
TORSDOF 7
ENDMDL
MODEL 8
REMARK VINA RESULT:      -4.2      2.349      4.740
REMARK  7 active torsions:
REMARK  status: ('A' for Active; 'I' for Inactive)
REMARK    1  A    between atoms: C_2  and  C_3 
REMARK    2  A    between atoms: C_3  and  O_6 
REMARK    3  A    between atoms: C_3  and  C_4 
REMARK    4  A    between atoms: C_7  and  O_6 
REMARK    5  A    between atoms: C_9  and  C_10 
REMARK    6  A    between atoms: N_15  and  C_14 
REMARK    7  A    between atoms: N_20  and  C_19 
REMARK       I    between atoms: C_22  and  N_20 
ROOT
ATOM      1  C   LIG d   1       3.439  88.382 116.592  0.00  0.00     0.161 C 
ATOM      2  C   LIG d   1       2.525  87.490 116.007  0.00  0.00     0.016 C 
ATOM      3  C   LIG d   1       1.155  87.787 115.825  0.00  0.00     0.038 C 
ATOM      4  C   LIG d   1       0.634  89.064 116.080  0.00  0.00     0.028 C 
ATOM      5  C   LIG d   1       1.411  89.835 117.142  0.00  0.00    -0.047 C 
ATOM      6  C   LIG d   1       2.912  89.820 116.774  0.00  0.00     0.091 C 
ENDROOT
BRANCH   1   7
ATOM      7  O   LIG d   1       4.666  88.390 115.835  0.00  0.00    -0.368 OA
BRANCH   7   8
ATOM      8  C   LIG d   1       4.839  87.306 114.889  0.00  0.00     0.119 C 
BRANCH   8   9
ATOM      9  C   LIG d   1       6.003  86.432 115.393  0.00  0.00     0.028 C 
ATOM     10  C   LIG d   1       7.058  87.246 116.162  0.00  0.00     0.006 C 
ENDBRANCH   8   9
BRANCH   8  11
ATOM     11  C   LIG d   1       5.286  87.827 113.520  0.00  0.00     0.028 C 
ATOM     12  C   LIG d   1       5.109  89.347 113.374  0.00  0.00     0.006 C 
ENDBRANCH   8  11
ENDBRANCH   7   8
ENDBRANCH   1   7
BRANCH   6  13
ATOM     13  N   LIG d   1       3.755  90.481 117.805  0.00  0.00    -0.311 N 
ATOM     14  C   LIG d   1       4.204  91.730 117.694  0.00  0.00     0.210 C 
ATOM     15  C   LIG d   1       5.074  92.210 118.861  0.00  0.00     0.109 C 
ATOM     16  O   LIG d   1       3.939  92.496 116.756  0.00  0.00    -0.276 OA
ATOM     17  H   LIG d   1       3.992  89.941 118.614  0.00  0.00     0.149 HD
ENDBRANCH   6  13
BRANCH   5  18
ATOM     18  N   LIG d   1       0.845  91.196 117.209  0.00  0.00     0.381 N 
ATOM     19  H   LIG d   1      -0.144  91.145 117.349  0.00  0.00    -0.090 HD
ATOM     20  H   LIG d   1       1.016  91.662 116.335  0.00  0.00    -0.090 HD
ATOM     21  H   LIG d   1       1.268  91.704 117.954  0.00  0.00    -0.090 HD
ENDBRANCH   5  18
BRANCH   3  22
ATOM     22  C   LIG d   1       0.283  86.788 115.421  0.00  0.00     0.382 C 
ATOM     23  O   LIG d   1      -0.584  86.353 116.217  0.00  0.00    -0.241 OA
ATOM     24  O   LIG d   1       0.380  86.286 114.285  0.00  0.00    -0.241 OA
ENDBRANCH   3  22
TORSDOF 7
ENDMDL
MODEL 9
REMARK VINA RESULT:      -4.1      4.851      8.131
REMARK  7 active torsions:
REMARK  status: ('A' for Active; 'I' for Inactive)
REMARK    1  A    between atoms: C_2  and  C_3 
REMARK    2  A    between atoms: C_3  and  O_6 
REMARK    3  A    between atoms: C_3  and  C_4 
REMARK    4  A    between atoms: C_7  and  O_6 
REMARK    5  A    between atoms: C_9  and  C_10 
REMARK    6  A    between atoms: N_15  and  C_14 
REMARK    7  A    between atoms: N_20  and  C_19 
REMARK       I    between atoms: C_22  and  N_20 
ROOT
ATOM      1  C   LIG d   1      -2.540  91.533 118.580  0.00  0.00     0.161 C 
ATOM      2  C   LIG d   1      -3.845  91.878 118.970  0.00  0.00     0.016 C 
ATOM      3  C   LIG d   1      -5.005  91.372 118.339  0.00  0.00     0.038 C 
ATOM      4  C   LIG d   1      -4.940  90.363 117.367  0.00  0.00     0.028 C 
ATOM      5  C   LIG d   1      -3.627  90.352 116.591  0.00  0.00    -0.047 C 
ATOM      6  C   LIG d   1      -2.452  90.348 117.595  0.00  0.00     0.091 C 
ENDROOT
BRANCH   1   7
ATOM      7  O   LIG d   1      -1.734  91.276 119.746  0.00  0.00    -0.368 OA
BRANCH   7   8
ATOM      8  C   LIG d   1      -0.585  92.139 119.930  0.00  0.00     0.119 C 
BRANCH   8   9
ATOM      9  C   LIG d   1      -0.712  93.299 118.923  0.00  0.00     0.028 C 
ATOM     10  C   LIG d   1      -1.297  94.569 119.563  0.00  0.00     0.006 C 
ENDBRANCH   8   9
BRANCH   8  11
ATOM     11  C   LIG d   1       0.716  91.421 119.559  0.00  0.00     0.028 C 
ATOM     12  C   LIG d   1       1.889  92.390 119.340  0.00  0.00     0.006 C 
ENDBRANCH   8  11
ENDBRANCH   7   8
ENDBRANCH   1   7
BRANCH   6  13
ATOM     13  N   LIG d   1      -1.130  90.423 116.920  0.00  0.00    -0.311 N 
ATOM     14  C   LIG d   1      -0.391  89.352 116.634  0.00  0.00     0.210 C 
ATOM     15  C   LIG d   1       0.948  89.653 115.954  0.00  0.00     0.109 C 
ATOM     16  O   LIG d   1      -0.732  88.179 116.851  0.00  0.00    -0.276 OA
ATOM     17  H   LIG d   1      -0.791  91.334 116.680  0.00  0.00     0.149 HD
ENDBRANCH   6  13
BRANCH   5  18
ATOM     18  N   LIG d   1      -3.640  89.169 115.710  0.00  0.00     0.381 N 
ATOM     19  H   LIG d   1      -3.790  89.454 114.763  0.00  0.00    -0.090 HD
ATOM     20  H   LIG d   1      -4.398  88.569 115.983  0.00  0.00    -0.090 HD
ATOM     21  H   LIG d   1      -2.775  88.680 115.784  0.00  0.00    -0.090 HD
ENDBRANCH   5  18
BRANCH   3  22
ATOM     22  C   LIG d   1      -6.246  91.906 118.653  0.00  0.00     0.382 C 
ATOM     23  O   LIG d   1      -6.483  92.298 119.821  0.00  0.00    -0.241 OA
ATOM     24  O   LIG d   1      -7.145  91.961 117.793  0.00  0.00    -0.241 OA
ENDBRANCH   3  22
TORSDOF 7
ENDMDL
