MODEL 1
REMARK VINA RESULT:      -5.1      0.000      0.000
REMARK  7 active torsions:
REMARK  status: ('A' for Active; 'I' for Inactive)
REMARK    1  A    between atoms: C_2  and  C_3 
REMARK    2  A    between atoms: C_3  and  O_6 
REMARK    3  A    between atoms: C_3  and  C_4 
REMARK    4  A    between atoms: C_7  and  O_6 
REMARK    5  A    between atoms: C_9  and  C_10 
REMARK    6  A    between atoms: N_15  and  C_14 
REMARK    7  A    between atoms: N_20  and  C_19 
REMARK       I    between atoms: C_22  and  N_20 
ROOT
ATOM      1  C   LIG d   1      -4.347  91.794 117.406  0.00  0.00     0.161 C 
ATOM      2  C   LIG d   1      -5.403  92.091 116.528  0.00  0.00     0.016 C 
ATOM      3  C   LIG d   1      -5.750  91.278 115.425  0.00  0.00     0.038 C 
ATOM      4  C   LIG d   1      -5.157  90.024 115.212  0.00  0.00     0.028 C 
ATOM      5  C   LIG d   1      -3.745  89.919 115.777  0.00  0.00    -0.047 C 
ATOM      6  C   LIG d   1      -3.761  90.374 117.254  0.00  0.00     0.091 C 
ENDROOT
BRANCH   1   7
ATOM      7  O   LIG d   1      -4.764  92.021 118.766  0.00  0.00    -0.368 OA
BRANCH   7   8
ATOM      8  C   LIG d   1      -4.147  93.143 119.443  0.00  0.00     0.119 C 
BRANCH   8   9
ATOM      9  C   LIG d   1      -5.196  94.269 119.526  0.00  0.00     0.028 C 
ATOM     10  C   LIG d   1      -6.627  93.727 119.678  0.00  0.00     0.006 C 
ENDBRANCH   8   9
BRANCH   8  11
ATOM     11  C   LIG d   1      -2.993  93.724 118.620  0.00  0.00     0.028 C 
ATOM     12  C   LIG d   1      -1.638  93.625 119.340  0.00  0.00     0.006 C 
ENDBRANCH   8  11
ENDBRANCH   7   8
ENDBRANCH   1   7
BRANCH   6  13
ATOM     13  N   LIG d   1      -2.403  90.382 117.860  0.00  0.00    -0.311 N 
ATOM     14  C   LIG d   1      -1.894  89.350 118.531  0.00  0.00     0.210 C 
ATOM     15  C   LIG d   1      -0.486  89.574 119.090  0.00  0.00     0.109 C 
ATOM     16  O   LIG d   1      -2.463  88.259 118.689  0.00  0.00    -0.276 OA
ATOM     17  H   LIG d   1      -1.861  91.216 117.753  0.00  0.00     0.149 HD
ENDBRANCH   6  13
BRANCH   5  18
ATOM     18  N   LIG d   1      -3.300  88.522 115.608  0.00  0.00     0.381 N 
ATOM     19  H   LIG d   1      -2.332  88.444 115.845  0.00  0.00    -0.090 HD
ATOM     20  H   LIG d   1      -3.412  88.260 114.644  0.00  0.00    -0.090 HD
ATOM     21  H   LIG d   1      -3.841  87.919 116.188  0.00  0.00    -0.090 HD
ENDBRANCH   5  18
BRANCH   3  22
ATOM     22  C   LIG d   1      -6.674  91.735 114.498  0.00  0.00     0.382 C 
ATOM     23  O   LIG d   1      -6.300  92.465 113.548  0.00  0.00    -0.241 OA
ATOM     24  O   LIG d   1      -7.883  91.464 114.624  0.00  0.00    -0.241 OA
ENDBRANCH   3  22
TORSDOF 7
ENDMDL
MODEL 2
REMARK VINA RESULT:      -4.9      2.115      4.830
REMARK  7 active torsions:
REMARK  status: ('A' for Active; 'I' for Inactive)
REMARK    1  A    between atoms: C_2  and  C_3 
REMARK    2  A    between atoms: C_3  and  O_6 
REMARK    3  A    between atoms: C_3  and  C_4 
REMARK    4  A    between atoms: C_7  and  O_6 
REMARK    5  A    between atoms: C_9  and  C_10 
REMARK    6  A    between atoms: N_15  and  C_14 
REMARK    7  A    between atoms: N_20  and  C_19 
REMARK       I    between atoms: C_22  and  N_20 
ROOT
ATOM      1  C   LIG d   1      -4.804  91.461 117.181  0.00  0.00     0.161 C 
ATOM      2  C   LIG d   1      -5.896  92.290 117.488  0.00  0.00     0.016 C 
ATOM      3  C   LIG d   1      -5.815  93.389 118.375  0.00  0.00     0.038 C 
ATOM      4  C   LIG d   1      -4.591  93.827 118.901  0.00  0.00     0.028 C 
ATOM      5  C   LIG d   1      -3.550  92.719 119.018  0.00  0.00    -0.047 C 
ATOM      6  C   LIG d   1      -3.436  91.991 117.659  0.00  0.00     0.091 C 
ENDROOT
BRANCH   1   7
ATOM      7  O   LIG d   1      -4.773  91.199 115.764  0.00  0.00    -0.368 OA
BRANCH   7   8
ATOM      8  C   LIG d   1      -5.475  90.013 115.320  0.00  0.00     0.119 C 
BRANCH   8   9
ATOM      9  C   LIG d   1      -4.533  89.245 114.372  0.00  0.00     0.028 C 
ATOM     10  C   LIG d   1      -3.487  88.413 115.131  0.00  0.00     0.006 C 
ENDBRANCH   8   9
BRANCH   8  11
ATOM     11  C   LIG d   1      -6.698  90.374 114.472  0.00  0.00     0.028 C 
ATOM     12  C   LIG d   1      -6.612  91.787 113.874  0.00  0.00     0.006 C 
ENDBRANCH   8  11
ENDBRANCH   7   8
ENDBRANCH   1   7
BRANCH   6  13
ATOM     13  N   LIG d   1      -2.500  90.838 117.710  0.00  0.00    -0.311 N 
ATOM     14  C   LIG d   1      -1.212  90.924 117.382  0.00  0.00     0.210 C 
ATOM     15  C   LIG d   1      -0.429  89.612 117.486  0.00  0.00     0.109 C 
ATOM     16  O   LIG d   1      -0.636  91.970 117.046  0.00  0.00    -0.276 OA
ATOM     17  H   LIG d   1      -2.877  89.958 118.003  0.00  0.00     0.149 HD
ENDBRANCH   6  13
BRANCH   5  18
ATOM     18  N   LIG d   1      -2.284  93.341 119.449  0.00  0.00     0.381 N 
ATOM     19  H   LIG d   1      -1.633  93.346 118.689  0.00  0.00    -0.090 HD
ATOM     20  H   LIG d   1      -1.891  92.795 120.196  0.00  0.00    -0.090 HD
ATOM     21  H   LIG d   1      -2.450  94.272 119.761  0.00  0.00    -0.090 HD
ENDBRANCH   5  18
BRANCH   3  22
ATOM     22  C   LIG d   1      -6.974  94.037 118.774  0.00  0.00     0.382 C 
ATOM     23  O   LIG d   1      -6.976  94.729 119.820  0.00  0.00    -0.241 OA
ATOM     24  O   LIG d   1      -8.029  93.901 118.126  0.00  0.00    -0.241 OA
ENDBRANCH   3  22
TORSDOF 7
ENDMDL
MODEL 3
REMARK VINA RESULT:      -4.7      4.221      7.021
REMARK  7 active torsions:
REMARK  status: ('A' for Active; 'I' for Inactive)
REMARK    1  A    between atoms: C_2  and  C_3 
REMARK    2  A    between atoms: C_3  and  O_6 
REMARK    3  A    between atoms: C_3  and  C_4 
REMARK    4  A    between atoms: C_7  and  O_6 
REMARK    5  A    between atoms: C_9  and  C_10 
REMARK    6  A    between atoms: N_15  and  C_14 
REMARK    7  A    between atoms: N_20  and  C_19 
REMARK       I    between atoms: C_22  and  N_20 
ROOT
ATOM      1  C   LIG d   1       1.251  90.285 117.933  0.00  0.00     0.161 C 
ATOM      2  C   LIG d   1       0.111  89.468 117.846  0.00  0.00     0.016 C 
ATOM      3  C   LIG d   1      -1.199  89.974 117.682  0.00  0.00     0.038 C 
ATOM      4  C   LIG d   1      -1.443  91.334 117.441  0.00  0.00     0.028 C 
ATOM      5  C   LIG d   1      -0.375  92.254 118.023  0.00  0.00    -0.047 C 
ATOM      6  C   LIG d   1       1.016  91.764 117.561  0.00  0.00     0.091 C 
ENDROOT
BRANCH   1   7
ATOM      7  O   LIG d   1       2.313  89.730 117.133  0.00  0.00    -0.368 OA
BRANCH   7   8
ATOM      8  C   LIG d   1       2.119  89.774 115.697  0.00  0.00     0.119 C 
BRANCH   8   9
ATOM      9  C   LIG d   1       2.372  88.355 115.153  0.00  0.00     0.028 C 
ATOM     10  C   LIG d   1       1.066  87.602 114.847  0.00  0.00     0.006 C 
ENDBRANCH   8   9
BRANCH   8  11
ATOM     11  C   LIG d   1       3.168  90.661 115.020  0.00  0.00     0.028 C 
ATOM     12  C   LIG d   1       3.681  90.072 113.697  0.00  0.00     0.006 C 
ENDBRANCH   8  11
ENDBRANCH   7   8
ENDBRANCH   1   7
BRANCH   6  13
ATOM     13  N   LIG d   1       2.123  92.559 118.154  0.00  0.00    -0.311 N 
ATOM     14  C   LIG d   1       2.645  93.637 117.572  0.00  0.00     0.210 C 
ATOM     15  C   LIG d   1       3.792  94.297 118.344  0.00  0.00     0.109 C 
ATOM     16  O   LIG d   1       2.246  94.129 116.506  0.00  0.00    -0.276 OA
ATOM     17  H   LIG d   1       2.486  92.249 119.034  0.00  0.00     0.149 HD
ENDBRANCH   6  13
BRANCH   5  18
ATOM     18  N   LIG d   1      -0.681  93.628 117.581  0.00  0.00     0.381 N 
ATOM     19  H   LIG d   1       0.164  94.160 117.521  0.00  0.00    -0.090 HD
ATOM     20  H   LIG d   1      -1.280  94.063 118.261  0.00  0.00    -0.090 HD
ATOM     21  H   LIG d   1      -1.133  93.608 116.693  0.00  0.00    -0.090 HD
ENDBRANCH   5  18
BRANCH   3  22
ATOM     22  C   LIG d   1      -2.285  89.120 117.799  0.00  0.00     0.382 C 
ATOM     23  O   LIG d   1      -3.262  89.238 117.021  0.00  0.00    -0.241 OA
ATOM     24  O   LIG d   1      -2.320  88.262 118.701  0.00  0.00    -0.241 OA
ENDBRANCH   3  22
TORSDOF 7
ENDMDL
MODEL 4
REMARK VINA RESULT:      -4.7      3.543      6.671
REMARK  7 active torsions:
REMARK  status: ('A' for Active; 'I' for Inactive)
REMARK    1  A    between atoms: C_2  and  C_3 
REMARK    2  A    between atoms: C_3  and  O_6 
REMARK    3  A    between atoms: C_3  and  C_4 
REMARK    4  A    between atoms: C_7  and  O_6 
REMARK    5  A    between atoms: C_9  and  C_10 
REMARK    6  A    between atoms: N_15  and  C_14 
REMARK    7  A    between atoms: N_20  and  C_19 
REMARK       I    between atoms: C_22  and  N_20 
ROOT
ATOM      1  C   LIG d   1      -0.784  92.073 117.530  0.00  0.00     0.161 C 
ATOM      2  C   LIG d   1       0.570  92.411 117.694  0.00  0.00     0.016 C 
ATOM      3  C   LIG d   1       1.026  93.739 117.854  0.00  0.00     0.038 C 
ATOM      4  C   LIG d   1       0.139  94.814 118.014  0.00  0.00     0.028 C 
ATOM      5  C   LIG d   1      -1.215  94.585 117.351  0.00  0.00    -0.047 C 
ATOM      6  C   LIG d   1      -1.776  93.220 117.812  0.00  0.00     0.091 C 
ENDROOT
BRANCH   1   7
ATOM      7  O   LIG d   1      -1.102  90.924 118.340  0.00  0.00    -0.368 OA
BRANCH   7   8
ATOM      8  C   LIG d   1      -1.289  89.675 117.630  0.00  0.00     0.119 C 
BRANCH   8   9
ATOM      9  C   LIG d   1      -2.176  88.772 118.508  0.00  0.00     0.028 C 
ATOM     10  C   LIG d   1      -1.613  88.597 119.928  0.00  0.00     0.006 C 
ENDBRANCH   8   9
BRANCH   8  11
ATOM     11  C   LIG d   1       0.034  88.918 117.476  0.00  0.00     0.028 C 
ATOM     12  C   LIG d   1       0.152  88.192 116.127  0.00  0.00     0.006 C 
ENDBRANCH   8  11
ENDBRANCH   7   8
ENDBRANCH   1   7
BRANCH   6  13
ATOM     13  N   LIG d   1      -3.059  92.880 117.145  0.00  0.00    -0.311 N 
ATOM     14  C   LIG d   1      -4.116  92.393 117.794  0.00  0.00     0.210 C 
ATOM     15  C   LIG d   1      -5.333  92.092 116.913  0.00  0.00     0.109 C 
ATOM     16  O   LIG d   1      -4.172  92.213 119.019  0.00  0.00    -0.276 OA
ATOM     17  H   LIG d   1      -3.112  93.025 116.156  0.00  0.00     0.149 HD
ENDBRANCH   6  13
BRANCH   5  18
ATOM     18  N   LIG d   1      -2.086  95.720 117.712  0.00  0.00     0.381 N 
ATOM     19  H   LIG d   1      -2.546  96.067 116.894  0.00  0.00    -0.090 HD
ATOM     20  H   LIG d   1      -1.518  96.457 118.091  0.00  0.00    -0.090 HD
ATOM     21  H   LIG d   1      -2.761  95.431 118.385  0.00  0.00    -0.090 HD
ENDBRANCH   5  18
BRANCH   3  22
ATOM     22  C   LIG d   1       2.386  94.008 117.816  0.00  0.00     0.382 C 
ATOM     23  O   LIG d   1       2.884  94.585 116.820  0.00  0.00    -0.241 OA
ATOM     24  O   LIG d   1       3.129  93.641 118.747  0.00  0.00    -0.241 OA
ENDBRANCH   3  22
TORSDOF 7
ENDMDL
MODEL 5
REMARK VINA RESULT:      -4.5      2.238      4.978
REMARK  7 active torsions:
REMARK  status: ('A' for Active; 'I' for Inactive)
REMARK    1  A    between atoms: C_2  and  C_3 
REMARK    2  A    between atoms: C_3  and  O_6 
REMARK    3  A    between atoms: C_3  and  C_4 
REMARK    4  A    between atoms: C_7  and  O_6 
REMARK    5  A    between atoms: C_9  and  C_10 
REMARK    6  A    between atoms: N_15  and  C_14 
REMARK    7  A    between atoms: N_20  and  C_19 
REMARK       I    between atoms: C_22  and  N_20 
ROOT
ATOM      1  C   LIG d   1      -2.941  92.174 117.326  0.00  0.00     0.161 C 
ATOM      2  C   LIG d   1      -2.966  93.213 118.271  0.00  0.00     0.016 C 
ATOM      3  C   LIG d   1      -4.159  93.798 118.752  0.00  0.00     0.038 C 
ATOM      4  C   LIG d   1      -5.422  93.278 118.432  0.00  0.00     0.028 C 
ATOM      5  C   LIG d   1      -5.457  92.555 117.090  0.00  0.00    -0.047 C 
ATOM      6  C   LIG d   1      -4.311  91.519 117.049  0.00  0.00     0.091 C 
ENDROOT
BRANCH   1   7
ATOM      7  O   LIG d   1      -1.980  91.176 117.722  0.00  0.00    -0.368 OA
BRANCH   7   8
ATOM      8  C   LIG d   1      -2.356  90.337 118.842  0.00  0.00     0.119 C 
BRANCH   8   9
ATOM      9  C   LIG d   1      -1.278  90.507 119.930  0.00  0.00     0.028 C 
ATOM     10  C   LIG d   1       0.026  91.104 119.376  0.00  0.00     0.006 C 
ENDBRANCH   8   9
BRANCH   8  11
ATOM     11  C   LIG d   1      -2.320  88.853 118.463  0.00  0.00     0.028 C 
ATOM     12  C   LIG d   1      -1.603  88.596 117.129  0.00  0.00     0.006 C 
ENDBRANCH   8  11
ENDBRANCH   7   8
ENDBRANCH   1   7
BRANCH   6  13
ATOM     13  N   LIG d   1      -4.220  90.825 115.737  0.00  0.00    -0.311 N 
ATOM     14  C   LIG d   1      -4.902  89.719 115.444  0.00  0.00     0.210 C 
ATOM     15  C   LIG d   1      -4.648  89.155 114.043  0.00  0.00     0.109 C 
ATOM     16  O   LIG d   1      -5.718  89.170 116.200  0.00  0.00    -0.276 OA
ATOM     17  H   LIG d   1      -3.605  91.221 115.053  0.00  0.00     0.149 HD
ENDBRANCH   6  13
BRANCH   5  18
ATOM     18  N   LIG d   1      -6.792  91.946 116.946  0.00  0.00     0.381 N 
ATOM     19  H   LIG d   1      -6.844  91.442 116.084  0.00  0.00    -0.090 HD
ATOM     20  H   LIG d   1      -7.482  92.676 116.926  0.00  0.00    -0.090 HD
ATOM     21  H   LIG d   1      -6.971  91.332 117.710  0.00  0.00    -0.090 HD
ENDBRANCH   5  18
BRANCH   3  22
ATOM     22  C   LIG d   1      -4.097  94.942 119.533  0.00  0.00     0.382 C 
ATOM     23  O   LIG d   1      -5.147  95.573 119.807  0.00  0.00    -0.241 OA
ATOM     24  O   LIG d   1      -2.999  95.377 119.930  0.00  0.00    -0.241 OA
ENDBRANCH   3  22
TORSDOF 7
ENDMDL
MODEL 6
REMARK VINA RESULT:      -4.5      3.931      6.577
REMARK  7 active torsions:
REMARK  status: ('A' for Active; 'I' for Inactive)
REMARK    1  A    between atoms: C_2  and  C_3 
REMARK    2  A    between atoms: C_3  and  O_6 
REMARK    3  A    between atoms: C_3  and  C_4 
REMARK    4  A    between atoms: C_7  and  O_6 
REMARK    5  A    between atoms: C_9  and  C_10 
REMARK    6  A    between atoms: N_15  and  C_14 
REMARK    7  A    between atoms: N_20  and  C_19 
REMARK       I    between atoms: C_22  and  N_20 
ROOT
ATOM      1  C   LIG d   1       0.036  91.258 117.483  0.00  0.00     0.161 C 
ATOM      2  C   LIG d   1      -1.264  90.733 117.402  0.00  0.00     0.016 C 
ATOM      3  C   LIG d   1      -2.414  91.431 117.837  0.00  0.00     0.038 C 
ATOM      4  C   LIG d   1      -2.356  92.772 118.246  0.00  0.00     0.028 C 
ATOM      5  C   LIG d   1      -1.001  93.172 118.820  0.00  0.00    -0.047 C 
ATOM      6  C   LIG d   1       0.107  92.761 117.823  0.00  0.00     0.091 C 
ENDROOT
BRANCH   1   7
ATOM      7  O   LIG d   1       0.749  90.987 116.260  0.00  0.00    -0.368 OA
BRANCH   7   8
ATOM      8  C   LIG d   1       1.901  90.116 116.373  0.00  0.00     0.119 C 
BRANCH   8   9
ATOM      9  C   LIG d   1       3.118  90.883 115.821  0.00  0.00     0.028 C 
ATOM     10  C   LIG d   1       4.152  89.951 115.166  0.00  0.00     0.006 C 
ENDBRANCH   8   9
BRANCH   8  11
ATOM     11  C   LIG d   1       1.757  88.883 115.475  0.00  0.00     0.028 C 
ATOM     12  C   LIG d   1       0.601  87.966 115.903  0.00  0.00     0.006 C 
ENDBRANCH   8  11
ENDBRANCH   7   8
ENDBRANCH   1   7
BRANCH   6  13
ATOM     13  N   LIG d   1       1.470  93.041 118.344  0.00  0.00    -0.311 N 
ATOM     14  C   LIG d   1       2.370  93.773 117.689  0.00  0.00     0.210 C 
ATOM     15  C   LIG d   1       3.721  93.921 118.395  0.00  0.00     0.109 C 
ATOM     16  O   LIG d   1       2.166  94.339 116.605  0.00  0.00    -0.276 OA
ATOM     17  H   LIG d   1       1.709  92.645 119.232  0.00  0.00     0.149 HD
ENDBRANCH   6  13
BRANCH   5  18
ATOM     18  N   LIG d   1      -1.037  94.625 119.077  0.00  0.00     0.381 N 
ATOM     19  H   LIG d   1      -1.582  95.080 118.372  0.00  0.00    -0.090 HD
ATOM     20  H   LIG d   1      -0.101  94.986 119.035  0.00  0.00    -0.090 HD
ATOM     21  H   LIG d   1      -1.429  94.802 119.976  0.00  0.00    -0.090 HD
ENDBRANCH   5  18
BRANCH   3  22
ATOM     22  C   LIG d   1      -3.633  90.774 117.903  0.00  0.00     0.382 C 
ATOM     23  O   LIG d   1      -4.645  91.374 118.338  0.00  0.00    -0.241 OA
ATOM     24  O   LIG d   1      -3.724  89.576 117.575  0.00  0.00    -0.241 OA
ENDBRANCH   3  22
TORSDOF 7
ENDMDL
MODEL 7
REMARK VINA RESULT:      -4.4      7.436     10.103
REMARK  7 active torsions:
REMARK  status: ('A' for Active; 'I' for Inactive)
REMARK    1  A    between atoms: C_2  and  C_3 
REMARK    2  A    between atoms: C_3  and  O_6 
REMARK    3  A    between atoms: C_3  and  C_4 
REMARK    4  A    between atoms: C_7  and  O_6 
REMARK    5  A    between atoms: C_9  and  C_10 
REMARK    6  A    between atoms: N_15  and  C_14 
REMARK    7  A    between atoms: N_20  and  C_19 
REMARK       I    between atoms: C_22  and  N_20 
ROOT
ATOM      1  C   LIG d   1       3.767  87.675 115.891  0.00  0.00     0.161 C 
ATOM      2  C   LIG d   1       2.861  88.737 115.732  0.00  0.00     0.016 C 
ATOM      3  C   LIG d   1       3.203  90.091 115.953  0.00  0.00     0.038 C 
ATOM      4  C   LIG d   1       4.524  90.491 116.203  0.00  0.00     0.028 C 
ATOM      5  C   LIG d   1       5.369  89.409 116.869  0.00  0.00    -0.047 C 
ATOM      6  C   LIG d   1       5.241  88.101 116.055  0.00  0.00     0.091 C 
ENDROOT
BRANCH   1   7
ATOM      7  O   LIG d   1       3.632  86.749 114.795  0.00  0.00    -0.368 OA
BRANCH   7   8
ATOM      8  C   LIG d   1       3.128  87.301 113.553  0.00  0.00     0.119 C 
BRANCH   8   9
ATOM      9  C   LIG d   1       2.027  86.353 113.039  0.00  0.00     0.028 C 
ATOM     10  C   LIG d   1       0.634  86.730 113.569  0.00  0.00     0.006 C 
ENDBRANCH   8   9
BRANCH   8  11
ATOM     11  C   LIG d   1       4.206  87.299 112.465  0.00  0.00     0.028 C 
ATOM     12  C   LIG d   1       5.278  88.378 112.686  0.00  0.00     0.006 C 
ENDBRANCH   8  11
ENDBRANCH   7   8
ENDBRANCH   1   7
BRANCH   6  13
ATOM     13  N   LIG d   1       5.969  86.969 116.685  0.00  0.00    -0.311 N 
ATOM     14  C   LIG d   1       7.225  86.646 116.383  0.00  0.00     0.210 C 
ATOM     15  C   LIG d   1       7.780  85.432 117.134  0.00  0.00     0.109 C 
ATOM     16  O   LIG d   1       7.944  87.270 115.587  0.00  0.00    -0.276 OA
ATOM     17  H   LIG d   1       5.471  86.428 117.365  0.00  0.00     0.149 HD
ENDBRANCH   6  13
BRANCH   5  18
ATOM     18  N   LIG d   1       6.754  89.910 116.945  0.00  0.00     0.381 N 
ATOM     19  H   LIG d   1       7.319  89.450 116.259  0.00  0.00    -0.090 HD
ATOM     20  H   LIG d   1       7.127  89.697 117.854  0.00  0.00    -0.090 HD
ATOM     21  H   LIG d   1       6.770  90.894 116.793  0.00  0.00    -0.090 HD
ENDBRANCH   5  18
BRANCH   3  22
ATOM     22  C   LIG d   1       2.209  91.058 115.963  0.00  0.00     0.382 C 
ATOM     23  O   LIG d   1       1.010  90.726 115.801  0.00  0.00    -0.241 OA
ATOM     24  O   LIG d   1       2.501  92.262 116.089  0.00  0.00    -0.241 OA
ENDBRANCH   3  22
TORSDOF 7
ENDMDL
MODEL 8
REMARK VINA RESULT:      -4.4      1.294      2.196
REMARK  7 active torsions:
REMARK  status: ('A' for Active; 'I' for Inactive)
REMARK    1  A    between atoms: C_2  and  C_3 
REMARK    2  A    between atoms: C_3  and  O_6 
REMARK    3  A    between atoms: C_3  and  C_4 
REMARK    4  A    between atoms: C_7  and  O_6 
REMARK    5  A    between atoms: C_9  and  C_10 
REMARK    6  A    between atoms: N_15  and  C_14 
REMARK    7  A    between atoms: N_20  and  C_19 
REMARK       I    between atoms: C_22  and  N_20 
ROOT
ATOM      1  C   LIG d   1      -4.447  92.285 117.467  0.00  0.00     0.161 C 
ATOM      2  C   LIG d   1      -5.510  92.053 116.578  0.00  0.00     0.016 C 
ATOM      3  C   LIG d   1      -5.613  90.895 115.774  0.00  0.00     0.038 C 
ATOM      4  C   LIG d   1      -4.731  89.814 115.915  0.00  0.00     0.028 C 
ATOM      5  C   LIG d   1      -3.356  90.217 116.438  0.00  0.00    -0.047 C 
ATOM      6  C   LIG d   1      -3.535  91.066 117.717  0.00  0.00     0.091 C 
ENDROOT
BRANCH   1   7
ATOM      7  O   LIG d   1      -4.957  92.794 118.716  0.00  0.00    -0.368 OA
BRANCH   7   8
ATOM      8  C   LIG d   1      -4.782  94.213 118.945  0.00  0.00     0.119 C 
BRANCH   8   9
ATOM      9  C   LIG d   1      -3.609  94.382 119.930  0.00  0.00     0.028 C 
ATOM     10  C   LIG d   1      -2.455  95.205 119.332  0.00  0.00     0.006 C 
ENDBRANCH   8   9
BRANCH   8  11
ATOM     11  C   LIG d   1      -5.998  94.817 119.656  0.00  0.00     0.028 C 
ATOM     12  C   LIG d   1      -7.306  94.615 118.874  0.00  0.00     0.006 C 
ENDBRANCH   8  11
ENDBRANCH   7   8
ENDBRANCH   1   7
BRANCH   6  13
ATOM     13  N   LIG d   1      -2.242  91.573 118.246  0.00  0.00    -0.311 N 
ATOM     14  C   LIG d   1      -1.580  90.992 119.245  0.00  0.00     0.210 C 
ATOM     15  C   LIG d   1      -0.277  91.688 119.649  0.00  0.00     0.109 C 
ATOM     16  O   LIG d   1      -1.933  89.948 119.814  0.00  0.00    -0.276 OA
ATOM     17  H   LIG d   1      -1.867  92.399 117.821  0.00  0.00     0.149 HD
ENDBRANCH   6  13
BRANCH   5  18
ATOM     18  N   LIG d   1      -2.586  88.980 116.668  0.00  0.00     0.381 N 
ATOM     19  H   LIG d   1      -2.854  88.572 117.541  0.00  0.00    -0.090 HD
ATOM     20  H   LIG d   1      -1.609  89.209 116.713  0.00  0.00    -0.090 HD
ATOM     21  H   LIG d   1      -2.749  88.334 115.927  0.00  0.00    -0.090 HD
ENDBRANCH   5  18
BRANCH   3  22
ATOM     22  C   LIG d   1      -6.583  90.829 114.786  0.00  0.00     0.382 C 
ATOM     23  O   LIG d   1      -6.608  89.854 113.996  0.00  0.00    -0.241 OA
ATOM     24  O   LIG d   1      -7.407  91.752 114.646  0.00  0.00    -0.241 OA
ENDBRANCH   3  22
TORSDOF 7
ENDMDL
MODEL 9
REMARK VINA RESULT:      -4.2      5.419      7.775
REMARK  7 active torsions:
REMARK  status: ('A' for Active; 'I' for Inactive)
REMARK    1  A    between atoms: C_2  and  C_3 
REMARK    2  A    between atoms: C_3  and  O_6 
REMARK    3  A    between atoms: C_3  and  C_4 
REMARK    4  A    between atoms: C_7  and  O_6 
REMARK    5  A    between atoms: C_9  and  C_10 
REMARK    6  A    between atoms: N_15  and  C_14 
REMARK    7  A    between atoms: N_20  and  C_19 
REMARK       I    between atoms: C_22  and  N_20 
ROOT
ATOM      1  C   LIG d   1       2.655  90.940 116.360  0.00  0.00     0.161 C 
ATOM      2  C   LIG d   1       3.615  90.569 115.404  0.00  0.00     0.016 C 
ATOM      3  C   LIG d   1       3.475  89.446 114.556  0.00  0.00     0.038 C 
ATOM      4  C   LIG d   1       2.288  88.701 114.502  0.00  0.00     0.028 C 
ATOM      5  C   LIG d   1       1.493  88.733 115.803  0.00  0.00    -0.047 C 
ATOM      6  C   LIG d   1       1.304  90.204 116.240  0.00  0.00     0.091 C 
ENDROOT
BRANCH   1   7
ATOM      7  O   LIG d   1       2.454  92.366 116.322  0.00  0.00    -0.368 OA
BRANCH   7   8
ATOM      8  C   LIG d   1       2.611  93.066 117.582  0.00  0.00     0.119 C 
BRANCH   8   9
ATOM      9  C   LIG d   1       3.266  94.427 117.277  0.00  0.00     0.028 C 
ATOM     10  C   LIG d   1       3.809  95.113 118.541  0.00  0.00     0.006 C 
ENDBRANCH   8   9
BRANCH   8  11
ATOM     11  C   LIG d   1       3.595  92.340 118.503  0.00  0.00     0.028 C 
ATOM     12  C   LIG d   1       2.946  91.866 119.814  0.00  0.00     0.006 C 
ENDBRANCH   8  11
ENDBRANCH   7   8
ENDBRANCH   1   7
BRANCH   6  13
ATOM     13  N   LIG d   1       0.609  90.322 117.548  0.00  0.00    -0.311 N 
ATOM     14  C   LIG d   1      -0.394  91.169 117.771  0.00  0.00     0.210 C 
ATOM     15  C   LIG d   1      -0.956  91.145 119.196  0.00  0.00     0.109 C 
ATOM     16  O   LIG d   1      -0.893  91.915 116.916  0.00  0.00    -0.276 OA
ATOM     17  H   LIG d   1       0.930  89.731 118.290  0.00  0.00     0.149 HD
ENDBRANCH   6  13
BRANCH   5  18
ATOM     18  N   LIG d   1       0.217  88.033 115.564  0.00  0.00     0.381 N 
ATOM     19  H   LIG d   1       0.210  87.649 114.640  0.00  0.00    -0.090 HD
ATOM     20  H   LIG d   1      -0.535  88.694 115.637  0.00  0.00    -0.090 HD
ATOM     21  H   LIG d   1       0.096  87.306 116.234  0.00  0.00    -0.090 HD
ENDBRANCH   5  18
BRANCH   3  22
ATOM     22  C   LIG d   1       4.546  89.035 113.777  0.00  0.00     0.382 C 
ATOM     23  O   LIG d   1       5.303  88.122 114.184  0.00  0.00    -0.241 OA
ATOM     24  O   LIG d   1       4.791  89.597 112.693  0.00  0.00    -0.241 OA
ENDBRANCH   3  22
TORSDOF 7
ENDMDL
