MODEL 1
REMARK VINA RESULT:      -5.1      0.000      0.000
REMARK  7 active torsions:
REMARK  status: ('A' for Active; 'I' for Inactive)
REMARK    1  A    between atoms: C_2  and  C_3 
REMARK    2  A    between atoms: C_3  and  O_6 
REMARK    3  A    between atoms: C_3  and  C_4 
REMARK    4  A    between atoms: C_7  and  O_6 
REMARK    5  A    between atoms: C_9  and  C_10 
REMARK    6  A    between atoms: N_15  and  C_14 
REMARK    7  A    between atoms: N_20  and  C_19 
REMARK       I    between atoms: C_22  and  N_20 
ROOT
ATOM      1  C   LIG d   1      -3.858  91.664 117.443  0.00  0.00     0.161 C 
ATOM      2  C   LIG d   1      -4.965  91.900 116.611  0.00  0.00     0.016 C 
ATOM      3  C   LIG d   1      -5.425  90.974 115.646  0.00  0.00     0.038 C 
ATOM      4  C   LIG d   1      -4.896  89.678 115.551  0.00  0.00     0.028 C 
ATOM      5  C   LIG d   1      -3.450  89.578 116.025  0.00  0.00    -0.047 C 
ATOM      6  C   LIG d   1      -3.338  90.211 117.430  0.00  0.00     0.091 C 
ENDROOT
BRANCH   1   7
ATOM      7  O   LIG d   1      -4.163  92.075 118.790  0.00  0.00    -0.368 OA
BRANCH   7   8
ATOM      8  C   LIG d   1      -3.436  93.227 119.285  0.00  0.00     0.119 C 
BRANCH   8   9
ATOM      9  C   LIG d   1      -4.446  94.381 119.439  0.00  0.00     0.028 C 
ATOM     10  C   LIG d   1      -5.882  93.878 119.664  0.00  0.00     0.006 C 
ENDBRANCH   8   9
BRANCH   8  11
ATOM     11  C   LIG d   1      -2.410  93.720 118.260  0.00  0.00     0.028 C 
ATOM     12  C   LIG d   1      -0.968  93.672 118.790  0.00  0.00     0.006 C 
ENDBRANCH   8  11
ENDBRANCH   7   8
ENDBRANCH   1   7
BRANCH   6  13
ATOM     13  N   LIG d   1      -1.939  90.230 117.933  0.00  0.00    -0.311 N 
ATOM     14  C   LIG d   1      -1.583  89.758 119.126  0.00  0.00     0.210 C 
ATOM     15  C   LIG d   1      -0.093  89.893 119.457  0.00  0.00     0.109 C 
ATOM     16  O   LIG d   1      -2.353  89.211 119.930  0.00  0.00    -0.276 OA
ATOM     17  H   LIG d   1      -1.244  90.629 117.333  0.00  0.00     0.149 HD
ENDBRANCH   6  13
BRANCH   5  18
ATOM     18  N   LIG d   1      -3.072  88.152 116.001  0.00  0.00     0.381 N 
ATOM     19  H   LIG d   1      -3.230  87.745 116.901  0.00  0.00    -0.090 HD
ATOM     20  H   LIG d   1      -2.092  88.080 115.790  0.00  0.00    -0.090 HD
ATOM     21  H   LIG d   1      -3.604  87.669 115.312  0.00  0.00    -0.090 HD
ENDBRANCH   5  18
BRANCH   3  22
ATOM     22  C   LIG d   1      -6.398  91.357 114.736  0.00  0.00     0.382 C 
ATOM     23  O   LIG d   1      -7.204  90.507 114.286  0.00  0.00    -0.241 OA
ATOM     24  O   LIG d   1      -6.452  92.532 114.325  0.00  0.00    -0.241 OA
ENDBRANCH   3  22
TORSDOF 7
ENDMDL
MODEL 2
REMARK VINA RESULT:      -4.8      2.253      4.161
REMARK  7 active torsions:
REMARK  status: ('A' for Active; 'I' for Inactive)
REMARK    1  A    between atoms: C_2  and  C_3 
REMARK    2  A    between atoms: C_3  and  O_6 
REMARK    3  A    between atoms: C_3  and  C_4 
REMARK    4  A    between atoms: C_7  and  O_6 
REMARK    5  A    between atoms: C_9  and  C_10 
REMARK    6  A    between atoms: N_15  and  C_14 
REMARK    7  A    between atoms: N_20  and  C_19 
REMARK       I    between atoms: C_22  and  N_20 
ROOT
ATOM      1  C   LIG d   1      -3.306  89.905 117.314  0.00  0.00     0.161 C 
ATOM      2  C   LIG d   1      -4.442  89.562 116.561  0.00  0.00     0.016 C 
ATOM      3  C   LIG d   1      -5.466  90.482 116.236  0.00  0.00     0.038 C 
ATOM      4  C   LIG d   1      -5.348  91.851 116.514  0.00  0.00     0.028 C 
ATOM      5  C   LIG d   1      -4.456  92.151 117.714  0.00  0.00    -0.047 C 
ATOM      6  C   LIG d   1      -3.106  91.419 117.531  0.00  0.00     0.091 C 
ENDROOT
BRANCH   1   7
ATOM      7  O   LIG d   1      -2.130  89.326 116.714  0.00  0.00    -0.368 OA
BRANCH   7   8
ATOM      8  C   LIG d   1      -1.720  88.036 117.232  0.00  0.00     0.119 C 
BRANCH   8   9
ATOM      9  C   LIG d   1      -1.799  88.108 118.769  0.00  0.00     0.028 C 
ATOM     10  C   LIG d   1      -2.076  86.736 119.407  0.00  0.00     0.006 C 
ENDBRANCH   8   9
BRANCH   8  11
ATOM     11  C   LIG d   1      -0.249  87.750 116.914  0.00  0.00     0.028 C 
ATOM     12  C   LIG d   1       0.621  89.017 116.930  0.00  0.00     0.006 C 
ENDBRANCH   8  11
ENDBRANCH   7   8
ENDBRANCH   1   7
BRANCH   6  13
ATOM     13  N   LIG d   1      -2.205  91.591 118.700  0.00  0.00    -0.311 N 
ATOM     14  C   LIG d   1      -0.956  92.042 118.603  0.00  0.00     0.210 C 
ATOM     15  C   LIG d   1      -0.193  92.124 119.929  0.00  0.00     0.109 C 
ATOM     16  O   LIG d   1      -0.418  92.413 117.549  0.00  0.00    -0.276 OA
ATOM     17  H   LIG d   1      -2.571  91.343 119.599  0.00  0.00     0.149 HD
ENDBRANCH   6  13
BRANCH   5  18
ATOM     18  N   LIG d   1      -4.311  93.616 117.807  0.00  0.00     0.381 N 
ATOM     19  H   LIG d   1      -4.131  93.880 118.755  0.00  0.00    -0.090 HD
ATOM     20  H   LIG d   1      -5.171  94.047 117.518  0.00  0.00    -0.090 HD
ATOM     21  H   LIG d   1      -3.564  93.923 117.222  0.00  0.00    -0.090 HD
ENDBRANCH   5  18
BRANCH   3  22
ATOM     22  C   LIG d   1      -6.641  90.025 115.659  0.00  0.00     0.382 C 
ATOM     23  O   LIG d   1      -7.019  90.488 114.556  0.00  0.00    -0.241 OA
ATOM     24  O   LIG d   1      -7.351  89.189 116.250  0.00  0.00    -0.241 OA
ENDBRANCH   3  22
TORSDOF 7
ENDMDL
MODEL 3
REMARK VINA RESULT:      -4.8      2.109      4.455
REMARK  7 active torsions:
REMARK  status: ('A' for Active; 'I' for Inactive)
REMARK    1  A    between atoms: C_2  and  C_3 
REMARK    2  A    between atoms: C_3  and  O_6 
REMARK    3  A    between atoms: C_3  and  C_4 
REMARK    4  A    between atoms: C_7  and  O_6 
REMARK    5  A    between atoms: C_9  and  C_10 
REMARK    6  A    between atoms: N_15  and  C_14 
REMARK    7  A    between atoms: N_20  and  C_19 
REMARK       I    between atoms: C_22  and  N_20 
ROOT
ATOM      1  C   LIG d   1      -4.965  90.533 118.381  0.00  0.00     0.161 C 
ATOM      2  C   LIG d   1      -5.492  91.834 118.327  0.00  0.00     0.016 C 
ATOM      3  C   LIG d   1      -4.724  92.996 118.570  0.00  0.00     0.038 C 
ATOM      4  C   LIG d   1      -3.333  92.943 118.737  0.00  0.00     0.028 C 
ATOM      5  C   LIG d   1      -2.840  91.614 119.299  0.00  0.00    -0.047 C 
ATOM      6  C   LIG d   1      -3.425  90.462 118.451  0.00  0.00     0.091 C 
ENDROOT
BRANCH   1   7
ATOM      7  O   LIG d   1      -5.451  89.762 117.264  0.00  0.00    -0.368 OA
BRANCH   7   8
ATOM      8  C   LIG d   1      -4.871  90.073 115.974  0.00  0.00     0.119 C 
BRANCH   8   9
ATOM      9  C   LIG d   1      -6.031  90.246 114.974  0.00  0.00     0.028 C 
ATOM     10  C   LIG d   1      -6.324  91.724 114.665  0.00  0.00     0.006 C 
ENDBRANCH   8   9
BRANCH   8  11
ATOM     11  C   LIG d   1      -4.045  88.900 115.437  0.00  0.00     0.028 C 
ATOM     12  C   LIG d   1      -4.491  88.448 114.038  0.00  0.00     0.006 C 
ENDBRANCH   8  11
ENDBRANCH   7   8
ENDBRANCH   1   7
BRANCH   6  13
ATOM     13  N   LIG d   1      -3.061  89.124 118.984  0.00  0.00    -0.311 N 
ATOM     14  C   LIG d   1      -2.021  88.417 118.544  0.00  0.00     0.210 C 
ATOM     15  C   LIG d   1      -1.835  87.053 119.216  0.00  0.00     0.109 C 
ATOM     16  O   LIG d   1      -1.217  88.805 117.683  0.00  0.00    -0.276 OA
ATOM     17  H   LIG d   1      -3.642  88.747 119.708  0.00  0.00     0.149 HD
ENDBRANCH   6  13
BRANCH   5  18
ATOM     18  N   LIG d   1      -1.365  91.647 119.292  0.00  0.00     0.381 N 
ATOM     19  H   LIG d   1      -1.007  90.871 119.812  0.00  0.00    -0.090 HD
ATOM     20  H   LIG d   1      -1.056  92.494 119.735  0.00  0.00    -0.090 HD
ATOM     21  H   LIG d   1      -1.028  91.612 118.355  0.00  0.00    -0.090 HD
ENDBRANCH   5  18
BRANCH   3  22
ATOM     22  C   LIG d   1      -5.356  94.225 118.689  0.00  0.00     0.382 C 
ATOM     23  O   LIG d   1      -6.422  94.444 118.065  0.00  0.00    -0.241 OA
ATOM     24  O   LIG d   1      -4.849  95.132 119.376  0.00  0.00    -0.241 OA
ENDBRANCH   3  22
TORSDOF 7
ENDMDL
MODEL 4
REMARK VINA RESULT:      -4.8      2.288      4.394
REMARK  7 active torsions:
REMARK  status: ('A' for Active; 'I' for Inactive)
REMARK    1  A    between atoms: C_2  and  C_3 
REMARK    2  A    between atoms: C_3  and  O_6 
REMARK    3  A    between atoms: C_3  and  C_4 
REMARK    4  A    between atoms: C_7  and  O_6 
REMARK    5  A    between atoms: C_9  and  C_10 
REMARK    6  A    between atoms: N_15  and  C_14 
REMARK    7  A    between atoms: N_20  and  C_19 
REMARK       I    between atoms: C_22  and  N_20 
ROOT
ATOM      1  C   LIG d   1      -2.971  90.627 117.464  0.00  0.00     0.161 C 
ATOM      2  C   LIG d   1      -3.959  89.930 116.748  0.00  0.00     0.016 C 
ATOM      3  C   LIG d   1      -5.200  90.498 116.380  0.00  0.00     0.038 C 
ATOM      4  C   LIG d   1      -5.478  91.859 116.573  0.00  0.00     0.028 C 
ATOM      5  C   LIG d   1      -4.714  92.474 117.741  0.00  0.00    -0.047 C 
ATOM      6  C   LIG d   1      -3.212  92.146 117.586  0.00  0.00     0.091 C 
ENDROOT
BRANCH   1   7
ATOM      7  O   LIG d   1      -1.676  90.370 116.886  0.00  0.00    -0.368 OA
BRANCH   7   8
ATOM      8  C   LIG d   1      -0.779  89.547 117.673  0.00  0.00     0.119 C 
BRANCH   8   9
ATOM      9  C   LIG d   1       0.656  89.831 117.186  0.00  0.00     0.028 C 
ATOM     10  C   LIG d   1       0.978  91.334 117.152  0.00  0.00     0.006 C 
ENDBRANCH   8   9
BRANCH   8  11
ATOM     11  C   LIG d   1      -1.011  88.057 117.406  0.00  0.00     0.028 C 
ATOM     12  C   LIG d   1      -1.764  87.357 118.548  0.00  0.00     0.006 C 
ENDBRANCH   8  11
ENDBRANCH   7   8
ENDBRANCH   1   7
BRANCH   6  13
ATOM     13  N   LIG d   1      -2.403  92.639 118.731  0.00  0.00    -0.311 N 
ATOM     14  C   LIG d   1      -1.528  93.639 118.634  0.00  0.00     0.210 C 
ATOM     15  C   LIG d   1      -0.784  93.976 119.930  0.00  0.00     0.109 C 
ATOM     16  O   LIG d   1      -1.321  94.300 117.605  0.00  0.00    -0.276 OA
ATOM     17  H   LIG d   1      -2.531  92.180 119.611  0.00  0.00     0.149 HD
ENDBRANCH   6  13
BRANCH   5  18
ATOM     18  N   LIG d   1      -4.993  93.923 117.742  0.00  0.00     0.381 N 
ATOM     19  H   LIG d   1      -4.620  94.339 118.572  0.00  0.00    -0.090 HD
ATOM     20  H   LIG d   1      -5.988  94.063 117.738  0.00  0.00    -0.090 HD
ATOM     21  H   LIG d   1      -4.587  94.349 116.937  0.00  0.00    -0.090 HD
ENDBRANCH   5  18
BRANCH   3  22
ATOM     22  C   LIG d   1      -6.194  89.691 115.848  0.00  0.00     0.382 C 
ATOM     23  O   LIG d   1      -7.072  89.201 116.598  0.00  0.00    -0.241 OA
ATOM     24  O   LIG d   1      -6.198  89.411 114.635  0.00  0.00    -0.241 OA
ENDBRANCH   3  22
TORSDOF 7
ENDMDL
MODEL 5
REMARK VINA RESULT:      -4.5      6.122      9.087
REMARK  7 active torsions:
REMARK  status: ('A' for Active; 'I' for Inactive)
REMARK    1  A    between atoms: C_2  and  C_3 
REMARK    2  A    between atoms: C_3  and  O_6 
REMARK    3  A    between atoms: C_3  and  C_4 
REMARK    4  A    between atoms: C_7  and  O_6 
REMARK    5  A    between atoms: C_9  and  C_10 
REMARK    6  A    between atoms: N_15  and  C_14 
REMARK    7  A    between atoms: N_20  and  C_19 
REMARK       I    between atoms: C_22  and  N_20 
ROOT
ATOM      1  C   LIG d   1       3.218  89.080 115.889  0.00  0.00     0.161 C 
ATOM      2  C   LIG d   1       3.744  90.167 116.606  0.00  0.00     0.016 C 
ATOM      3  C   LIG d   1       2.942  91.130 117.259  0.00  0.00     0.038 C 
ATOM      4  C   LIG d   1       1.551  90.987 117.366  0.00  0.00     0.028 C 
ATOM      5  C   LIG d   1       0.936  90.178 116.229  0.00  0.00    -0.047 C 
ATOM      6  C   LIG d   1       1.706  88.845 116.089  0.00  0.00     0.091 C 
ENDROOT
BRANCH   1   7
ATOM      7  O   LIG d   1       3.956  87.883 116.204  0.00  0.00    -0.368 OA
BRANCH   7   8
ATOM      8  C   LIG d   1       5.114  87.612 115.376  0.00  0.00     0.119 C 
BRANCH   8   9
ATOM      9  C   LIG d   1       4.622  86.861 114.123  0.00  0.00     0.028 C 
ATOM     10  C   LIG d   1       4.946  87.614 112.822  0.00  0.00     0.006 C 
ENDBRANCH   8   9
BRANCH   8  11
ATOM     11  C   LIG d   1       6.084  86.651 116.070  0.00  0.00     0.028 C 
ATOM     12  C   LIG d   1       7.514  87.207 116.155  0.00  0.00     0.006 C 
ENDBRANCH   8  11
ENDBRANCH   7   8
ENDBRANCH   1   7
BRANCH   6  13
ATOM     13  N   LIG d   1       1.222  88.029 114.944  0.00  0.00    -0.311 N 
ATOM     14  C   LIG d   1       0.942  86.731 115.036  0.00  0.00     0.210 C 
ATOM     15  C   LIG d   1       0.477  86.075 113.732  0.00  0.00     0.109 C 
ATOM     16  O   LIG d   1       1.003  86.066 116.082  0.00  0.00    -0.276 OA
ATOM     17  H   LIG d   1       1.114  88.496 114.065  0.00  0.00     0.149 HD
ENDBRANCH   6  13
BRANCH   5  18
ATOM     18  N   LIG d   1      -0.494  89.990 116.539  0.00  0.00     0.381 N 
ATOM     19  H   LIG d   1      -0.823  90.753 117.096  0.00  0.00    -0.090 HD
ATOM     20  H   LIG d   1      -0.604  89.142 117.068  0.00  0.00    -0.090 HD
ATOM     21  H   LIG d   1      -1.021  89.933 115.695  0.00  0.00    -0.090 HD
ENDBRANCH   5  18
BRANCH   3  22
ATOM     22  C   LIG d   1       3.528  92.274 117.779  0.00  0.00     0.382 C 
ATOM     23  O   LIG d   1       3.196  92.687 118.917  0.00  0.00    -0.241 OA
ATOM     24  O   LIG d   1       4.353  92.923 117.108  0.00  0.00    -0.241 OA
ENDBRANCH   3  22
TORSDOF 7
ENDMDL
MODEL 6
REMARK VINA RESULT:      -4.4      2.189      5.235
REMARK  7 active torsions:
REMARK  status: ('A' for Active; 'I' for Inactive)
REMARK    1  A    between atoms: C_2  and  C_3 
REMARK    2  A    between atoms: C_3  and  O_6 
REMARK    3  A    between atoms: C_3  and  C_4 
REMARK    4  A    between atoms: C_7  and  O_6 
REMARK    5  A    between atoms: C_9  and  C_10 
REMARK    6  A    between atoms: N_15  and  C_14 
REMARK    7  A    between atoms: N_20  and  C_19 
REMARK       I    between atoms: C_22  and  N_20 
ROOT
ATOM      1  C   LIG d   1      -2.165  91.247 117.795  0.00  0.00     0.161 C 
ATOM      2  C   LIG d   1      -1.998  92.383 118.603  0.00  0.00     0.016 C 
ATOM      3  C   LIG d   1      -2.988  93.381 118.758  0.00  0.00     0.038 C 
ATOM      4  C   LIG d   1      -4.279  93.232 118.229  0.00  0.00     0.028 C 
ATOM      5  C   LIG d   1      -4.328  92.345 116.990  0.00  0.00    -0.047 C 
ATOM      6  C   LIG d   1      -3.607  91.012 117.299  0.00  0.00     0.091 C 
ENDROOT
BRANCH   1   7
ATOM      7  O   LIG d   1      -1.676  90.080 118.485  0.00  0.00    -0.368 OA
BRANCH   7   8
ATOM      8  C   LIG d   1      -0.539  89.413 117.883  0.00  0.00     0.119 C 
BRANCH   8   9
ATOM      9  C   LIG d   1      -0.922  87.934 117.685  0.00  0.00     0.028 C 
ATOM     10  C   LIG d   1      -2.142  87.525 118.527  0.00  0.00     0.006 C 
ENDBRANCH   8   9
BRANCH   8  11
ATOM     11  C   LIG d   1       0.663  89.397 118.832  0.00  0.00     0.028 C 
ATOM     12  C   LIG d   1       1.470  90.705 118.793  0.00  0.00     0.006 C 
ENDBRANCH   8  11
ENDBRANCH   7   8
ENDBRANCH   1   7
BRANCH   6  13
ATOM     13  N   LIG d   1      -3.536  90.119 116.113  0.00  0.00    -0.311 N 
ATOM     14  C   LIG d   1      -4.523  89.302 115.750  0.00  0.00     0.210 C 
ATOM     15  C   LIG d   1      -4.236  88.453 114.508  0.00  0.00     0.109 C 
ATOM     16  O   LIG d   1      -5.622  89.224 116.319  0.00  0.00    -0.276 OA
ATOM     17  H   LIG d   1      -2.691  90.141 115.576  0.00  0.00     0.149 HD
ENDBRANCH   6  13
BRANCH   5  18
ATOM     18  N   LIG d   1      -5.746  92.164 116.627  0.00  0.00     0.381 N 
ATOM     19  H   LIG d   1      -6.327  92.659 117.274  0.00  0.00    -0.090 HD
ATOM     20  H   LIG d   1      -5.974  91.187 116.682  0.00  0.00    -0.090 HD
ATOM     21  H   LIG d   1      -5.906  92.499 115.702  0.00  0.00    -0.090 HD
ENDBRANCH   5  18
BRANCH   3  22
ATOM     22  C   LIG d   1      -2.678  94.562 119.415  0.00  0.00     0.382 C 
ATOM     23  O   LIG d   1      -1.543  94.714 119.928  0.00  0.00    -0.241 OA
ATOM     24  O   LIG d   1      -3.532  95.459 119.540  0.00  0.00    -0.241 OA
ENDBRANCH   3  22
TORSDOF 7
ENDMDL
MODEL 7
REMARK VINA RESULT:      -4.3      2.725      5.390
REMARK  7 active torsions:
REMARK  status: ('A' for Active; 'I' for Inactive)
REMARK    1  A    between atoms: C_2  and  C_3 
REMARK    2  A    between atoms: C_3  and  O_6 
REMARK    3  A    between atoms: C_3  and  C_4 
REMARK    4  A    between atoms: C_7  and  O_6 
REMARK    5  A    between atoms: C_9  and  C_10 
REMARK    6  A    between atoms: N_15  and  C_14 
REMARK    7  A    between atoms: N_20  and  C_19 
REMARK       I    between atoms: C_22  and  N_20 
ROOT
ATOM      1  C   LIG d   1      -2.073  92.844 117.862  0.00  0.00     0.161 C 
ATOM      2  C   LIG d   1      -1.928  94.055 118.559  0.00  0.00     0.016 C 
ATOM      3  C   LIG d   1      -3.012  94.752 119.140  0.00  0.00     0.038 C 
ATOM      4  C   LIG d   1      -4.302  94.205 119.194  0.00  0.00     0.028 C 
ATOM      5  C   LIG d   1      -4.592  93.223 118.064  0.00  0.00    -0.047 C 
ATOM      6  C   LIG d   1      -3.456  92.176 118.006  0.00  0.00     0.091 C 
ENDROOT
BRANCH   1   7
ATOM      7  O   LIG d   1      -1.030  91.928 118.252  0.00  0.00    -0.368 OA
BRANCH   7   8
ATOM      8  C   LIG d   1      -0.087  91.558 117.217  0.00  0.00     0.119 C 
BRANCH   8   9
ATOM      9  C   LIG d   1      -0.063  90.019 117.141  0.00  0.00     0.028 C 
ATOM     10  C   LIG d   1       1.119  89.491 116.310  0.00  0.00     0.006 C 
ENDBRANCH   8   9
BRANCH   8  11
ATOM     11  C   LIG d   1       1.341  91.968 117.592  0.00  0.00     0.028 C 
ATOM     12  C   LIG d   1       1.471  92.393 119.063  0.00  0.00     0.006 C 
ENDBRANCH   8  11
ENDBRANCH   7   8
ENDBRANCH   1   7
BRANCH   6  13
ATOM     13  N   LIG d   1      -3.617  91.226 116.875  0.00  0.00    -0.311 N 
ATOM     14  C   LIG d   1      -3.857  89.926 117.037  0.00  0.00     0.210 C 
ATOM     15  C   LIG d   1      -3.969  89.122 115.737  0.00  0.00     0.109 C 
ATOM     16  O   LIG d   1      -4.019  89.368 118.132  0.00  0.00    -0.276 OA
ATOM     17  H   LIG d   1      -3.532  91.600 115.950  0.00  0.00     0.149 HD
ENDBRANCH   6  13
BRANCH   5  18
ATOM     18  N   LIG d   1      -5.916  92.626 118.320  0.00  0.00     0.381 N 
ATOM     19  H   LIG d   1      -6.066  92.545 119.306  0.00  0.00    -0.090 HD
ATOM     20  H   LIG d   1      -5.940  91.704 117.922  0.00  0.00    -0.090 HD
ATOM     21  H   LIG d   1      -6.629  93.190 117.913  0.00  0.00    -0.090 HD
ENDBRANCH   5  18
BRANCH   3  22
ATOM     22  C   LIG d   1      -2.818  96.031 119.640  0.00  0.00     0.382 C 
ATOM     23  O   LIG d   1      -3.806  96.749 119.928  0.00  0.00    -0.241 OA
ATOM     24  O   LIG d   1      -1.667  96.492 119.766  0.00  0.00    -0.241 OA
ENDBRANCH   3  22
TORSDOF 7
ENDMDL
MODEL 8
REMARK VINA RESULT:      -4.2      1.957      4.881
REMARK  7 active torsions:
REMARK  status: ('A' for Active; 'I' for Inactive)
REMARK    1  A    between atoms: C_2  and  C_3 
REMARK    2  A    between atoms: C_3  and  O_6 
REMARK    3  A    between atoms: C_3  and  C_4 
REMARK    4  A    between atoms: C_7  and  O_6 
REMARK    5  A    between atoms: C_9  and  C_10 
REMARK    6  A    between atoms: N_15  and  C_14 
REMARK    7  A    between atoms: N_20  and  C_19 
REMARK       I    between atoms: C_22  and  N_20 
ROOT
ATOM      1  C   LIG d   1      -5.098  90.986 118.645  0.00  0.00     0.161 C 
ATOM      2  C   LIG d   1      -3.769  91.213 119.039  0.00  0.00     0.016 C 
ATOM      3  C   LIG d   1      -2.651  90.803 118.277  0.00  0.00     0.038 C 
ATOM      4  C   LIG d   1      -2.789  90.269 116.987  0.00  0.00     0.028 C 
ATOM      5  C   LIG d   1      -4.121  89.561 116.763  0.00  0.00    -0.047 C 
ATOM      6  C   LIG d   1      -5.268  90.505 117.189  0.00  0.00     0.091 C 
ENDROOT
BRANCH   1   7
ATOM      7  O   LIG d   1      -5.885  92.172 118.875  0.00  0.00    -0.368 OA
BRANCH   7   8
ATOM      8  C   LIG d   1      -5.231  93.435 118.598  0.00  0.00     0.119 C 
BRANCH   8   9
ATOM      9  C   LIG d   1      -4.665  93.965 119.930  0.00  0.00     0.028 C 
ATOM     10  C   LIG d   1      -3.389  94.801 119.734  0.00  0.00     0.006 C 
ENDBRANCH   8   9
BRANCH   8  11
ATOM     11  C   LIG d   1      -6.236  94.493 118.135  0.00  0.00     0.028 C 
ATOM     12  C   LIG d   1      -7.117  95.019 119.279  0.00  0.00     0.006 C 
ENDBRANCH   8  11
ENDBRANCH   7   8
ENDBRANCH   1   7
BRANCH   6  13
ATOM     13  N   LIG d   1      -6.603  89.859 117.082  0.00  0.00    -0.311 N 
ATOM     14  C   LIG d   1      -7.294  89.789 115.946  0.00  0.00     0.210 C 
ATOM     15  C   LIG d   1      -8.657  89.098 116.059  0.00  0.00     0.109 C 
ATOM     16  O   LIG d   1      -6.895  90.205 114.848  0.00  0.00    -0.276 OA
ATOM     17  H   LIG d   1      -6.988  89.467 117.919  0.00  0.00     0.149 HD
ENDBRANCH   6  13
BRANCH   5  18
ATOM     18  N   LIG d   1      -4.187  89.174 115.341  0.00  0.00     0.381 N 
ATOM     19  H   LIG d   1      -4.127  89.990 114.765  0.00  0.00    -0.090 HD
ATOM     20  H   LIG d   1      -5.071  88.729 115.166  0.00  0.00    -0.090 HD
ATOM     21  H   LIG d   1      -3.443  88.549 115.123  0.00  0.00    -0.090 HD
ENDBRANCH   5  18
BRANCH   3  22
ATOM     22  C   LIG d   1      -1.379  90.889 118.821  0.00  0.00     0.382 C 
ATOM     23  O   LIG d   1      -1.089  91.838 119.589  0.00  0.00    -0.241 OA
ATOM     24  O   LIG d   1      -0.504  90.055 118.519  0.00  0.00    -0.241 OA
ENDBRANCH   3  22
TORSDOF 7
ENDMDL
MODEL 9
REMARK VINA RESULT:      -4.2      2.780      4.696
REMARK  7 active torsions:
REMARK  status: ('A' for Active; 'I' for Inactive)
REMARK    1  A    between atoms: C_2  and  C_3 
REMARK    2  A    between atoms: C_3  and  O_6 
REMARK    3  A    between atoms: C_3  and  C_4 
REMARK    4  A    between atoms: C_7  and  O_6 
REMARK    5  A    between atoms: C_9  and  C_10 
REMARK    6  A    between atoms: N_15  and  C_14 
REMARK    7  A    between atoms: N_20  and  C_19 
REMARK       I    between atoms: C_22  and  N_20 
ROOT
ATOM      1  C   LIG d   1      -1.951  90.845 119.525  0.00  0.00     0.161 C 
ATOM      2  C   LIG d   1      -3.332  90.774 119.276  0.00  0.00     0.016 C 
ATOM      3  C   LIG d   1      -4.006  91.635 118.379  0.00  0.00     0.038 C 
ATOM      4  C   LIG d   1      -3.314  92.532 117.551  0.00  0.00     0.028 C 
ATOM      5  C   LIG d   1      -1.981  92.988 118.133  0.00  0.00    -0.047 C 
ATOM      6  C   LIG d   1      -1.163  91.743 118.549  0.00  0.00     0.091 C 
ENDROOT
BRANCH   1   7
ATOM      7  O   LIG d   1      -1.390  89.518 119.549  0.00  0.00    -0.368 OA
BRANCH   7   8
ATOM      8  C   LIG d   1      -1.107  88.923 118.258  0.00  0.00     0.119 C 
BRANCH   8   9
ATOM      9  C   LIG d   1      -1.953  87.640 118.144  0.00  0.00     0.028 C 
ATOM     10  C   LIG d   1      -2.245  87.006 119.515  0.00  0.00     0.006 C 
ENDBRANCH   8   9
BRANCH   8  11
ATOM     11  C   LIG d   1       0.350  88.457 118.167  0.00  0.00     0.028 C 
ATOM     12  C   LIG d   1       1.106  88.604 119.497  0.00  0.00     0.006 C 
ENDBRANCH   8  11
ENDBRANCH   7   8
ENDBRANCH   1   7
BRANCH   6  13
ATOM     13  N   LIG d   1       0.121  92.103 119.205  0.00  0.00    -0.311 N 
ATOM     14  C   LIG d   1       1.280  92.183 118.553  0.00  0.00     0.210 C 
ATOM     15  C   LIG d   1       2.487  92.549 119.423  0.00  0.00     0.109 C 
ATOM     16  O   LIG d   1       1.418  92.018 117.332  0.00  0.00    -0.276 OA
ATOM     17  H   LIG d   1       0.095  92.283 120.189  0.00  0.00     0.149 HD
ENDBRANCH   6  13
BRANCH   5  18
ATOM     18  N   LIG d   1      -1.305  93.808 117.109  0.00  0.00     0.381 N 
ATOM     19  H   LIG d   1      -0.357  93.976 117.382  0.00  0.00    -0.090 HD
ATOM     20  H   LIG d   1      -1.776  94.693 117.039  0.00  0.00    -0.090 HD
ATOM     21  H   LIG d   1      -1.327  93.341 116.229  0.00  0.00    -0.090 HD
ENDBRANCH   5  18
BRANCH   3  22
ATOM     22  C   LIG d   1      -5.392  91.630 118.332  0.00  0.00     0.382 C 
ATOM     23  O   LIG d   1      -5.993  90.773 117.640  0.00  0.00    -0.241 OA
ATOM     24  O   LIG d   1      -6.047  92.499 118.938  0.00  0.00    -0.241 OA
ENDBRANCH   3  22
TORSDOF 7
ENDMDL
