MODEL 1
REMARK VINA RESULT:      -5.6      0.000      0.000
REMARK  7 active torsions:
REMARK  status: ('A' for Active; 'I' for Inactive)
REMARK    1  A    between atoms: C_2  and  C_3 
REMARK    2  A    between atoms: C_3  and  O_6 
REMARK    3  A    between atoms: C_3  and  C_4 
REMARK    4  A    between atoms: C_7  and  O_6 
REMARK    5  A    between atoms: C_9  and  C_10 
REMARK    6  A    between atoms: N_15  and  C_14 
REMARK    7  A    between atoms: N_20  and  C_19 
REMARK       I    between atoms: C_22  and  N_20 
ROOT
ATOM      1  C   LIG d   1      -4.494  92.762 117.599  0.00  0.00     0.161 C 
ATOM      2  C   LIG d   1      -4.134  93.854 118.407  0.00  0.00     0.016 C 
ATOM      3  C   LIG d   1      -5.075  94.723 119.006  0.00  0.00     0.038 C 
ATOM      4  C   LIG d   1      -6.454  94.468 118.959  0.00  0.00     0.028 C 
ATOM      5  C   LIG d   1      -6.881  93.665 117.735  0.00  0.00    -0.047 C 
ATOM      6  C   LIG d   1      -5.995  92.403 117.628  0.00  0.00     0.091 C 
ENDROOT
BRANCH   1   7
ATOM      7  O   LIG d   1      -3.697  91.613 117.947  0.00  0.00    -0.368 OA
BRANCH   7   8
ATOM      8  C   LIG d   1      -2.507  91.876 118.730  0.00  0.00     0.119 C 
BRANCH   8   9
ATOM      9  C   LIG d   1      -1.292  91.717 117.795  0.00  0.00     0.028 C 
ATOM     10  C   LIG d   1      -0.330  92.914 117.875  0.00  0.00     0.006 C 
ENDBRANCH   8   9
BRANCH   8  11
ATOM     11  C   LIG d   1      -2.317  90.822 119.825  0.00  0.00     0.028 C 
ATOM     12  C   LIG d   1      -2.181  89.398 119.264  0.00  0.00     0.006 C 
ENDBRANCH   8  11
ENDBRANCH   7   8
ENDBRANCH   1   7
BRANCH   6  13
ATOM     13  N   LIG d   1      -6.290  91.604 116.410  0.00  0.00    -0.311 N 
ATOM     14  C   LIG d   1      -6.772  92.132 115.287  0.00  0.00     0.210 C 
ATOM     15  C   LIG d   1      -7.024  91.129 114.157  0.00  0.00     0.109 C 
ATOM     16  O   LIG d   1      -6.986  93.341 115.108  0.00  0.00    -0.276 OA
ATOM     17  H   LIG d   1      -6.116  90.619 116.458  0.00  0.00     0.149 HD
ENDBRANCH   6  13
BRANCH   5  18
ATOM     18  N   LIG d   1      -8.315  93.353 117.884  0.00  0.00     0.381 N 
ATOM     19  H   LIG d   1      -8.590  93.474 118.838  0.00  0.00    -0.090 HD
ATOM     20  H   LIG d   1      -8.467  92.393 117.631  0.00  0.00    -0.090 HD
ATOM     21  H   LIG d   1      -8.856  93.949 117.297  0.00  0.00    -0.090 HD
ENDBRANCH   5  18
BRANCH   3  22
ATOM     22  C   LIG d   1      -4.641  95.884 119.626  0.00  0.00     0.382 C 
ATOM     23  O   LIG d   1      -5.462  96.789 119.909  0.00  0.00    -0.241 OA
ATOM     24  O   LIG d   1      -3.431  96.057 119.867  0.00  0.00    -0.241 OA
ENDBRANCH   3  22
TORSDOF 7
ENDMDL
MODEL 2
REMARK VINA RESULT:      -5.6      6.424     10.029
REMARK  7 active torsions:
REMARK  status: ('A' for Active; 'I' for Inactive)
REMARK    1  A    between atoms: C_2  and  C_3 
REMARK    2  A    between atoms: C_3  and  O_6 
REMARK    3  A    between atoms: C_3  and  C_4 
REMARK    4  A    between atoms: C_7  and  O_6 
REMARK    5  A    between atoms: C_9  and  C_10 
REMARK    6  A    between atoms: N_15  and  C_14 
REMARK    7  A    between atoms: N_20  and  C_19 
REMARK       I    between atoms: C_22  and  N_20 
ROOT
ATOM      1  C   LIG d   1       1.936  89.798 116.095  0.00  0.00     0.161 C 
ATOM      2  C   LIG d   1       1.518  88.661 115.384  0.00  0.00     0.016 C 
ATOM      3  C   LIG d   1       2.411  87.693 114.870  0.00  0.00     0.038 C 
ATOM      4  C   LIG d   1       3.782  87.718 115.164  0.00  0.00     0.028 C 
ATOM      5  C   LIG d   1       4.314  89.118 115.451  0.00  0.00    -0.047 C 
ATOM      6  C   LIG d   1       3.419  89.785 116.521  0.00  0.00     0.091 C 
ENDROOT
BRANCH   1   7
ATOM      7  O   LIG d   1       1.087  89.996 117.242  0.00  0.00    -0.368 OA
BRANCH   7   8
ATOM      8  C   LIG d   1      -0.151  90.710 117.003  0.00  0.00     0.119 C 
BRANCH   8   9
ATOM      9  C   LIG d   1       0.190  92.210 116.906  0.00  0.00     0.028 C 
ATOM     10  C   LIG d   1       0.864  92.742 118.183  0.00  0.00     0.006 C 
ENDBRANCH   8   9
BRANCH   8  11
ATOM     11  C   LIG d   1      -1.105  90.588 118.195  0.00  0.00     0.028 C 
ATOM     12  C   LIG d   1      -2.485  90.039 117.801  0.00  0.00     0.006 C 
ENDBRANCH   8  11
ENDBRANCH   7   8
ENDBRANCH   1   7
BRANCH   6  13
ATOM     13  N   LIG d   1       3.819  91.189 116.800  0.00  0.00    -0.311 N 
ATOM     14  C   LIG d   1       4.660  91.532 117.775  0.00  0.00     0.210 C 
ATOM     15  C   LIG d   1       4.922  93.035 117.903  0.00  0.00     0.109 C 
ATOM     16  O   LIG d   1       5.238  90.731 118.525  0.00  0.00    -0.276 OA
ATOM     17  H   LIG d   1       3.421  91.900 116.219  0.00  0.00     0.149 HD
ENDBRANCH   6  13
BRANCH   5  18
ATOM     18  N   LIG d   1       5.720  88.983 115.877  0.00  0.00     0.381 N 
ATOM     19  H   LIG d   1       6.044  88.056 115.683  0.00  0.00    -0.090 HD
ATOM     20  H   LIG d   1       5.776  89.136 116.868  0.00  0.00    -0.090 HD
ATOM     21  H   LIG d   1       6.287  89.647 115.398  0.00  0.00    -0.090 HD
ENDBRANCH   5  18
BRANCH   3  22
ATOM     22  C   LIG d   1       1.939  86.706 114.017  0.00  0.00     0.382 C 
ATOM     23  O   LIG d   1       0.983  86.952 113.242  0.00  0.00    -0.241 OA
ATOM     24  O   LIG d   1       2.426  85.560 114.045  0.00  0.00    -0.241 OA
ENDBRANCH   3  22
TORSDOF 7
ENDMDL
MODEL 3
REMARK VINA RESULT:      -5.4      6.668     10.290
REMARK  7 active torsions:
REMARK  status: ('A' for Active; 'I' for Inactive)
REMARK    1  A    between atoms: C_2  and  C_3 
REMARK    2  A    between atoms: C_3  and  O_6 
REMARK    3  A    between atoms: C_3  and  C_4 
REMARK    4  A    between atoms: C_7  and  O_6 
REMARK    5  A    between atoms: C_9  and  C_10 
REMARK    6  A    between atoms: N_15  and  C_14 
REMARK    7  A    between atoms: N_20  and  C_19 
REMARK       I    between atoms: C_22  and  N_20 
ROOT
ATOM      1  C   LIG d   1       2.617  89.844 116.687  0.00  0.00     0.161 C 
ATOM      2  C   LIG d   1       2.531  89.200 115.442  0.00  0.00     0.016 C 
ATOM      3  C   LIG d   1       3.644  88.628 114.783  0.00  0.00     0.038 C 
ATOM      4  C   LIG d   1       4.900  88.527 115.400  0.00  0.00     0.028 C 
ATOM      5  C   LIG d   1       5.150  89.611 116.444  0.00  0.00    -0.047 C 
ATOM      6  C   LIG d   1       3.957  89.646 117.426  0.00  0.00     0.091 C 
ENDROOT
BRANCH   1   7
ATOM      7  O   LIG d   1       1.518  89.436 117.525  0.00  0.00    -0.368 OA
BRANCH   7   8
ATOM      8  C   LIG d   1       0.488  90.429 117.754  0.00  0.00     0.119 C 
BRANCH   8   9
ATOM      9  C   LIG d   1      -0.815  89.899 117.126  0.00  0.00     0.028 C 
ATOM     10  C   LIG d   1      -2.024  90.053 118.064  0.00  0.00     0.006 C 
ENDBRANCH   8   9
BRANCH   8  11
ATOM     11  C   LIG d   1       0.796  91.733 117.012  0.00  0.00     0.028 C 
ATOM     12  C   LIG d   1       0.630  92.977 117.898  0.00  0.00     0.006 C 
ENDBRANCH   8  11
ENDBRANCH   7   8
ENDBRANCH   1   7
BRANCH   6  13
ATOM     13  N   LIG d   1       4.082  90.735 118.430  0.00  0.00    -0.311 N 
ATOM     14  C   LIG d   1       4.247  92.017 118.105  0.00  0.00     0.210 C 
ATOM     15  C   LIG d   1       4.374  92.974 119.294  0.00  0.00     0.109 C 
ATOM     16  O   LIG d   1       4.268  92.455 116.945  0.00  0.00    -0.276 OA
ATOM     17  H   LIG d   1       4.044  90.472 119.395  0.00  0.00     0.149 HD
ENDBRANCH   6  13
BRANCH   5  18
ATOM     18  N   LIG d   1       6.434  89.305 117.104  0.00  0.00     0.381 N 
ATOM     19  H   LIG d   1       6.790  88.434 116.765  0.00  0.00    -0.090 HD
ATOM     20  H   LIG d   1       6.278  89.220 118.093  0.00  0.00    -0.090 HD
ATOM     21  H   LIG d   1       7.090  90.033 116.925  0.00  0.00    -0.090 HD
ENDBRANCH   5  18
BRANCH   3  22
ATOM     22  C   LIG d   1       3.515  88.184 113.476  0.00  0.00     0.382 C 
ATOM     23  O   LIG d   1       4.431  87.506 112.951  0.00  0.00    -0.241 OA
ATOM     24  O   LIG d   1       2.514  88.489 112.801  0.00  0.00    -0.241 OA
ENDBRANCH   3  22
TORSDOF 7
ENDMDL
MODEL 4
REMARK VINA RESULT:      -5.2      2.105      5.318
REMARK  7 active torsions:
REMARK  status: ('A' for Active; 'I' for Inactive)
REMARK    1  A    between atoms: C_2  and  C_3 
REMARK    2  A    between atoms: C_3  and  O_6 
REMARK    3  A    between atoms: C_3  and  C_4 
REMARK    4  A    between atoms: C_7  and  O_6 
REMARK    5  A    between atoms: C_9  and  C_10 
REMARK    6  A    between atoms: N_15  and  C_14 
REMARK    7  A    between atoms: N_20  and  C_19 
REMARK       I    between atoms: C_22  and  N_20 
ROOT
ATOM      1  C   LIG d   1      -5.509  92.296 117.284  0.00  0.00     0.161 C 
ATOM      2  C   LIG d   1      -4.358  91.500 117.402  0.00  0.00     0.016 C 
ATOM      3  C   LIG d   1      -3.262  91.835 118.230  0.00  0.00     0.038 C 
ATOM      4  C   LIG d   1      -3.308  92.921 119.117  0.00  0.00     0.028 C 
ATOM      5  C   LIG d   1      -4.244  94.036 118.663  0.00  0.00    -0.047 C 
ATOM      6  C   LIG d   1      -5.624  93.427 118.328  0.00  0.00     0.091 C 
ENDROOT
BRANCH   1   7
ATOM      7  O   LIG d   1      -6.685  91.463 117.316  0.00  0.00    -0.368 OA
BRANCH   7   8
ATOM      8  C   LIG d   1      -7.557  91.547 116.162  0.00  0.00     0.119 C 
BRANCH   8   9
ATOM      9  C   LIG d   1      -7.655  90.135 115.552  0.00  0.00     0.028 C 
ATOM     10  C   LIG d   1      -8.832  89.328 116.127  0.00  0.00     0.006 C 
ENDBRANCH   8   9
BRANCH   8  11
ATOM     11  C   LIG d   1      -6.945  92.421 115.063  0.00  0.00     0.028 C 
ATOM     12  C   LIG d   1      -6.991  91.756 113.678  0.00  0.00     0.006 C 
ENDBRANCH   8  11
ENDBRANCH   7   8
ENDBRANCH   1   7
BRANCH   6  13
ATOM     13  N   LIG d   1      -6.575  94.437 117.794  0.00  0.00    -0.311 N 
ATOM     14  C   LIG d   1      -7.451  95.092 118.554  0.00  0.00     0.210 C 
ATOM     15  C   LIG d   1      -8.352  96.075 117.801  0.00  0.00     0.109 C 
ATOM     16  O   LIG d   1      -7.546  94.975 119.785  0.00  0.00    -0.276 OA
ATOM     17  H   LIG d   1      -6.545  94.616 116.810  0.00  0.00     0.149 HD
ENDBRANCH   6  13
BRANCH   5  18
ATOM     18  N   LIG d   1      -4.301  95.038 119.743  0.00  0.00     0.381 N 
ATOM     19  H   LIG d   1      -3.963  94.637 120.595  0.00  0.00    -0.090 HD
ATOM     20  H   LIG d   1      -5.257  95.313 119.881  0.00  0.00    -0.090 HD
ATOM     21  H   LIG d   1      -3.751  95.833 119.500  0.00  0.00    -0.090 HD
ENDBRANCH   5  18
BRANCH   3  22
ATOM     22  C   LIG d   1      -2.088  91.102 118.146  0.00  0.00     0.382 C 
ATOM     23  O   LIG d   1      -2.076  90.005 117.538  0.00  0.00    -0.241 OA
ATOM     24  O   LIG d   1      -1.051  91.503 118.708  0.00  0.00    -0.241 OA
ENDBRANCH   3  22
TORSDOF 7
ENDMDL
MODEL 5
REMARK VINA RESULT:      -5.2      6.879      9.386
REMARK  7 active torsions:
REMARK  status: ('A' for Active; 'I' for Inactive)
REMARK    1  A    between atoms: C_2  and  C_3 
REMARK    2  A    between atoms: C_3  and  O_6 
REMARK    3  A    between atoms: C_3  and  C_4 
REMARK    4  A    between atoms: C_7  and  O_6 
REMARK    5  A    between atoms: C_9  and  C_10 
REMARK    6  A    between atoms: N_15  and  C_14 
REMARK    7  A    between atoms: N_20  and  C_19 
REMARK       I    between atoms: C_22  and  N_20 
ROOT
ATOM      1  C   LIG d   1       2.656  88.624 116.997  0.00  0.00     0.161 C 
ATOM      2  C   LIG d   1       3.200  89.529 117.924  0.00  0.00     0.016 C 
ATOM      3  C   LIG d   1       4.252  90.421 117.614  0.00  0.00     0.038 C 
ATOM      4  C   LIG d   1       4.733  90.575 116.305  0.00  0.00     0.028 C 
ATOM      5  C   LIG d   1       4.562  89.326 115.447  0.00  0.00    -0.047 C 
ATOM      6  C   LIG d   1       3.092  88.854 115.535  0.00  0.00     0.091 C 
ENDROOT
BRANCH   1   7
ATOM      7  O   LIG d   1       1.218  88.627 117.097  0.00  0.00    -0.368 OA
BRANCH   7   8
ATOM      8  C   LIG d   1       0.637  89.682 117.902  0.00  0.00     0.119 C 
BRANCH   8   9
ATOM      9  C   LIG d   1      -0.374  89.028 118.863  0.00  0.00     0.028 C 
ATOM     10  C   LIG d   1      -1.784  89.629 118.730  0.00  0.00     0.006 C 
ENDBRANCH   8   9
BRANCH   8  11
ATOM     11  C   LIG d   1      -0.184  90.649 117.045  0.00  0.00     0.028 C 
ATOM     12  C   LIG d   1       0.451  92.044 116.945  0.00  0.00     0.006 C 
ENDBRANCH   8  11
ENDBRANCH   7   8
ENDBRANCH   1   7
BRANCH   6  13
ATOM     13  N   LIG d   1       2.858  87.589 114.791  0.00  0.00    -0.311 N 
ATOM     14  C   LIG d   1       2.556  87.546 113.495  0.00  0.00     0.210 C 
ATOM     15  C   LIG d   1       2.334  86.140 112.928  0.00  0.00     0.109 C 
ATOM     16  O   LIG d   1       2.482  88.537 112.753  0.00  0.00    -0.276 OA
ATOM     17  H   LIG d   1       2.928  86.735 115.309  0.00  0.00     0.149 HD
ENDBRANCH   6  13
BRANCH   5  18
ATOM     18  N   LIG d   1       4.977  89.669 114.074  0.00  0.00     0.381 N 
ATOM     19  H   LIG d   1       5.385  88.869 113.633  0.00  0.00    -0.090 HD
ATOM     20  H   LIG d   1       5.671  90.394 114.116  0.00  0.00    -0.090 HD
ATOM     21  H   LIG d   1       4.191  89.982 113.548  0.00  0.00    -0.090 HD
ENDBRANCH   5  18
BRANCH   3  22
ATOM     22  C   LIG d   1       4.861  91.144 118.629  0.00  0.00     0.382 C 
ATOM     23  O   LIG d   1       6.064  91.483 118.522  0.00  0.00    -0.241 OA
ATOM     24  O   LIG d   1       4.236  91.422 119.669  0.00  0.00    -0.241 OA
ENDBRANCH   3  22
TORSDOF 7
ENDMDL
MODEL 6
REMARK VINA RESULT:      -5.0      5.208      8.062
REMARK  7 active torsions:
REMARK  status: ('A' for Active; 'I' for Inactive)
REMARK    1  A    between atoms: C_2  and  C_3 
REMARK    2  A    between atoms: C_3  and  O_6 
REMARK    3  A    between atoms: C_3  and  C_4 
REMARK    4  A    between atoms: C_7  and  O_6 
REMARK    5  A    between atoms: C_9  and  C_10 
REMARK    6  A    between atoms: N_15  and  C_14 
REMARK    7  A    between atoms: N_20  and  C_19 
REMARK       I    between atoms: C_22  and  N_20 
ROOT
ATOM      1  C   LIG d   1       1.022  89.871 116.953  0.00  0.00     0.161 C 
ATOM      2  C   LIG d   1      -0.377  89.890 117.075  0.00  0.00     0.016 C 
ATOM      3  C   LIG d   1      -1.080  90.863 117.822  0.00  0.00     0.038 C 
ATOM      4  C   LIG d   1      -0.436  91.980 118.376  0.00  0.00     0.028 C 
ATOM      5  C   LIG d   1       1.032  91.732 118.704  0.00  0.00    -0.047 C 
ATOM      6  C   LIG d   1       1.733  91.145 117.457  0.00  0.00     0.091 C 
ENDROOT
BRANCH   1   7
ATOM      7  O   LIG d   1       1.389  89.602 115.585  0.00  0.00    -0.368 OA
BRANCH   7   8
ATOM      8  C   LIG d   1       1.803  88.245 115.292  0.00  0.00     0.119 C 
BRANCH   8   9
ATOM      9  C   LIG d   1       2.335  87.630 116.601  0.00  0.00     0.028 C 
ATOM     10  C   LIG d   1       2.578  86.116 116.483  0.00  0.00     0.006 C 
ENDBRANCH   8   9
BRANCH   8  11
ATOM     11  C   LIG d   1       2.989  88.221 114.322  0.00  0.00     0.028 C 
ATOM     12  C   LIG d   1       4.201  89.008 114.844  0.00  0.00     0.006 C 
ENDBRANCH   8  11
ENDBRANCH   7   8
ENDBRANCH   1   7
BRANCH   6  13
ATOM     13  N   LIG d   1       3.153  90.794 117.718  0.00  0.00    -0.311 N 
ATOM     14  C   LIG d   1       4.162  91.647 117.546  0.00  0.00     0.210 C 
ATOM     15  C   LIG d   1       5.550  91.076 117.853  0.00  0.00     0.109 C 
ATOM     16  O   LIG d   1       4.036  92.831 117.199  0.00  0.00    -0.276 OA
ATOM     17  H   LIG d   1       3.343  89.863 118.032  0.00  0.00     0.149 HD
ENDBRANCH   6  13
BRANCH   5  18
ATOM     18  N   LIG d   1       1.613  93.015 119.143  0.00  0.00     0.381 N 
ATOM     19  H   LIG d   1       2.610  92.939 119.182  0.00  0.00    -0.090 HD
ATOM     20  H   LIG d   1       1.277  93.225 120.067  0.00  0.00    -0.090 HD
ATOM     21  H   LIG d   1       1.352  93.741 118.513  0.00  0.00    -0.090 HD
ENDBRANCH   5  18
BRANCH   3  22
ATOM     22  C   LIG d   1      -2.437  90.703 118.054  0.00  0.00     0.382 C 
ATOM     23  O   LIG d   1      -2.926  89.551 118.148  0.00  0.00    -0.241 OA
ATOM     24  O   LIG d   1      -3.187  91.695 118.127  0.00  0.00    -0.241 OA
ENDBRANCH   3  22
TORSDOF 7
ENDMDL
MODEL 7
REMARK VINA RESULT:      -5.0      8.245      9.918
REMARK  7 active torsions:
REMARK  status: ('A' for Active; 'I' for Inactive)
REMARK    1  A    between atoms: C_2  and  C_3 
REMARK    2  A    between atoms: C_3  and  O_6 
REMARK    3  A    between atoms: C_3  and  C_4 
REMARK    4  A    between atoms: C_7  and  O_6 
REMARK    5  A    between atoms: C_9  and  C_10 
REMARK    6  A    between atoms: N_15  and  C_14 
REMARK    7  A    between atoms: N_20  and  C_19 
REMARK       I    between atoms: C_22  and  N_20 
ROOT
ATOM      1  C   LIG d   1       4.315  89.034 115.209  0.00  0.00     0.161 C 
ATOM      2  C   LIG d   1       4.703  90.004 116.148  0.00  0.00     0.016 C 
ATOM      3  C   LIG d   1       3.788  90.709 116.963  0.00  0.00     0.038 C 
ATOM      4  C   LIG d   1       2.424  90.382 117.000  0.00  0.00     0.028 C 
ATOM      5  C   LIG d   1       1.915  89.758 115.705  0.00  0.00    -0.047 C 
ATOM      6  C   LIG d   1       2.843  88.584 115.315  0.00  0.00     0.091 C 
ENDROOT
BRANCH   1   7
ATOM      7  O   LIG d   1       5.194  87.894 115.291  0.00  0.00    -0.368 OA
BRANCH   7   8
ATOM      8  C   LIG d   1       5.579  87.481 116.626  0.00  0.00     0.119 C 
BRANCH   8   9
ATOM      9  C   LIG d   1       7.087  87.168 116.596  0.00  0.00     0.028 C 
ATOM     10  C   LIG d   1       7.411  85.785 117.186  0.00  0.00     0.006 C 
ENDBRANCH   8   9
BRANCH   8  11
ATOM     11  C   LIG d   1       4.899  86.167 117.020  0.00  0.00     0.028 C 
ATOM     12  C   LIG d   1       3.791  86.360 118.068  0.00  0.00     0.006 C 
ENDBRANCH   8  11
ENDBRANCH   7   8
ENDBRANCH   1   7
BRANCH   6  13
ATOM     13  N   LIG d   1       2.465  87.971 114.015  0.00  0.00    -0.311 N 
ATOM     14  C   LIG d   1       2.236  86.668 113.858  0.00  0.00     0.210 C 
ATOM     15  C   LIG d   1       1.879  86.242 112.430  0.00  0.00     0.109 C 
ATOM     16  O   LIG d   1       2.262  85.830 114.772  0.00  0.00    -0.276 OA
ATOM     17  H   LIG d   1       2.390  88.584 113.227  0.00  0.00     0.149 HD
ENDBRANCH   6  13
BRANCH   5  18
ATOM     18  N   LIG d   1       0.518  89.340 115.931  0.00  0.00     0.381 N 
ATOM     19  H   LIG d   1      -0.073  89.743 115.232  0.00  0.00    -0.090 HD
ATOM     20  H   LIG d   1       0.219  89.677 116.829  0.00  0.00    -0.090 HD
ATOM     21  H   LIG d   1       0.450  88.347 115.901  0.00  0.00    -0.090 HD
ENDBRANCH   5  18
BRANCH   3  22
ATOM     22  C   LIG d   1       4.229  91.782 117.722  0.00  0.00     0.382 C 
ATOM     23  O   LIG d   1       4.681  91.590 118.876  0.00  0.00    -0.241 OA
ATOM     24  O   LIG d   1       4.139  92.945 117.284  0.00  0.00    -0.241 OA
ENDBRANCH   3  22
TORSDOF 7
ENDMDL
MODEL 8
REMARK VINA RESULT:      -5.0      2.163      4.826
REMARK  7 active torsions:
REMARK  status: ('A' for Active; 'I' for Inactive)
REMARK    1  A    between atoms: C_2  and  C_3 
REMARK    2  A    between atoms: C_3  and  O_6 
REMARK    3  A    between atoms: C_3  and  C_4 
REMARK    4  A    between atoms: C_7  and  O_6 
REMARK    5  A    between atoms: C_9  and  C_10 
REMARK    6  A    between atoms: N_15  and  C_14 
REMARK    7  A    between atoms: N_20  and  C_19 
REMARK       I    between atoms: C_22  and  N_20 
ROOT
ATOM      1  C   LIG d   1      -6.689  92.867 117.169  0.00  0.00     0.161 C 
ATOM      2  C   LIG d   1      -7.641  93.868 117.424  0.00  0.00     0.016 C 
ATOM      3  C   LIG d   1      -7.455  94.894 118.379  0.00  0.00     0.038 C 
ATOM      4  C   LIG d   1      -6.232  95.077 119.041  0.00  0.00     0.028 C 
ATOM      5  C   LIG d   1      -5.423  93.792 119.186  0.00  0.00    -0.047 C 
ATOM      6  C   LIG d   1      -5.304  93.115 117.802  0.00  0.00     0.091 C 
ENDROOT
BRANCH   1   7
ATOM      7  O   LIG d   1      -6.562  92.665 115.747  0.00  0.00    -0.368 OA
BRANCH   7   8
ATOM      8  C   LIG d   1      -7.381  91.615 115.177  0.00  0.00     0.119 C 
BRANCH   8   9
ATOM      9  C   LIG d   1      -7.710  90.619 116.306  0.00  0.00     0.028 C 
ATOM     10  C   LIG d   1      -8.695  89.527 115.857  0.00  0.00     0.006 C 
ENDBRANCH   8   9
BRANCH   8  11
ATOM     11  C   LIG d   1      -6.603  90.804 114.136  0.00  0.00     0.028 C 
ATOM     12  C   LIG d   1      -5.448  89.997 114.750  0.00  0.00     0.006 C 
ENDBRANCH   8  11
ENDBRANCH   7   8
ENDBRANCH   1   7
BRANCH   6  13
ATOM     13  N   LIG d   1      -4.599  91.809 117.868  0.00  0.00    -0.311 N 
ATOM     14  C   LIG d   1      -3.272  91.691 117.879  0.00  0.00     0.210 C 
ATOM     15  C   LIG d   1      -2.751  90.252 117.931  0.00  0.00     0.109 C 
ATOM     16  O   LIG d   1      -2.478  92.644 117.883  0.00  0.00    -0.276 OA
ATOM     17  H   LIG d   1      -5.167  90.985 117.900  0.00  0.00     0.149 HD
ENDBRANCH   6  13
BRANCH   5  18
ATOM     18  N   LIG d   1      -4.116  94.152 119.768  0.00  0.00     0.381 N 
ATOM     19  H   LIG d   1      -3.408  94.112 119.062  0.00  0.00    -0.090 HD
ATOM     20  H   LIG d   1      -3.885  93.486 120.485  0.00  0.00    -0.090 HD
ATOM     21  H   LIG d   1      -4.156  95.068 120.157  0.00  0.00    -0.090 HD
ENDBRANCH   5  18
BRANCH   3  22
ATOM     22  C   LIG d   1      -8.514  95.726 118.709  0.00  0.00     0.382 C 
ATOM     23  O   LIG d   1      -8.405  96.967 118.563  0.00  0.00    -0.241 OA
ATOM     24  O   LIG d   1      -9.560  95.255 119.193  0.00  0.00    -0.241 OA
ENDBRANCH   3  22
TORSDOF 7
ENDMDL
MODEL 9
REMARK VINA RESULT:      -4.9      7.737     10.547
REMARK  7 active torsions:
REMARK  status: ('A' for Active; 'I' for Inactive)
REMARK    1  A    between atoms: C_2  and  C_3 
REMARK    2  A    between atoms: C_3  and  O_6 
REMARK    3  A    between atoms: C_3  and  C_4 
REMARK    4  A    between atoms: C_7  and  O_6 
REMARK    5  A    between atoms: C_9  and  C_10 
REMARK    6  A    between atoms: N_15  and  C_14 
REMARK    7  A    between atoms: N_20  and  C_19 
REMARK       I    between atoms: C_22  and  N_20 
ROOT
ATOM      1  C   LIG d   1       3.272  89.078 115.841  0.00  0.00     0.161 C 
ATOM      2  C   LIG d   1       2.438  90.182 116.089  0.00  0.00     0.016 C 
ATOM      3  C   LIG d   1       2.574  91.021 117.219  0.00  0.00     0.038 C 
ATOM      4  C   LIG d   1       3.655  90.903 118.104  0.00  0.00     0.028 C 
ATOM      5  C   LIG d   1       4.231  89.493 118.173  0.00  0.00    -0.047 C 
ATOM      6  C   LIG d   1       4.525  89.001 116.738  0.00  0.00     0.091 C 
ENDROOT
BRANCH   1   7
ATOM      7  O   LIG d   1       3.648  89.053 114.450  0.00  0.00    -0.368 OA
BRANCH   7   8
ATOM      8  C   LIG d   1       3.039  88.016 113.644  0.00  0.00     0.119 C 
BRANCH   8   9
ATOM      9  C   LIG d   1       2.296  87.062 114.600  0.00  0.00     0.028 C 
ATOM     10  C   LIG d   1       2.866  85.634 114.565  0.00  0.00     0.006 C 
ENDBRANCH   8   9
BRANCH   8  11
ATOM     11  C   LIG d   1       4.098  87.152 112.953  0.00  0.00     0.028 C 
ATOM     12  C   LIG d   1       5.520  87.717 113.106  0.00  0.00     0.006 C 
ENDBRANCH   8  11
ENDBRANCH   7   8
ENDBRANCH   1   7
BRANCH   6  13
ATOM     13  N   LIG d   1       5.013  87.597 116.709  0.00  0.00    -0.311 N 
ATOM     14  C   LIG d   1       6.303  87.269 116.703  0.00  0.00     0.210 C 
ATOM     15  C   LIG d   1       6.588  85.764 116.651  0.00  0.00     0.109 C 
ATOM     16  O   LIG d   1       7.239  88.080 116.768  0.00  0.00    -0.276 OA
ATOM     17  H   LIG d   1       4.320  86.874 116.686  0.00  0.00     0.149 HD
ENDBRANCH   6  13
BRANCH   5  18
ATOM     18  N   LIG d   1       5.434  89.543 119.025  0.00  0.00     0.381 N 
ATOM     19  H   LIG d   1       6.165  90.035 118.551  0.00  0.00    -0.090 HD
ATOM     20  H   LIG d   1       5.748  88.605 119.201  0.00  0.00    -0.090 HD
ATOM     21  H   LIG d   1       5.223  89.997 119.887  0.00  0.00    -0.090 HD
ENDBRANCH   5  18
BRANCH   3  22
ATOM     22  C   LIG d   1       1.598  91.968 117.493  0.00  0.00     0.382 C 
ATOM     23  O   LIG d   1       0.542  91.994 116.816  0.00  0.00    -0.241 OA
ATOM     24  O   LIG d   1       1.780  92.824 118.379  0.00  0.00    -0.241 OA
ENDBRANCH   3  22
TORSDOF 7
ENDMDL
