MODEL 1
REMARK VINA RESULT:      -5.1      0.000      0.000
REMARK  7 active torsions:
REMARK  status: ('A' for Active; 'I' for Inactive)
REMARK    1  A    between atoms: C_2  and  C_3 
REMARK    2  A    between atoms: C_3  and  O_6 
REMARK    3  A    between atoms: C_3  and  C_4 
REMARK    4  A    between atoms: C_7  and  O_6 
REMARK    5  A    between atoms: C_9  and  C_10 
REMARK    6  A    between atoms: N_15  and  C_14 
REMARK    7  A    between atoms: N_20  and  C_19 
REMARK       I    between atoms: C_22  and  N_20 
ROOT
ATOM      1  C   LIG d   1       1.520  88.315 116.053  0.00  0.00     0.161 C 
ATOM      2  C   LIG d   1       0.227  88.330 116.602  0.00  0.00     0.016 C 
ATOM      3  C   LIG d   1      -0.339  89.464 117.230  0.00  0.00     0.038 C 
ATOM      4  C   LIG d   1       0.298  90.713 117.218  0.00  0.00     0.028 C 
ATOM      5  C   LIG d   1       1.817  90.618 117.120  0.00  0.00    -0.047 C 
ATOM      6  C   LIG d   1       2.187  89.701 115.932  0.00  0.00     0.091 C 
ENDROOT
BRANCH   1   7
ATOM      7  O   LIG d   1       1.499  87.655 114.772  0.00  0.00    -0.368 OA
BRANCH   7   8
ATOM      8  C   LIG d   1       1.831  86.244 114.777  0.00  0.00     0.119 C 
BRANCH   8   9
ATOM      9  C   LIG d   1       3.170  86.082 114.033  0.00  0.00     0.028 C 
ATOM     10  C   LIG d   1       3.199  86.850 112.701  0.00  0.00     0.006 C 
ENDBRANCH   8   9
BRANCH   8  11
ATOM     11  C   LIG d   1       0.816  85.431 113.967  0.00  0.00     0.028 C 
ATOM     12  C   LIG d   1      -0.587  85.437 114.593  0.00  0.00     0.006 C 
ENDBRANCH   8  11
ENDBRANCH   7   8
ENDBRANCH   1   7
BRANCH   6  13
ATOM     13  N   LIG d   1       3.653  89.486 115.816  0.00  0.00    -0.311 N 
ATOM     14  C   LIG d   1       4.347  89.746 114.710  0.00  0.00     0.210 C 
ATOM     15  C   LIG d   1       5.844  89.433 114.798  0.00  0.00     0.109 C 
ATOM     16  O   LIG d   1       3.871  90.236 113.675  0.00  0.00    -0.276 OA
ATOM     17  H   LIG d   1       4.125  89.119 116.620  0.00  0.00     0.149 HD
ENDBRANCH   6  13
BRANCH   5  18
ATOM     18  N   LIG d   1       2.342  91.989 116.977  0.00  0.00     0.381 N 
ATOM     19  H   LIG d   1       2.337  92.448 117.867  0.00  0.00    -0.090 HD
ATOM     20  H   LIG d   1       1.744  92.502 116.354  0.00  0.00    -0.090 HD
ATOM     21  H   LIG d   1       3.269  91.963 116.614  0.00  0.00    -0.090 HD
ENDBRANCH   5  18
BRANCH   3  22
ATOM     22  C   LIG d   1      -1.539  89.343 117.915  0.00  0.00     0.382 C 
ATOM     23  O   LIG d   1      -1.645  89.799 119.079  0.00  0.00    -0.241 OA
ATOM     24  O   LIG d   1      -2.502  88.744 117.401  0.00  0.00    -0.241 OA
ENDBRANCH   3  22
TORSDOF 7
ENDMDL
MODEL 2
REMARK VINA RESULT:      -4.9      0.821      1.880
REMARK  7 active torsions:
REMARK  status: ('A' for Active; 'I' for Inactive)
REMARK    1  A    between atoms: C_2  and  C_3 
REMARK    2  A    between atoms: C_3  and  O_6 
REMARK    3  A    between atoms: C_3  and  C_4 
REMARK    4  A    between atoms: C_7  and  O_6 
REMARK    5  A    between atoms: C_9  and  C_10 
REMARK    6  A    between atoms: N_15  and  C_14 
REMARK    7  A    between atoms: N_20  and  C_19 
REMARK       I    between atoms: C_22  and  N_20 
ROOT
ATOM      1  C   LIG d   1       1.338  88.411 116.263  0.00  0.00     0.161 C 
ATOM      2  C   LIG d   1       0.037  88.421 116.794  0.00  0.00     0.016 C 
ATOM      3  C   LIG d   1      -0.552  89.560 117.389  0.00  0.00     0.038 C 
ATOM      4  C   LIG d   1       0.069  90.818 117.357  0.00  0.00     0.028 C 
ATOM      5  C   LIG d   1       1.590  90.740 117.283  0.00  0.00    -0.047 C 
ATOM      6  C   LIG d   1       1.988  89.803 116.120  0.00  0.00     0.091 C 
ENDROOT
BRANCH   1   7
ATOM      7  O   LIG d   1       1.343  87.722 114.997  0.00  0.00    -0.368 OA
BRANCH   7   8
ATOM      8  C   LIG d   1       1.840  86.361 115.014  0.00  0.00     0.119 C 
BRANCH   8   9
ATOM      9  C   LIG d   1       0.633  85.431 115.244  0.00  0.00     0.028 C 
ATOM     10  C   LIG d   1      -0.472  85.633 114.194  0.00  0.00     0.006 C 
ENDBRANCH   8   9
BRANCH   8  11
ATOM     11  C   LIG d   1       2.770  86.122 116.208  0.00  0.00     0.028 C 
ATOM     12  C   LIG d   1       4.249  86.028 115.801  0.00  0.00     0.006 C 
ENDBRANCH   8  11
ENDBRANCH   7   8
ENDBRANCH   1   7
BRANCH   6  13
ATOM     13  N   LIG d   1       3.458  89.605 116.030  0.00  0.00    -0.311 N 
ATOM     14  C   LIG d   1       4.156  89.793 114.911  0.00  0.00     0.210 C 
ATOM     15  C   LIG d   1       5.658  89.514 115.030  0.00  0.00     0.109 C 
ATOM     16  O   LIG d   1       3.679  90.196 113.839  0.00  0.00    -0.276 OA
ATOM     17  H   LIG d   1       3.931  89.308 116.861  0.00  0.00     0.149 HD
ENDBRANCH   6  13
BRANCH   5  18
ATOM     18  N   LIG d   1       2.098  92.115 117.117  0.00  0.00     0.381 N 
ATOM     19  H   LIG d   1       1.653  92.723 117.775  0.00  0.00    -0.090 HD
ATOM     20  H   LIG d   1       1.875  92.435 116.191  0.00  0.00    -0.090 HD
ATOM     21  H   LIG d   1       3.085  92.133 117.253  0.00  0.00    -0.090 HD
ENDBRANCH   5  18
BRANCH   3  22
ATOM     22  C   LIG d   1      -1.759  89.438 118.060  0.00  0.00     0.382 C 
ATOM     23  O   LIG d   1      -2.748  88.925 117.483  0.00  0.00    -0.241 OA
ATOM     24  O   LIG d   1      -1.885  89.876 119.220  0.00  0.00    -0.241 OA
ENDBRANCH   3  22
TORSDOF 7
ENDMDL
MODEL 3
REMARK VINA RESULT:      -4.6      2.495      3.690
REMARK  7 active torsions:
REMARK  status: ('A' for Active; 'I' for Inactive)
REMARK    1  A    between atoms: C_2  and  C_3 
REMARK    2  A    between atoms: C_3  and  O_6 
REMARK    3  A    between atoms: C_3  and  C_4 
REMARK    4  A    between atoms: C_7  and  O_6 
REMARK    5  A    between atoms: C_9  and  C_10 
REMARK    6  A    between atoms: N_15  and  C_14 
REMARK    7  A    between atoms: N_20  and  C_19 
REMARK       I    between atoms: C_22  and  N_20 
ROOT
ATOM      1  C   LIG d   1       3.273  90.173 115.935  0.00  0.00     0.161 C 
ATOM      2  C   LIG d   1       2.089  90.889 116.179  0.00  0.00     0.016 C 
ATOM      3  C   LIG d   1       1.894  91.705 117.317  0.00  0.00     0.038 C 
ATOM      4  C   LIG d   1       2.932  91.982 118.218  0.00  0.00     0.028 C 
ATOM      5  C   LIG d   1       3.986  90.881 118.284  0.00  0.00    -0.047 C 
ATOM      6  C   LIG d   1       4.457  90.551 116.849  0.00  0.00     0.091 C 
ENDROOT
BRANCH   1   7
ATOM      7  O   LIG d   1       3.648  90.306 114.549  0.00  0.00    -0.368 OA
BRANCH   7   8
ATOM      8  C   LIG d   1       3.403  89.151 113.709  0.00  0.00     0.119 C 
BRANCH   8   9
ATOM      9  C   LIG d   1       3.313  87.919 114.630  0.00  0.00     0.028 C 
ATOM     10  C   LIG d   1       3.082  86.616 113.847  0.00  0.00     0.006 C 
ENDBRANCH   8   9
BRANCH   8  11
ATOM     11  C   LIG d   1       4.589  88.877 112.780  0.00  0.00     0.028 C 
ATOM     12  C   LIG d   1       5.870  89.605 113.218  0.00  0.00     0.006 C 
ENDBRANCH   8  11
ENDBRANCH   7   8
ENDBRANCH   1   7
BRANCH   6  13
ATOM     13  N   LIG d   1       5.427  89.425 116.816  0.00  0.00    -0.311 N 
ATOM     14  C   LIG d   1       6.748  89.596 116.806  0.00  0.00     0.210 C 
ATOM     15  C   LIG d   1       7.567  88.303 116.751  0.00  0.00     0.109 C 
ATOM     16  O   LIG d   1       7.320  90.695 116.869  0.00  0.00    -0.276 OA
ATOM     17  H   LIG d   1       5.050  88.498 116.795  0.00  0.00     0.149 HD
ENDBRANCH   6  13
BRANCH   5  18
ATOM     18  N   LIG d   1       5.077  91.361 119.154  0.00  0.00     0.381 N 
ATOM     19  H   LIG d   1       4.757  91.411 120.101  0.00  0.00    -0.090 HD
ATOM     20  H   LIG d   1       5.344  92.284 118.862  0.00  0.00    -0.090 HD
ATOM     21  H   LIG d   1       5.858  90.746 119.092  0.00  0.00    -0.090 HD
ENDBRANCH   5  18
BRANCH   3  22
ATOM     22  C   LIG d   1       0.635  92.222 117.584  0.00  0.00     0.382 C 
ATOM     23  O   LIG d   1       0.248  93.263 117.000  0.00  0.00    -0.241 OA
ATOM     24  O   LIG d   1      -0.101  91.685 118.433  0.00  0.00    -0.241 OA
ENDBRANCH   3  22
TORSDOF 7
ENDMDL
MODEL 4
REMARK VINA RESULT:      -4.6      1.735      2.113
REMARK  7 active torsions:
REMARK  status: ('A' for Active; 'I' for Inactive)
REMARK    1  A    between atoms: C_2  and  C_3 
REMARK    2  A    between atoms: C_3  and  O_6 
REMARK    3  A    between atoms: C_3  and  C_4 
REMARK    4  A    between atoms: C_7  and  O_6 
REMARK    5  A    between atoms: C_9  and  C_10 
REMARK    6  A    between atoms: N_15  and  C_14 
REMARK    7  A    between atoms: N_20  and  C_19 
REMARK       I    between atoms: C_22  and  N_20 
ROOT
ATOM      1  C   LIG d   1       1.152  89.294 116.804  0.00  0.00     0.161 C 
ATOM      2  C   LIG d   1      -0.249  89.197 116.836  0.00  0.00     0.016 C 
ATOM      3  C   LIG d   1      -1.086  90.191 117.393  0.00  0.00     0.038 C 
ATOM      4  C   LIG d   1      -0.582  91.428 117.822  0.00  0.00     0.028 C 
ATOM      5  C   LIG d   1       0.874  91.367 118.272  0.00  0.00    -0.047 C 
ATOM      6  C   LIG d   1       1.712  90.685 117.167  0.00  0.00     0.091 C 
ENDROOT
BRANCH   1   7
ATOM      7  O   LIG d   1       1.641  88.878 115.513  0.00  0.00    -0.368 OA
BRANCH   7   8
ATOM      8  C   LIG d   1       2.493  87.706 115.502  0.00  0.00     0.119 C 
BRANCH   8   9
ATOM      9  C   LIG d   1       3.852  88.128 114.911  0.00  0.00     0.028 C 
ATOM     10  C   LIG d   1       3.753  89.410 114.067  0.00  0.00     0.006 C 
ENDBRANCH   8   9
BRANCH   8  11
ATOM     11  C   LIG d   1       1.952  86.634 114.551  0.00  0.00     0.028 C 
ATOM     12  C   LIG d   1       0.568  86.112 114.966  0.00  0.00     0.006 C 
ENDBRANCH   8  11
ENDBRANCH   7   8
ENDBRANCH   1   7
BRANCH   6  13
ATOM     13  N   LIG d   1       3.134  90.509 117.561  0.00  0.00    -0.311 N 
ATOM     14  C   LIG d   1       4.096  91.374 117.244  0.00  0.00     0.210 C 
ATOM     15  C   LIG d   1       5.497  90.991 117.732  0.00  0.00     0.109 C 
ATOM     16  O   LIG d   1       3.917  92.437 116.631  0.00  0.00    -0.276 OA
ATOM     17  H   LIG d   1       3.363  89.688 118.088  0.00  0.00     0.149 HD
ENDBRANCH   6  13
BRANCH   5  18
ATOM     18  N   LIG d   1       1.310  92.746 118.561  0.00  0.00     0.381 N 
ATOM     19  H   LIG d   1       1.937  92.746 119.341  0.00  0.00    -0.090 HD
ATOM     20  H   LIG d   1       0.505  93.297 118.804  0.00  0.00    -0.090 HD
ATOM     21  H   LIG d   1       1.760  93.136 117.763  0.00  0.00    -0.090 HD
ENDBRANCH   5  18
BRANCH   3  22
ATOM     22  C   LIG d   1      -2.438  89.936 117.561  0.00  0.00     0.382 C 
ATOM     23  O   LIG d   1      -2.871  88.762 117.472  0.00  0.00    -0.241 OA
ATOM     24  O   LIG d   1      -3.238  90.871 117.757  0.00  0.00    -0.241 OA
ENDBRANCH   3  22
TORSDOF 7
ENDMDL
MODEL 5
REMARK VINA RESULT:      -4.3      2.726      5.742
REMARK  7 active torsions:
REMARK  status: ('A' for Active; 'I' for Inactive)
REMARK    1  A    between atoms: C_2  and  C_3 
REMARK    2  A    between atoms: C_3  and  O_6 
REMARK    3  A    between atoms: C_3  and  C_4 
REMARK    4  A    between atoms: C_7  and  O_6 
REMARK    5  A    between atoms: C_9  and  C_10 
REMARK    6  A    between atoms: N_15  and  C_14 
REMARK    7  A    between atoms: N_20  and  C_19 
REMARK       I    between atoms: C_22  and  N_20 
ROOT
ATOM      1  C   LIG d   1       4.272  88.662 116.632  0.00  0.00     0.161 C 
ATOM      2  C   LIG d   1       5.162  89.303 117.510  0.00  0.00     0.016 C 
ATOM      3  C   LIG d   1       6.323  89.986 117.081  0.00  0.00     0.038 C 
ATOM      4  C   LIG d   1       6.595  90.204 115.722  0.00  0.00     0.028 C 
ATOM      5  C   LIG d   1       5.994  89.144 114.806  0.00  0.00    -0.047 C 
ATOM      6  C   LIG d   1       4.493  88.985 115.139  0.00  0.00     0.091 C 
ENDROOT
BRANCH   1   7
ATOM      7  O   LIG d   1       2.913  88.955 117.013  0.00  0.00    -0.368 OA
BRANCH   7   8
ATOM      8  C   LIG d   1       2.312  90.115 116.386  0.00  0.00     0.119 C 
BRANCH   8   9
ATOM      9  C   LIG d   1       2.446  91.294 117.370  0.00  0.00     0.028 C 
ATOM     10  C   LIG d   1       1.181  92.167 117.415  0.00  0.00     0.006 C 
ENDBRANCH   8   9
BRANCH   8  11
ATOM     11  C   LIG d   1       0.806  89.923 116.186  0.00  0.00     0.028 C 
ATOM     12  C   LIG d   1       0.309  88.557 116.685  0.00  0.00     0.006 C 
ENDBRANCH   8  11
ENDBRANCH   7   8
ENDBRANCH   1   7
BRANCH   6  13
ATOM     13  N   LIG d   1       3.847  87.906 114.346  0.00  0.00    -0.311 N 
ATOM     14  C   LIG d   1       3.202  88.124 113.201  0.00  0.00     0.210 C 
ATOM     15  C   LIG d   1       2.593  86.876 112.555  0.00  0.00     0.109 C 
ATOM     16  O   LIG d   1       3.106  89.227 112.643  0.00  0.00    -0.276 OA
ATOM     17  H   LIG d   1       3.904  86.976 114.710  0.00  0.00     0.149 HD
ENDBRANCH   6  13
BRANCH   5  18
ATOM     18  N   LIG d   1       6.235  89.568 113.414  0.00  0.00     0.381 N 
ATOM     19  H   LIG d   1       5.600  90.301 113.169  0.00  0.00    -0.090 HD
ATOM     20  H   LIG d   1       6.068  88.788 112.803  0.00  0.00    -0.090 HD
ATOM     21  H   LIG d   1       7.174  89.884 113.312  0.00  0.00    -0.090 HD
ENDBRANCH   5  18
BRANCH   3  22
ATOM     22  C   LIG d   1       7.248  90.424 118.016  0.00  0.00     0.382 C 
ATOM     23  O   LIG d   1       8.144  91.235 117.680  0.00  0.00    -0.241 OA
ATOM     24  O   LIG d   1       7.225  89.985 119.182  0.00  0.00    -0.241 OA
ENDBRANCH   3  22
TORSDOF 7
ENDMDL
MODEL 6
REMARK VINA RESULT:      -4.2      2.672      5.368
REMARK  7 active torsions:
REMARK  status: ('A' for Active; 'I' for Inactive)
REMARK    1  A    between atoms: C_2  and  C_3 
REMARK    2  A    between atoms: C_3  and  O_6 
REMARK    3  A    between atoms: C_3  and  C_4 
REMARK    4  A    between atoms: C_7  and  O_6 
REMARK    5  A    between atoms: C_9  and  C_10 
REMARK    6  A    between atoms: N_15  and  C_14 
REMARK    7  A    between atoms: N_20  and  C_19 
REMARK       I    between atoms: C_22  and  N_20 
ROOT
ATOM      1  C   LIG d   1       3.999  88.881 116.443  0.00  0.00     0.161 C 
ATOM      2  C   LIG d   1       4.813  89.573 117.355  0.00  0.00     0.016 C 
ATOM      3  C   LIG d   1       6.042  90.175 117.001  0.00  0.00     0.038 C 
ATOM      4  C   LIG d   1       6.471  90.255 115.667  0.00  0.00     0.028 C 
ATOM      5  C   LIG d   1       5.930  89.132 114.789  0.00  0.00    -0.047 C 
ATOM      6  C   LIG d   1       4.396  89.053 114.962  0.00  0.00     0.091 C 
ENDROOT
BRANCH   1   7
ATOM      7  O   LIG d   1       2.620  89.252 116.639  0.00  0.00    -0.368 OA
BRANCH   7   8
ATOM      8  C   LIG d   1       1.869  88.442 117.576  0.00  0.00     0.119 C 
BRANCH   8   9
ATOM      9  C   LIG d   1       1.734  87.034 116.966  0.00  0.00     0.028 C 
ATOM     10  C   LIG d   1       0.753  86.999 115.782  0.00  0.00     0.006 C 
ENDBRANCH   8   9
BRANCH   8  11
ATOM     11  C   LIG d   1       0.435  88.956 117.732  0.00  0.00     0.028 C 
ATOM     12  C   LIG d   1       0.213  90.318 117.055  0.00  0.00     0.006 C 
ENDBRANCH   8  11
ENDBRANCH   7   8
ENDBRANCH   1   7
BRANCH   6  13
ATOM     13  N   LIG d   1       3.797  87.926 114.202  0.00  0.00    -0.311 N 
ATOM     14  C   LIG d   1       3.171  88.079 113.036  0.00  0.00     0.210 C 
ATOM     15  C   LIG d   1       2.609  86.789 112.430  0.00  0.00     0.109 C 
ATOM     16  O   LIG d   1       3.056  89.155 112.431  0.00  0.00    -0.276 OA
ATOM     17  H   LIG d   1       3.872  87.013 114.605  0.00  0.00     0.149 HD
ENDBRANCH   6  13
BRANCH   5  18
ATOM     18  N   LIG d   1       6.342  89.414 113.401  0.00  0.00     0.381 N 
ATOM     19  H   LIG d   1       7.338  89.358 113.324  0.00  0.00    -0.090 HD
ATOM     20  H   LIG d   1       6.059  90.349 113.162  0.00  0.00    -0.090 HD
ATOM     21  H   LIG d   1       5.916  88.762 112.779  0.00  0.00    -0.090 HD
ENDBRANCH   5  18
BRANCH   3  22
ATOM     22  C   LIG d   1       6.876  90.670 117.991  0.00  0.00     0.382 C 
ATOM     23  O   LIG d   1       6.535  90.591 119.196  0.00  0.00    -0.241 OA
ATOM     24  O   LIG d   1       7.946  91.235 117.693  0.00  0.00    -0.241 OA
ENDBRANCH   3  22
TORSDOF 7
ENDMDL
MODEL 7
REMARK VINA RESULT:      -4.2      2.445      4.774
REMARK  7 active torsions:
REMARK  status: ('A' for Active; 'I' for Inactive)
REMARK    1  A    between atoms: C_2  and  C_3 
REMARK    2  A    between atoms: C_3  and  O_6 
REMARK    3  A    between atoms: C_3  and  C_4 
REMARK    4  A    between atoms: C_7  and  O_6 
REMARK    5  A    between atoms: C_9  and  C_10 
REMARK    6  A    between atoms: N_15  and  C_14 
REMARK    7  A    between atoms: N_20  and  C_19 
REMARK       I    between atoms: C_22  and  N_20 
ROOT
ATOM      1  C   LIG d   1       2.275  91.435 116.443  0.00  0.00     0.161 C 
ATOM      2  C   LIG d   1       1.485  91.765 117.556  0.00  0.00     0.016 C 
ATOM      3  C   LIG d   1       0.664  90.833 118.232  0.00  0.00     0.038 C 
ATOM      4  C   LIG d   1       0.693  89.464 117.930  0.00  0.00     0.028 C 
ATOM      5  C   LIG d   1       1.093  89.170 116.488  0.00  0.00    -0.047 C 
ATOM      6  C   LIG d   1       2.405  89.922 116.168  0.00  0.00     0.091 C 
ENDROOT
BRANCH   1   7
ATOM      7  O   LIG d   1       3.579  92.035 116.574  0.00  0.00    -0.368 OA
BRANCH   7   8
ATOM      8  C   LIG d   1       4.436  91.478 117.601  0.00  0.00     0.119 C 
BRANCH   8   9
ATOM      9  C   LIG d   1       4.988  92.653 118.431  0.00  0.00     0.028 C 
ATOM     10  C   LIG d   1       4.403  92.692 119.853  0.00  0.00     0.006 C 
ENDBRANCH   8   9
BRANCH   8  11
ATOM     11  C   LIG d   1       5.667  90.799 116.991  0.00  0.00     0.028 C 
ATOM     12  C   LIG d   1       5.990  89.449 117.650  0.00  0.00     0.006 C 
ENDBRANCH   8  11
ENDBRANCH   7   8
ENDBRANCH   1   7
BRANCH   6  13
ATOM     13  N   LIG d   1       2.823  89.757 114.751  0.00  0.00    -0.311 N 
ATOM     14  C   LIG d   1       3.658  88.804 114.340  0.00  0.00     0.210 C 
ATOM     15  C   LIG d   1       3.972  88.824 112.841  0.00  0.00     0.109 C 
ATOM     16  O   LIG d   1       4.143  87.926 115.068  0.00  0.00    -0.276 OA
ATOM     17  H   LIG d   1       2.452  90.408 114.088  0.00  0.00     0.149 HD
ENDBRANCH   6  13
BRANCH   5  18
ATOM     18  N   LIG d   1       1.218  87.706 116.350  0.00  0.00     0.381 N 
ATOM     19  H   LIG d   1       0.746  87.403 115.521  0.00  0.00    -0.090 HD
ATOM     20  H   LIG d   1       0.781  87.267 117.140  0.00  0.00    -0.090 HD
ATOM     21  H   LIG d   1       2.179  87.448 116.306  0.00  0.00    -0.090 HD
ENDBRANCH   5  18
BRANCH   3  22
ATOM     22  C   LIG d   1      -0.229  91.276 119.196  0.00  0.00     0.382 C 
ATOM     23  O   LIG d   1      -1.009  90.463 119.749  0.00  0.00    -0.241 OA
ATOM     24  O   LIG d   1      -0.296  92.485 119.487  0.00  0.00    -0.241 OA
ENDBRANCH   3  22
TORSDOF 7
ENDMDL
MODEL 8
REMARK VINA RESULT:      -4.1      2.807      4.918
REMARK  7 active torsions:
REMARK  status: ('A' for Active; 'I' for Inactive)
REMARK    1  A    between atoms: C_2  and  C_3 
REMARK    2  A    between atoms: C_3  and  O_6 
REMARK    3  A    between atoms: C_3  and  C_4 
REMARK    4  A    between atoms: C_7  and  O_6 
REMARK    5  A    between atoms: C_9  and  C_10 
REMARK    6  A    between atoms: N_15  and  C_14 
REMARK    7  A    between atoms: N_20  and  C_19 
REMARK       I    between atoms: C_22  and  N_20 
ROOT
ATOM      1  C   LIG d   1       2.493  90.689 116.872  0.00  0.00     0.161 C 
ATOM      2  C   LIG d   1       1.909  91.892 117.302  0.00  0.00     0.016 C 
ATOM      3  C   LIG d   1       0.525  92.040 117.551  0.00  0.00     0.038 C 
ATOM      4  C   LIG d   1      -0.353  90.946 117.531  0.00  0.00     0.028 C 
ATOM      5  C   LIG d   1       0.104  89.819 116.612  0.00  0.00    -0.047 C 
ATOM      6  C   LIG d   1       1.568  89.456 116.952  0.00  0.00     0.091 C 
ENDROOT
BRANCH   1   7
ATOM      7  O   LIG d   1       3.712  90.449 117.602  0.00  0.00    -0.368 OA
BRANCH   7   8
ATOM      8  C   LIG d   1       4.924  90.977 117.009  0.00  0.00     0.119 C 
BRANCH   8   9
ATOM      9  C   LIG d   1       5.682  89.794 116.375  0.00  0.00     0.028 C 
ATOM     10  C   LIG d   1       5.409  89.663 114.867  0.00  0.00     0.006 C 
ENDBRANCH   8   9
BRANCH   8  11
ATOM     11  C   LIG d   1       5.868  91.538 118.077  0.00  0.00     0.028 C 
ATOM     12  C   LIG d   1       5.494  92.963 118.514  0.00  0.00     0.006 C 
ENDBRANCH   8  11
ENDBRANCH   7   8
ENDBRANCH   1   7
BRANCH   6  13
ATOM     13  N   LIG d   1       2.121  88.419 116.043  0.00  0.00    -0.311 N 
ATOM     14  C   LIG d   1       2.663  87.281 116.473  0.00  0.00     0.210 C 
ATOM     15  C   LIG d   1       3.191  86.359 115.369  0.00  0.00     0.109 C 
ATOM     16  O   LIG d   1       2.728  86.933 117.662  0.00  0.00    -0.276 OA
ATOM     17  H   LIG d   1       2.081  88.606 115.060  0.00  0.00     0.149 HD
ENDBRANCH   6  13
BRANCH   5  18
ATOM     18  N   LIG d   1      -0.828  88.690 116.793  0.00  0.00     0.381 N 
ATOM     19  H   LIG d   1      -1.717  88.918 116.395  0.00  0.00    -0.090 HD
ATOM     20  H   LIG d   1      -0.955  88.528 117.777  0.00  0.00    -0.090 HD
ATOM     21  H   LIG d   1      -0.461  87.872 116.360  0.00  0.00    -0.090 HD
ENDBRANCH   5  18
BRANCH   3  22
ATOM     22  C   LIG d   1      -0.000  93.302 117.784  0.00  0.00     0.382 C 
ATOM     23  O   LIG d   1      -0.447  93.982 116.829  0.00  0.00    -0.241 OA
ATOM     24  O   LIG d   1       0.008  93.788 118.931  0.00  0.00    -0.241 OA
ENDBRANCH   3  22
TORSDOF 7
ENDMDL
MODEL 9
REMARK VINA RESULT:      -3.9      2.683      5.227
REMARK  7 active torsions:
REMARK  status: ('A' for Active; 'I' for Inactive)
REMARK    1  A    between atoms: C_2  and  C_3 
REMARK    2  A    between atoms: C_3  and  O_6 
REMARK    3  A    between atoms: C_3  and  C_4 
REMARK    4  A    between atoms: C_7  and  O_6 
REMARK    5  A    between atoms: C_9  and  C_10 
REMARK    6  A    between atoms: N_15  and  C_14 
REMARK    7  A    between atoms: N_20  and  C_19 
REMARK       I    between atoms: C_22  and  N_20 
ROOT
ATOM      1  C   LIG d   1       2.570  89.205 118.150  0.00  0.00     0.161 C 
ATOM      2  C   LIG d   1       2.710  87.936 117.563  0.00  0.00     0.016 C 
ATOM      3  C   LIG d   1       1.732  87.355 116.723  0.00  0.00     0.038 C 
ATOM      4  C   LIG d   1       0.608  88.072 116.289  0.00  0.00     0.028 C 
ATOM      5  C   LIG d   1       0.176  89.168 117.258  0.00  0.00    -0.047 C 
ATOM      6  C   LIG d   1       1.401  90.047 117.599  0.00  0.00     0.091 C 
ENDROOT
BRANCH   1   7
ATOM      7  O   LIG d   1       3.809  89.934 118.040  0.00  0.00    -0.368 OA
BRANCH   7   8
ATOM      8  C   LIG d   1       4.007  90.670 116.808  0.00  0.00     0.119 C 
BRANCH   8   9
ATOM      9  C   LIG d   1       5.335  90.191 116.190  0.00  0.00     0.028 C 
ATOM     10  C   LIG d   1       5.121  89.187 115.045  0.00  0.00     0.006 C 
ENDBRANCH   8   9
BRANCH   8  11
ATOM     11  C   LIG d   1       4.201  92.165 117.077  0.00  0.00     0.028 C 
ATOM     12  C   LIG d   1       5.161  92.440 118.246  0.00  0.00     0.006 C 
ENDBRANCH   8  11
ENDBRANCH   7   8
ENDBRANCH   1   7
BRANCH   6  13
ATOM     13  N   LIG d   1       1.085  91.092 118.607  0.00  0.00    -0.311 N 
ATOM     14  C   LIG d   1       0.770  92.347 118.288  0.00  0.00     0.210 C 
ATOM     15  C   LIG d   1       0.500  93.269 119.481  0.00  0.00     0.109 C 
ATOM     16  O   LIG d   1       0.658  92.775 117.130  0.00  0.00    -0.276 OA
ATOM     17  H   LIG d   1       1.122  90.823 119.570  0.00  0.00     0.149 HD
ENDBRANCH   6  13
BRANCH   5  18
ATOM     18  N   LIG d   1      -0.918  89.923 116.618  0.00  0.00     0.381 N 
ATOM     19  H   LIG d   1      -0.546  90.721 116.144  0.00  0.00    -0.090 HD
ATOM     20  H   LIG d   1      -1.550  90.245 117.330  0.00  0.00    -0.090 HD
ATOM     21  H   LIG d   1      -1.403  89.339 115.973  0.00  0.00    -0.090 HD
ENDBRANCH   5  18
BRANCH   3  22
ATOM     22  C   LIG d   1       1.856  86.028 116.341  0.00  0.00     0.382 C 
ATOM     23  O   LIG d   1       2.948  85.430 116.495  0.00  0.00    -0.241 OA
ATOM     24  O   LIG d   1       0.902  85.435 115.803  0.00  0.00    -0.241 OA
ENDBRANCH   3  22
TORSDOF 7
ENDMDL
