MODEL 1
REMARK VINA RESULT:      -4.3      0.000      0.000
REMARK  7 active torsions:
REMARK  status: ('A' for Active; 'I' for Inactive)
REMARK    1  A    between atoms: C_2  and  C_3 
REMARK    2  A    between atoms: C_3  and  O_6 
REMARK    3  A    between atoms: C_3  and  C_4 
REMARK    4  A    between atoms: C_7  and  O_6 
REMARK    5  A    between atoms: C_9  and  C_10 
REMARK    6  A    between atoms: N_15  and  C_14 
REMARK    7  A    between atoms: N_20  and  C_19 
REMARK       I    between atoms: C_22  and  N_20 
ROOT
ATOM      1  C   LIG d   1       4.789  89.825 116.295  0.00  0.00     0.161 C 
ATOM      2  C   LIG d   1       3.889  90.801 116.755  0.00  0.00     0.016 C 
ATOM      3  C   LIG d   1       4.065  91.513 117.964  0.00  0.00     0.038 C 
ATOM      4  C   LIG d   1       5.238  91.404 118.725  0.00  0.00     0.028 C 
ATOM      5  C   LIG d   1       5.943  90.062 118.562  0.00  0.00    -0.047 C 
ATOM      6  C   LIG d   1       6.131  89.773 117.055  0.00  0.00     0.091 C 
ENDROOT
BRANCH   1   7
ATOM      7  O   LIG d   1       5.020  90.001 114.883  0.00  0.00    -0.368 OA
BRANCH   7   8
ATOM      8  C   LIG d   1       4.472  88.978 114.016  0.00  0.00     0.119 C 
BRANCH   8   9
ATOM      9  C   LIG d   1       3.902  87.865 114.916  0.00  0.00     0.028 C 
ATOM     10  C   LIG d   1       4.534  86.493 114.625  0.00  0.00     0.006 C 
ENDBRANCH   8   9
BRANCH   8  11
ATOM     11  C   LIG d   1       5.569  88.305 113.185  0.00  0.00     0.028 C 
ATOM     12  C   LIG d   1       6.902  89.070 113.229  0.00  0.00     0.006 C 
ENDBRANCH   8  11
ENDBRANCH   7   8
ENDBRANCH   1   7
BRANCH   6  13
ATOM     13  N   LIG d   1       6.737  88.439 116.805  0.00  0.00    -0.311 N 
ATOM     14  C   LIG d   1       8.048  88.243 116.677  0.00  0.00     0.210 C 
ATOM     15  C   LIG d   1       8.461  86.793 116.402  0.00  0.00     0.109 C 
ATOM     16  O   LIG d   1       8.911  89.126 116.796  0.00  0.00    -0.276 OA
ATOM     17  H   LIG d   1       6.112  87.661 116.725  0.00  0.00     0.149 HD
ENDBRANCH   6  13
BRANCH   5  18
ATOM     18  N   LIG d   1       7.219  90.136 119.299  0.00  0.00     0.381 N 
ATOM     19  H   LIG d   1       7.132  90.777 120.063  0.00  0.00    -0.090 HD
ATOM     20  H   LIG d   1       7.933  90.478 118.680  0.00  0.00    -0.090 HD
ATOM     21  H   LIG d   1       7.469  89.234 119.640  0.00  0.00    -0.090 HD
ENDBRANCH   5  18
BRANCH   3  22
ATOM     22  C   LIG d   1       3.041  92.316 118.444  0.00  0.00     0.382 C 
ATOM     23  O   LIG d   1       3.008  92.632 119.658  0.00  0.00    -0.241 OA
ATOM     24  O   LIG d   1       2.126  92.692 117.687  0.00  0.00    -0.241 OA
ENDBRANCH   3  22
TORSDOF 7
ENDMDL
MODEL 2
REMARK VINA RESULT:      -4.0      3.308      6.315
REMARK  7 active torsions:
REMARK  status: ('A' for Active; 'I' for Inactive)
REMARK    1  A    between atoms: C_2  and  C_3 
REMARK    2  A    between atoms: C_3  and  O_6 
REMARK    3  A    between atoms: C_3  and  C_4 
REMARK    4  A    between atoms: C_7  and  O_6 
REMARK    5  A    between atoms: C_9  and  C_10 
REMARK    6  A    between atoms: N_15  and  C_14 
REMARK    7  A    between atoms: N_20  and  C_19 
REMARK       I    between atoms: C_22  and  N_20 
ROOT
ATOM      1  C   LIG d   1       2.845  88.862 116.493  0.00  0.00     0.161 C 
ATOM      2  C   LIG d   1       3.698  89.395 115.512  0.00  0.00     0.016 C 
ATOM      3  C   LIG d   1       4.098  88.684 114.358  0.00  0.00     0.038 C 
ATOM      4  C   LIG d   1       3.547  87.436 114.029  0.00  0.00     0.028 C 
ATOM      5  C   LIG d   1       3.069  86.645 115.242  0.00  0.00    -0.047 C 
ATOM      6  C   LIG d   1       2.146  87.545 116.095  0.00  0.00     0.091 C 
ENDROOT
BRANCH   1   7
ATOM      7  O   LIG d   1       1.869  89.849 116.881  0.00  0.00    -0.368 OA
BRANCH   7   8
ATOM      8  C   LIG d   1       2.041  90.432 118.196  0.00  0.00     0.119 C 
BRANCH   8   9
ATOM      9  C   LIG d   1       0.664  90.427 118.889  0.00  0.00     0.028 C 
ATOM     10  C   LIG d   1      -0.498  90.497 117.884  0.00  0.00     0.006 C 
ENDBRANCH   8   9
BRANCH   8  11
ATOM     11  C   LIG d   1       2.443  91.907 118.104  0.00  0.00     0.028 C 
ATOM     12  C   LIG d   1       3.962  92.104 117.977  0.00  0.00     0.006 C 
ENDBRANCH   8  11
ENDBRANCH   7   8
ENDBRANCH   1   7
BRANCH   6  13
ATOM     13  N   LIG d   1       1.701  86.876 117.346  0.00  0.00    -0.311 N 
ATOM     14  C   LIG d   1       0.422  86.745 117.692  0.00  0.00     0.210 C 
ATOM     15  C   LIG d   1       0.183  86.041 119.031  0.00  0.00     0.109 C 
ATOM     16  O   LIG d   1      -0.539  87.117 117.002  0.00  0.00    -0.276 OA
ATOM     17  H   LIG d   1       2.415  86.518 117.950  0.00  0.00     0.149 HD
ENDBRANCH   6  13
BRANCH   5  18
ATOM     18  N   LIG d   1       2.395  85.431 114.745  0.00  0.00     0.381 N 
ATOM     19  H   LIG d   1       3.076  84.772 114.426  0.00  0.00    -0.090 HD
ATOM     20  H   LIG d   1       1.808  85.680 113.968  0.00  0.00    -0.090 HD
ATOM     21  H   LIG d   1       1.844  85.026 115.470  0.00  0.00    -0.090 HD
ENDBRANCH   5  18
BRANCH   3  22
ATOM     22  C   LIG d   1       5.089  89.203 113.540  0.00  0.00     0.382 C 
ATOM     23  O   LIG d   1       6.256  88.745 113.600  0.00  0.00    -0.241 OA
ATOM     24  O   LIG d   1       4.842  90.153 112.774  0.00  0.00    -0.241 OA
ENDBRANCH   3  22
TORSDOF 7
ENDMDL
MODEL 3
REMARK VINA RESULT:      -3.9      2.407      4.897
REMARK  7 active torsions:
REMARK  status: ('A' for Active; 'I' for Inactive)
REMARK    1  A    between atoms: C_2  and  C_3 
REMARK    2  A    between atoms: C_3  and  O_6 
REMARK    3  A    between atoms: C_3  and  C_4 
REMARK    4  A    between atoms: C_7  and  O_6 
REMARK    5  A    between atoms: C_9  and  C_10 
REMARK    6  A    between atoms: N_15  and  C_14 
REMARK    7  A    between atoms: N_20  and  C_19 
REMARK       I    between atoms: C_22  and  N_20 
ROOT
ATOM      1  C   LIG d   1       3.972  89.811 115.854  0.00  0.00     0.161 C 
ATOM      2  C   LIG d   1       5.327  89.492 115.665  0.00  0.00     0.016 C 
ATOM      3  C   LIG d   1       6.221  89.234 116.729  0.00  0.00     0.038 C 
ATOM      4  C   LIG d   1       5.783  89.130 118.057  0.00  0.00     0.028 C 
ATOM      5  C   LIG d   1       4.524  89.941 118.345  0.00  0.00    -0.047 C 
ATOM      6  C   LIG d   1       3.450  89.593 117.290  0.00  0.00     0.091 C 
ENDROOT
BRANCH   1   7
ATOM      7  O   LIG d   1       3.162  89.082 114.910  0.00  0.00    -0.368 OA
BRANCH   7   8
ATOM      8  C   LIG d   1       3.642  87.766 114.541  0.00  0.00     0.119 C 
BRANCH   8   9
ATOM      9  C   LIG d   1       3.642  87.689 113.002  0.00  0.00     0.028 C 
ATOM     10  C   LIG d   1       5.029  87.350 112.431  0.00  0.00     0.006 C 
ENDBRANCH   8   9
BRANCH   8  11
ATOM     11  C   LIG d   1       2.676  86.671 115.002  0.00  0.00     0.028 C 
ATOM     12  C   LIG d   1       3.106  86.017 116.325  0.00  0.00     0.006 C 
ENDBRANCH   8  11
ENDBRANCH   7   8
ENDBRANCH   1   7
BRANCH   6  13
ATOM     13  N   LIG d   1       2.216  90.405 117.448  0.00  0.00    -0.311 N 
ATOM     14  C   LIG d   1       0.988  89.896 117.361  0.00  0.00     0.210 C 
ATOM     15  C   LIG d   1      -0.146  90.911 117.536  0.00  0.00     0.109 C 
ATOM     16  O   LIG d   1       0.730  88.695 117.189  0.00  0.00    -0.276 OA
ATOM     17  H   LIG d   1       2.333  91.384 117.621  0.00  0.00     0.149 HD
ENDBRANCH   6  13
BRANCH   5  18
ATOM     18  N   LIG d   1       4.101  89.633 119.724  0.00  0.00     0.381 N 
ATOM     19  H   LIG d   1       3.348  90.236 119.990  0.00  0.00    -0.090 HD
ATOM     20  H   LIG d   1       4.873  89.799 120.346  0.00  0.00    -0.090 HD
ATOM     21  H   LIG d   1       3.813  88.681 119.788  0.00  0.00    -0.090 HD
ENDBRANCH   5  18
BRANCH   3  22
ATOM     22  C   LIG d   1       7.579  89.118 116.472  0.00  0.00     0.382 C 
ATOM     23  O   LIG d   1       8.406  89.758 117.166  0.00  0.00    -0.241 OA
ATOM     24  O   LIG d   1       7.985  88.415 115.527  0.00  0.00    -0.241 OA
ENDBRANCH   3  22
TORSDOF 7
ENDMDL
MODEL 4
REMARK VINA RESULT:      -3.8      1.766      2.113
REMARK  7 active torsions:
REMARK  status: ('A' for Active; 'I' for Inactive)
REMARK    1  A    between atoms: C_2  and  C_3 
REMARK    2  A    between atoms: C_3  and  O_6 
REMARK    3  A    between atoms: C_3  and  C_4 
REMARK    4  A    between atoms: C_7  and  O_6 
REMARK    5  A    between atoms: C_9  and  C_10 
REMARK    6  A    between atoms: N_15  and  C_14 
REMARK    7  A    between atoms: N_20  and  C_19 
REMARK       I    between atoms: C_22  and  N_20 
ROOT
ATOM      1  C   LIG d   1       4.779  87.546 116.010  0.00  0.00     0.161 C 
ATOM      2  C   LIG d   1       3.503  88.116 116.153  0.00  0.00     0.016 C 
ATOM      3  C   LIG d   1       3.205  89.131 117.091  0.00  0.00     0.038 C 
ATOM      4  C   LIG d   1       4.205  89.755 117.851  0.00  0.00     0.028 C 
ATOM      5  C   LIG d   1       5.419  88.865 118.102  0.00  0.00    -0.047 C 
ATOM      6  C   LIG d   1       5.907  88.291 116.753  0.00  0.00     0.091 C 
ENDROOT
BRANCH   1   7
ATOM      7  O   LIG d   1       5.101  87.415 114.611  0.00  0.00    -0.368 OA
BRANCH   7   8
ATOM      8  C   LIG d   1       4.459  88.358 113.718  0.00  0.00     0.119 C 
BRANCH   8   9
ATOM      9  C   LIG d   1       4.086  87.596 112.431  0.00  0.00     0.028 C 
ATOM     10  C   LIG d   1       4.267  86.076 112.576  0.00  0.00     0.006 C 
ENDBRANCH   8   9
BRANCH   8  11
ATOM     11  C   LIG d   1       5.431  89.455 113.273  0.00  0.00     0.028 C 
ATOM     12  C   LIG d   1       6.896  88.993 113.284  0.00  0.00     0.006 C 
ENDBRANCH   8  11
ENDBRANCH   7   8
ENDBRANCH   1   7
BRANCH   6  13
ATOM     13  N   LIG d   1       7.040  87.343 116.917  0.00  0.00    -0.311 N 
ATOM     14  C   LIG d   1       8.318  87.703 116.814  0.00  0.00     0.210 C 
ATOM     15  C   LIG d   1       9.327  86.565 116.999  0.00  0.00     0.109 C 
ATOM     16  O   LIG d   1       8.713  88.862 116.620  0.00  0.00    -0.276 OA
ATOM     17  H   LIG d   1       6.811  86.387 117.108  0.00  0.00     0.149 HD
ENDBRANCH   6  13
BRANCH   5  18
ATOM     18  N   LIG d   1       6.438  89.684 118.785  0.00  0.00     0.381 N 
ATOM     19  H   LIG d   1       6.184  89.811 119.744  0.00  0.00    -0.090 HD
ATOM     20  H   LIG d   1       6.476  90.588 118.347  0.00  0.00    -0.090 HD
ATOM     21  H   LIG d   1       7.328  89.241 118.725  0.00  0.00    -0.090 HD
ENDBRANCH   5  18
BRANCH   3  22
ATOM     22  C   LIG d   1       1.887  89.504 117.305  0.00  0.00     0.382 C 
ATOM     23  O   LIG d   1       1.627  90.546 117.953  0.00  0.00    -0.241 OA
ATOM     24  O   LIG d   1       0.953  88.788 116.895  0.00  0.00    -0.241 OA
ENDBRANCH   3  22
TORSDOF 7
ENDMDL
MODEL 5
REMARK VINA RESULT:      -3.8      2.666      5.425
REMARK  7 active torsions:
REMARK  status: ('A' for Active; 'I' for Inactive)
REMARK    1  A    between atoms: C_2  and  C_3 
REMARK    2  A    between atoms: C_3  and  O_6 
REMARK    3  A    between atoms: C_3  and  C_4 
REMARK    4  A    between atoms: C_7  and  O_6 
REMARK    5  A    between atoms: C_9  and  C_10 
REMARK    6  A    between atoms: N_15  and  C_14 
REMARK    7  A    between atoms: N_20  and  C_19 
REMARK       I    between atoms: C_22  and  N_20 
ROOT
ATOM      1  C   LIG d   1       3.205  89.315 116.528  0.00  0.00     0.161 C 
ATOM      2  C   LIG d   1       3.088  88.801 115.226  0.00  0.00     0.016 C 
ATOM      3  C   LIG d   1       4.196  88.558 114.382  0.00  0.00     0.038 C 
ATOM      4  C   LIG d   1       5.517  88.672 114.842  0.00  0.00     0.028 C 
ATOM      5  C   LIG d   1       5.677  89.669 115.984  0.00  0.00    -0.047 C 
ATOM      6  C   LIG d   1       4.643  89.340 117.086  0.00  0.00     0.091 C 
ENDROOT
BRANCH   1   7
ATOM      7  O   LIG d   1       2.334  88.591 117.419  0.00  0.00    -0.368 OA
BRANCH   7   8
ATOM      8  C   LIG d   1       1.425  89.392 118.213  0.00  0.00     0.119 C 
BRANCH   8   9
ATOM      9  C   LIG d   1       0.375  88.440 118.816  0.00  0.00     0.028 C 
ATOM     10  C   LIG d   1      -0.355  87.615 117.742  0.00  0.00     0.006 C 
ENDBRANCH   8   9
BRANCH   8  11
ATOM     11  C   LIG d   1       0.633  90.368 117.338  0.00  0.00     0.028 C 
ATOM     12  C   LIG d   1       0.686  91.813 117.858  0.00  0.00     0.006 C 
ENDBRANCH   8  11
ENDBRANCH   7   8
ENDBRANCH   1   7
BRANCH   6  13
ATOM     13  N   LIG d   1       4.675  90.319 118.204  0.00  0.00    -0.311 N 
ATOM     14  C   LIG d   1       4.508  91.630 118.035  0.00  0.00     0.210 C 
ATOM     15  C   LIG d   1       4.597  92.464 119.317  0.00  0.00     0.109 C 
ATOM     16  O   LIG d   1       4.261  92.178 116.950  0.00  0.00    -0.276 OA
ATOM     17  H   LIG d   1       4.838  89.957 119.123  0.00  0.00     0.149 HD
ENDBRANCH   6  13
BRANCH   5  18
ATOM     18  N   LIG d   1       7.072  89.586 116.457  0.00  0.00     0.381 N 
ATOM     19  H   LIG d   1       7.116  89.029 117.287  0.00  0.00    -0.090 HD
ATOM     20  H   LIG d   1       7.395  90.511 116.680  0.00  0.00    -0.090 HD
ATOM     21  H   LIG d   1       7.648  89.186 115.749  0.00  0.00    -0.090 HD
ENDBRANCH   5  18
BRANCH   3  22
ATOM     22  C   LIG d   1       3.988  88.236 113.050  0.00  0.00     0.382 C 
ATOM     23  O   LIG d   1       3.013  88.726 112.431  0.00  0.00    -0.241 OA
ATOM     24  O   LIG d   1       4.738  87.426 112.472  0.00  0.00    -0.241 OA
ENDBRANCH   3  22
TORSDOF 7
ENDMDL
MODEL 6
REMARK VINA RESULT:      -3.8      2.671      5.238
REMARK  7 active torsions:
REMARK  status: ('A' for Active; 'I' for Inactive)
REMARK    1  A    between atoms: C_2  and  C_3 
REMARK    2  A    between atoms: C_3  and  O_6 
REMARK    3  A    between atoms: C_3  and  C_4 
REMARK    4  A    between atoms: C_7  and  O_6 
REMARK    5  A    between atoms: C_9  and  C_10 
REMARK    6  A    between atoms: N_15  and  C_14 
REMARK    7  A    between atoms: N_20  and  C_19 
REMARK       I    between atoms: C_22  and  N_20 
ROOT
ATOM      1  C   LIG d   1       2.847  88.807 115.561  0.00  0.00     0.161 C 
ATOM      2  C   LIG d   1       3.668  88.493 114.465  0.00  0.00     0.016 C 
ATOM      3  C   LIG d   1       5.032  88.857 114.386  0.00  0.00     0.038 C 
ATOM      4  C   LIG d   1       5.711  89.430 115.471  0.00  0.00     0.028 C 
ATOM      5  C   LIG d   1       4.801  90.220 116.406  0.00  0.00    -0.047 C 
ATOM      6  C   LIG d   1       3.598  89.334 116.802  0.00  0.00     0.091 C 
ENDROOT
BRANCH   1   7
ATOM      7  O   LIG d   1       2.042  87.664 115.911  0.00  0.00    -0.368 OA
BRANCH   7   8
ATOM      8  C   LIG d   1       2.649  86.366 115.693  0.00  0.00     0.119 C 
BRANCH   8   9
ATOM      9  C   LIG d   1       1.599  85.474 115.003  0.00  0.00     0.028 C 
ATOM     10  C   LIG d   1       1.771  85.441 113.475  0.00  0.00     0.006 C 
ENDBRANCH   8   9
BRANCH   8  11
ATOM     11  C   LIG d   1       2.964  85.668 117.020  0.00  0.00     0.028 C 
ATOM     12  C   LIG d   1       4.420  85.872 117.469  0.00  0.00     0.006 C 
ENDBRANCH   8  11
ENDBRANCH   7   8
ENDBRANCH   1   7
BRANCH   6  13
ATOM     13  N   LIG d   1       2.615  90.059 117.648  0.00  0.00    -0.311 N 
ATOM     14  C   LIG d   1       2.138  89.577 118.794  0.00  0.00     0.210 C 
ATOM     15  C   LIG d   1       1.118  90.476 119.500  0.00  0.00     0.109 C 
ATOM     16  O   LIG d   1       2.486  88.504 119.310  0.00  0.00    -0.276 OA
ATOM     17  H   LIG d   1       2.301  90.952 117.320  0.00  0.00     0.149 HD
ENDBRANCH   6  13
BRANCH   5  18
ATOM     18  N   LIG d   1       5.612  90.646 117.562  0.00  0.00     0.381 N 
ATOM     19  H   LIG d   1       6.078  89.854 117.959  0.00  0.00    -0.090 HD
ATOM     20  H   LIG d   1       5.003  91.035 118.260  0.00  0.00    -0.090 HD
ATOM     21  H   LIG d   1       6.281  91.326 117.278  0.00  0.00    -0.090 HD
ENDBRANCH   5  18
BRANCH   3  22
ATOM     22  C   LIG d   1       5.722  88.682 113.195  0.00  0.00     0.382 C 
ATOM     23  O   LIG d   1       6.613  89.500 112.861  0.00  0.00    -0.241 OA
ATOM     24  O   LIG d   1       5.434  87.743 112.430  0.00  0.00    -0.241 OA
ENDBRANCH   3  22
TORSDOF 7
ENDMDL
MODEL 7
REMARK VINA RESULT:      -3.7      2.033      4.720
REMARK  7 active torsions:
REMARK  status: ('A' for Active; 'I' for Inactive)
REMARK    1  A    between atoms: C_2  and  C_3 
REMARK    2  A    between atoms: C_3  and  O_6 
REMARK    3  A    between atoms: C_3  and  C_4 
REMARK    4  A    between atoms: C_7  and  O_6 
REMARK    5  A    between atoms: C_9  and  C_10 
REMARK    6  A    between atoms: N_15  and  C_14 
REMARK    7  A    between atoms: N_20  and  C_19 
REMARK       I    between atoms: C_22  and  N_20 
ROOT
ATOM      1  C   LIG d   1       5.238  89.711 115.408  0.00  0.00     0.161 C 
ATOM      2  C   LIG d   1       4.189  89.254 114.593  0.00  0.00     0.016 C 
ATOM      3  C   LIG d   1       3.928  87.885 114.356  0.00  0.00     0.038 C 
ATOM      4  C   LIG d   1       4.610  86.870 115.043  0.00  0.00     0.028 C 
ATOM      5  C   LIG d   1       6.010  87.277 115.491  0.00  0.00    -0.047 C 
ATOM      6  C   LIG d   1       5.923  88.618 116.254  0.00  0.00     0.091 C 
ENDROOT
BRANCH   1   7
ATOM      7  O   LIG d   1       4.769  90.780 116.254  0.00  0.00    -0.368 OA
BRANCH   7   8
ATOM      8  C   LIG d   1       4.100  90.379 117.475  0.00  0.00     0.119 C 
BRANCH   8   9
ATOM      9  C   LIG d   1       2.669  90.949 117.426  0.00  0.00     0.028 C 
ATOM     10  C   LIG d   1       1.609  89.857 117.209  0.00  0.00     0.006 C 
ENDBRANCH   8   9
BRANCH   8  11
ATOM     11  C   LIG d   1       4.751  91.021 118.704  0.00  0.00     0.028 C 
ATOM     12  C   LIG d   1       5.780  92.101 118.337  0.00  0.00     0.006 C 
ENDBRANCH   8  11
ENDBRANCH   7   8
ENDBRANCH   1   7
BRANCH   6  13
ATOM     13  N   LIG d   1       7.259  89.130 116.654  0.00  0.00    -0.311 N 
ATOM     14  C   LIG d   1       7.782  88.946 117.865  0.00  0.00     0.210 C 
ATOM     15  C   LIG d   1       9.164  89.574 118.075  0.00  0.00     0.109 C 
ATOM     16  O   LIG d   1       7.247  88.296 118.776  0.00  0.00    -0.276 OA
ATOM     17  H   LIG d   1       7.776  89.642 115.967  0.00  0.00     0.149 HD
ENDBRANCH   6  13
BRANCH   5  18
ATOM     18  N   LIG d   1       6.552  86.178 116.312  0.00  0.00     0.381 N 
ATOM     19  H   LIG d   1       5.968  86.032 117.111  0.00  0.00    -0.090 HD
ATOM     20  H   LIG d   1       7.469  86.434 116.633  0.00  0.00    -0.090 HD
ATOM     21  H   LIG d   1       6.603  85.342 115.772  0.00  0.00    -0.090 HD
ENDBRANCH   5  18
BRANCH   3  22
ATOM     22  C   LIG d   1       3.001  87.519 113.391  0.00  0.00     0.382 C 
ATOM     23  O   LIG d   1       2.375  88.402 112.757  0.00  0.00    -0.241 OA
ATOM     24  O   LIG d   1       2.752  86.317 113.179  0.00  0.00    -0.241 OA
ENDBRANCH   3  22
TORSDOF 7
ENDMDL
MODEL 8
REMARK VINA RESULT:      -3.7      6.350      9.499
REMARK  7 active torsions:
REMARK  status: ('A' for Active; 'I' for Inactive)
REMARK    1  A    between atoms: C_2  and  C_3 
REMARK    2  A    between atoms: C_3  and  O_6 
REMARK    3  A    between atoms: C_3  and  C_4 
REMARK    4  A    between atoms: C_7  and  O_6 
REMARK    5  A    between atoms: C_9  and  C_10 
REMARK    6  A    between atoms: N_15  and  C_14 
REMARK    7  A    between atoms: N_20  and  C_19 
REMARK       I    between atoms: C_22  and  N_20 
ROOT
ATOM      1  C   LIG d   1      -2.382  93.004 118.761  0.00  0.00     0.161 C 
ATOM      2  C   LIG d   1      -3.619  92.669 118.184  0.00  0.00     0.016 C 
ATOM      3  C   LIG d   1      -4.031  91.338 117.947  0.00  0.00     0.038 C 
ATOM      4  C   LIG d   1      -3.293  90.239 118.412  0.00  0.00     0.028 C 
ATOM      5  C   LIG d   1      -1.802  90.525 118.548  0.00  0.00    -0.047 C 
ATOM      6  C   LIG d   1      -1.612  91.817 119.376  0.00  0.00     0.091 C 
ENDROOT
BRANCH   1   7
ATOM      7  O   LIG d   1      -2.567  94.044 119.742  0.00  0.00    -0.368 OA
BRANCH   7   8
ATOM      8  C   LIG d   1      -1.857  95.283 119.498  0.00  0.00     0.119 C 
BRANCH   8   9
ATOM      9  C   LIG d   1      -2.781  96.439 119.929  0.00  0.00     0.028 C 
ATOM     10  C   LIG d   1      -4.265  96.036 119.926  0.00  0.00     0.006 C 
ENDBRANCH   8   9
BRANCH   8  11
ATOM     11  C   LIG d   1      -1.609  95.499 118.002  0.00  0.00     0.028 C 
ATOM     12  C   LIG d   1      -0.216  96.077 117.706  0.00  0.00     0.006 C 
ENDBRANCH   8  11
ENDBRANCH   7   8
ENDBRANCH   1   7
BRANCH   6  13
ATOM     13  N   LIG d   1      -0.185  92.216 119.486  0.00  0.00    -0.311 N 
ATOM     14  C   LIG d   1       0.582  92.495 118.433  0.00  0.00     0.210 C 
ATOM     15  C   LIG d   1       2.030  92.865 118.768  0.00  0.00     0.109 C 
ATOM     16  O   LIG d   1       0.191  92.503 117.256  0.00  0.00    -0.276 OA
ATOM     17  H   LIG d   1       0.205  92.265 120.407  0.00  0.00     0.149 HD
ENDBRANCH   6  13
BRANCH   5  18
ATOM     18  N   LIG d   1      -1.176  89.343 119.171  0.00  0.00     0.381 N 
ATOM     19  H   LIG d   1      -0.643  89.623 119.970  0.00  0.00    -0.090 HD
ATOM     20  H   LIG d   1      -0.551  88.919 118.508  0.00  0.00    -0.090 HD
ATOM     21  H   LIG d   1      -1.878  88.690 119.443  0.00  0.00    -0.090 HD
ENDBRANCH   5  18
BRANCH   3  22
ATOM     22  C   LIG d   1      -5.175  91.095 117.202  0.00  0.00     0.382 C 
ATOM     23  O   LIG d   1      -6.210  91.776 117.401  0.00  0.00    -0.241 OA
ATOM     24  O   LIG d   1      -5.199  90.174 116.363  0.00  0.00    -0.241 OA
ENDBRANCH   3  22
TORSDOF 7
ENDMDL
MODEL 9
REMARK VINA RESULT:      -3.7      2.813      5.460
REMARK  7 active torsions:
REMARK  status: ('A' for Active; 'I' for Inactive)
REMARK    1  A    between atoms: C_2  and  C_3 
REMARK    2  A    between atoms: C_3  and  O_6 
REMARK    3  A    between atoms: C_3  and  C_4 
REMARK    4  A    between atoms: C_7  and  O_6 
REMARK    5  A    between atoms: C_9  and  C_10 
REMARK    6  A    between atoms: N_15  and  C_14 
REMARK    7  A    between atoms: N_20  and  C_19 
REMARK       I    between atoms: C_22  and  N_20 
ROOT
ATOM      1  C   LIG d   1       5.003  87.673 116.696  0.00  0.00     0.161 C 
ATOM      2  C   LIG d   1       6.174  88.266 117.196  0.00  0.00     0.016 C 
ATOM      3  C   LIG d   1       7.156  88.864 116.373  0.00  0.00     0.038 C 
ATOM      4  C   LIG d   1       6.960  89.044 114.996  0.00  0.00     0.028 C 
ATOM      5  C   LIG d   1       6.022  88.012 114.378  0.00  0.00    -0.047 C 
ATOM      6  C   LIG d   1       4.719  87.958 115.207  0.00  0.00     0.091 C 
ENDROOT
BRANCH   1   7
ATOM      7  O   LIG d   1       3.875  88.061 117.505  0.00  0.00    -0.368 OA
BRANCH   7   8
ATOM      8  C   LIG d   1       3.131  89.218 117.048  0.00  0.00     0.119 C 
BRANCH   8   9
ATOM      9  C   LIG d   1       3.461  90.385 117.998  0.00  0.00     0.028 C 
ATOM     10  C   LIG d   1       4.252  91.504 117.300  0.00  0.00     0.006 C 
ENDBRANCH   8   9
BRANCH   8  11
ATOM     11  C   LIG d   1       1.621  88.998 117.184  0.00  0.00     0.028 C 
ATOM     12  C   LIG d   1       1.243  87.514 117.304  0.00  0.00     0.006 C 
ENDBRANCH   8  11
ENDBRANCH   7   8
ENDBRANCH   1   7
BRANCH   6  13
ATOM     13  N   LIG d   1       3.780  86.913 114.720  0.00  0.00    -0.311 N 
ATOM     14  C   LIG d   1       2.770  87.165 113.889  0.00  0.00     0.210 C 
ATOM     15  C   LIG d   1       1.912  85.949 113.528  0.00  0.00     0.109 C 
ATOM     16  O   LIG d   1       2.523  88.274 113.392  0.00  0.00    -0.276 OA
ATOM     17  H   LIG d   1       3.927  85.979 115.049  0.00  0.00     0.149 HD
ENDBRANCH   6  13
BRANCH   5  18
ATOM     18  N   LIG d   1       5.798  88.399 112.972  0.00  0.00     0.381 N 
ATOM     19  H   LIG d   1       5.819  89.396 112.888  0.00  0.00    -0.090 HD
ATOM     20  H   LIG d   1       4.890  88.077 112.687  0.00  0.00    -0.090 HD
ATOM     21  H   LIG d   1       6.499  87.994 112.391  0.00  0.00    -0.090 HD
ENDBRANCH   5  18
BRANCH   3  22
ATOM     22  C   LIG d   1       8.368  89.254 116.922  0.00  0.00     0.382 C 
ATOM     23  O   LIG d   1       9.320  88.438 116.982  0.00  0.00    -0.241 OA
ATOM     24  O   LIG d   1       8.508  90.396 117.398  0.00  0.00    -0.241 OA
ENDBRANCH   3  22
TORSDOF 7
ENDMDL
