MODEL 1
REMARK VINA RESULT:      -5.0      0.000      0.000
REMARK  7 active torsions:
REMARK  status: ('A' for Active; 'I' for Inactive)
REMARK    1  A    between atoms: C_2  and  C_3 
REMARK    2  A    between atoms: C_3  and  O_6 
REMARK    3  A    between atoms: C_3  and  C_4 
REMARK    4  A    between atoms: C_7  and  O_6 
REMARK    5  A    between atoms: C_9  and  C_10 
REMARK    6  A    between atoms: N_15  and  C_14 
REMARK    7  A    between atoms: N_20  and  C_19 
REMARK       I    between atoms: C_22  and  N_20 
ROOT
ATOM      1  C   LIG d   1      -4.879  91.462 117.371  0.00  0.00     0.161 C 
ATOM      2  C   LIG d   1      -3.838  90.524 117.265  0.00  0.00     0.016 C 
ATOM      3  C   LIG d   1      -2.616  90.635 117.968  0.00  0.00     0.038 C 
ATOM      4  C   LIG d   1      -2.411  91.618 118.947  0.00  0.00     0.028 C 
ATOM      5  C   LIG d   1      -3.237  92.880 118.721  0.00  0.00    -0.047 C 
ATOM      6  C   LIG d   1      -4.717  92.481 118.519  0.00  0.00     0.091 C 
ENDROOT
BRANCH   1   7
ATOM      7  O   LIG d   1      -6.143  90.778 117.484  0.00  0.00    -0.368 OA
BRANCH   7   8
ATOM      8  C   LIG d   1      -6.804  90.451 116.237  0.00  0.00     0.119 C 
BRANCH   8   9
ATOM      9  C   LIG d   1      -7.193  91.779 115.557  0.00  0.00     0.028 C 
ATOM     10  C   LIG d   1      -6.568  91.928 114.160  0.00  0.00     0.006 C 
ENDBRANCH   8   9
BRANCH   8  11
ATOM     11  C   LIG d   1      -8.126  89.719 116.482  0.00  0.00     0.028 C 
ATOM     12  C   LIG d   1      -9.035  89.699 115.243  0.00  0.00     0.006 C 
ENDBRANCH   8  11
ENDBRANCH   7   8
ENDBRANCH   1   7
BRANCH   6  13
ATOM     13  N   LIG d   1      -5.581  93.649 118.208  0.00  0.00    -0.311 N 
ATOM     14  C   LIG d   1      -6.770  93.852 118.773  0.00  0.00     0.210 C 
ATOM     15  C   LIG d   1      -7.507  95.108 118.296  0.00  0.00     0.109 C 
ATOM     16  O   LIG d   1      -7.271  93.128 119.646  0.00  0.00    -0.276 OA
ATOM     17  H   LIG d   1      -5.238  94.304 117.532  0.00  0.00     0.149 HD
ENDBRANCH   6  13
BRANCH   5  18
ATOM     18  N   LIG d   1      -3.030  93.762 119.885  0.00  0.00     0.381 N 
ATOM     19  H   LIG d   1      -2.822  93.212 120.695  0.00  0.00    -0.090 HD
ATOM     20  H   LIG d   1      -3.878  94.273 120.061  0.00  0.00    -0.090 HD
ATOM     21  H   LIG d   1      -2.284  94.396 119.704  0.00  0.00    -0.090 HD
ENDBRANCH   5  18
BRANCH   3  22
ATOM     22  C   LIG d   1      -1.569  89.779 117.664  0.00  0.00     0.382 C 
ATOM     23  O   LIG d   1      -1.622  88.575 118.013  0.00  0.00    -0.241 OA
ATOM     24  O   LIG d   1      -0.552  90.205 117.085  0.00  0.00    -0.241 OA
ENDBRANCH   3  22
TORSDOF 7
ENDMDL
MODEL 2
REMARK VINA RESULT:      -4.8      2.257      4.765
REMARK  7 active torsions:
REMARK  status: ('A' for Active; 'I' for Inactive)
REMARK    1  A    between atoms: C_2  and  C_3 
REMARK    2  A    between atoms: C_3  and  O_6 
REMARK    3  A    between atoms: C_3  and  C_4 
REMARK    4  A    between atoms: C_7  and  O_6 
REMARK    5  A    between atoms: C_9  and  C_10 
REMARK    6  A    between atoms: N_15  and  C_14 
REMARK    7  A    between atoms: N_20  and  C_19 
REMARK       I    between atoms: C_22  and  N_20 
ROOT
ATOM      1  C   LIG d   1      -4.079  91.423 117.330  0.00  0.00     0.161 C 
ATOM      2  C   LIG d   1      -3.141  92.313 117.880  0.00  0.00     0.016 C 
ATOM      3  C   LIG d   1      -3.489  93.367 118.755  0.00  0.00     0.038 C 
ATOM      4  C   LIG d   1      -4.788  93.512 119.263  0.00  0.00     0.028 C 
ATOM      5  C   LIG d   1      -5.864  92.946 118.343  0.00  0.00    -0.047 C 
ATOM      6  C   LIG d   1      -5.486  91.497 117.960  0.00  0.00     0.091 C 
ENDROOT
BRANCH   1   7
ATOM      7  O   LIG d   1      -3.571  90.076 117.394  0.00  0.00    -0.368 OA
BRANCH   7   8
ATOM      8  C   LIG d   1      -2.633  89.799 118.462  0.00  0.00     0.119 C 
BRANCH   8   9
ATOM      9  C   LIG d   1      -1.531  88.888 117.886  0.00  0.00     0.028 C 
ATOM     10  C   LIG d   1      -0.167  89.595 117.807  0.00  0.00     0.006 C 
ENDBRANCH   8   9
BRANCH   8  11
ATOM     11  C   LIG d   1      -3.287  88.985 119.582  0.00  0.00     0.028 C 
ATOM     12  C   LIG d   1      -2.705  87.568 119.707  0.00  0.00     0.006 C 
ENDBRANCH   8  11
ENDBRANCH   7   8
ENDBRANCH   1   7
BRANCH   6  13
ATOM     13  N   LIG d   1      -6.443  90.897 116.994  0.00  0.00    -0.311 N 
ATOM     14  C   LIG d   1      -6.678  91.403 115.784  0.00  0.00     0.210 C 
ATOM     15  C   LIG d   1      -7.717  90.642 114.955  0.00  0.00     0.109 C 
ATOM     16  O   LIG d   1      -6.100  92.391 115.307  0.00  0.00    -0.276 OA
ATOM     17  H   LIG d   1      -6.933  90.075 117.288  0.00  0.00     0.149 HD
ENDBRANCH   6  13
BRANCH   5  18
ATOM     18  N   LIG d   1      -7.153  93.038 119.054  0.00  0.00     0.381 N 
ATOM     19  H   LIG d   1      -7.051  92.688 119.986  0.00  0.00    -0.090 HD
ATOM     20  H   LIG d   1      -7.830  92.469 118.577  0.00  0.00    -0.090 HD
ATOM     21  H   LIG d   1      -7.462  93.985 119.079  0.00  0.00    -0.090 HD
ENDBRANCH   5  18
BRANCH   3  22
ATOM     22  C   LIG d   1      -2.538  94.316 119.099  0.00  0.00     0.382 C 
ATOM     23  O   LIG d   1      -2.896  95.471 119.433  0.00  0.00    -0.241 OA
ATOM     24  O   LIG d   1      -1.324  94.044 119.039  0.00  0.00    -0.241 OA
ENDBRANCH   3  22
TORSDOF 7
ENDMDL
MODEL 3
REMARK VINA RESULT:      -4.6      2.298      6.214
REMARK  7 active torsions:
REMARK  status: ('A' for Active; 'I' for Inactive)
REMARK    1  A    between atoms: C_2  and  C_3 
REMARK    2  A    between atoms: C_3  and  O_6 
REMARK    3  A    between atoms: C_3  and  C_4 
REMARK    4  A    between atoms: C_7  and  O_6 
REMARK    5  A    between atoms: C_9  and  C_10 
REMARK    6  A    between atoms: N_15  and  C_14 
REMARK    7  A    between atoms: N_20  and  C_19 
REMARK       I    between atoms: C_22  and  N_20 
ROOT
ATOM      1  C   LIG d   1      -2.103  90.231 118.065  0.00  0.00     0.161 C 
ATOM      2  C   LIG d   1      -3.354  89.897 117.522  0.00  0.00     0.016 C 
ATOM      3  C   LIG d   1      -4.350  90.854 117.216  0.00  0.00     0.038 C 
ATOM      4  C   LIG d   1      -4.102  92.232 117.293  0.00  0.00     0.028 C 
ATOM      5  C   LIG d   1      -3.029  92.599 118.313  0.00  0.00    -0.047 C 
ATOM      6  C   LIG d   1      -1.772  91.738 118.052  0.00  0.00     0.091 C 
ENDROOT
BRANCH   1   7
ATOM      7  O   LIG d   1      -1.066  89.485 117.397  0.00  0.00    -0.368 OA
BRANCH   7   8
ATOM      8  C   LIG d   1      -0.072  88.868 118.253  0.00  0.00     0.119 C 
BRANCH   8   9
ATOM      9  C   LIG d   1       0.395  87.573 117.560  0.00  0.00     0.028 C 
ATOM     10  C   LIG d   1       1.918  87.377 117.650  0.00  0.00     0.006 C 
ENDBRANCH   8   9
BRANCH   8  11
ATOM     11  C   LIG d   1      -0.684  88.418 119.583  0.00  0.00     0.028 C 
ATOM     12  C   LIG d   1      -1.241  86.986 119.529  0.00  0.00     0.006 C 
ENDBRANCH   8  11
ENDBRANCH   7   8
ENDBRANCH   1   7
BRANCH   6  13
ATOM     13  N   LIG d   1      -0.704  91.974 119.058  0.00  0.00    -0.311 N 
ATOM     14  C   LIG d   1       0.525  92.375 118.741  0.00  0.00     0.210 C 
ATOM     15  C   LIG d   1       1.478  92.538 119.930  0.00  0.00     0.109 C 
ATOM     16  O   LIG d   1       0.908  92.643 117.593  0.00  0.00    -0.276 OA
ATOM     17  H   LIG d   1      -0.938  91.811 120.018  0.00  0.00     0.149 HD
ENDBRANCH   6  13
BRANCH   5  18
ATOM     18  N   LIG d   1      -2.774  94.047 118.191  0.00  0.00     0.381 N 
ATOM     19  H   LIG d   1      -3.234  94.536 118.932  0.00  0.00    -0.090 HD
ATOM     20  H   LIG d   1      -3.151  94.371 117.318  0.00  0.00    -0.090 HD
ATOM     21  H   LIG d   1      -1.794  94.224 118.223  0.00  0.00    -0.090 HD
ENDBRANCH   5  18
BRANCH   3  22
ATOM     22  C   LIG d   1      -5.624  90.432 116.867  0.00  0.00     0.382 C 
ATOM     23  O   LIG d   1      -5.817  89.873 115.760  0.00  0.00    -0.241 OA
ATOM     24  O   LIG d   1      -6.589  90.644 117.624  0.00  0.00    -0.241 OA
ENDBRANCH   3  22
TORSDOF 7
ENDMDL
MODEL 4
REMARK VINA RESULT:      -4.6      3.132      5.665
REMARK  7 active torsions:
REMARK  status: ('A' for Active; 'I' for Inactive)
REMARK    1  A    between atoms: C_2  and  C_3 
REMARK    2  A    between atoms: C_3  and  O_6 
REMARK    3  A    between atoms: C_3  and  C_4 
REMARK    4  A    between atoms: C_7  and  O_6 
REMARK    5  A    between atoms: C_9  and  C_10 
REMARK    6  A    between atoms: N_15  and  C_14 
REMARK    7  A    between atoms: N_20  and  C_19 
REMARK       I    between atoms: C_22  and  N_20 
ROOT
ATOM      1  C   LIG d   1      -0.157  90.993 117.243  0.00  0.00     0.161 C 
ATOM      2  C   LIG d   1       1.218  91.046 117.527  0.00  0.00     0.016 C 
ATOM      3  C   LIG d   1       1.796  91.997 118.400  0.00  0.00     0.038 C 
ATOM      4  C   LIG d   1       1.012  92.869 119.169  0.00  0.00     0.028 C 
ATOM      5  C   LIG d   1      -0.338  93.189 118.536  0.00  0.00    -0.047 C 
ATOM      6  C   LIG d   1      -1.041  91.865 118.158  0.00  0.00     0.091 C 
ENDROOT
BRANCH   1   7
ATOM      7  O   LIG d   1      -0.608  89.624 117.266  0.00  0.00    -0.368 OA
BRANCH   7   8
ATOM      8  C   LIG d   1      -0.114  88.809 118.357  0.00  0.00     0.119 C 
BRANCH   8   9
ATOM      9  C   LIG d   1       0.297  87.446 117.768  0.00  0.00     0.028 C 
ATOM     10  C   LIG d   1       1.684  87.488 117.103  0.00  0.00     0.006 C 
ENDBRANCH   8   9
BRANCH   8  11
ATOM     11  C   LIG d   1      -1.223  88.496 119.366  0.00  0.00     0.028 C 
ATOM     12  C   LIG d   1      -2.622  88.490 118.730  0.00  0.00     0.006 C 
ENDBRANCH   8  11
ENDBRANCH   7   8
ENDBRANCH   1   7
BRANCH   6  13
ATOM     13  N   LIG d   1      -2.332  92.089 117.456  0.00  0.00    -0.311 N 
ATOM     14  C   LIG d   1      -3.514  92.059 118.069  0.00  0.00     0.210 C 
ATOM     15  C   LIG d   1      -4.721  92.296 117.156  0.00  0.00     0.109 C 
ATOM     16  O   LIG d   1      -3.675  91.892 119.287  0.00  0.00    -0.276 OA
ATOM     17  H   LIG d   1      -2.291  92.263 116.471  0.00  0.00     0.149 HD
ENDBRANCH   6  13
BRANCH   5  18
ATOM     18  N   LIG d   1      -1.105  93.994 119.505  0.00  0.00     0.381 N 
ATOM     19  H   LIG d   1      -1.743  93.407 120.005  0.00  0.00    -0.090 HD
ATOM     20  H   LIG d   1      -1.638  94.684 119.005  0.00  0.00    -0.090 HD
ATOM     21  H   LIG d   1      -0.485  94.442 120.144  0.00  0.00    -0.090 HD
ENDBRANCH   5  18
BRANCH   3  22
ATOM     22  C   LIG d   1       3.175  92.108 118.479  0.00  0.00     0.382 C 
ATOM     23  O   LIG d   1       3.859  92.193 117.430  0.00  0.00    -0.241 OA
ATOM     24  O   LIG d   1       3.749  92.079 119.584  0.00  0.00    -0.241 OA
ENDBRANCH   3  22
TORSDOF 7
ENDMDL
MODEL 5
REMARK VINA RESULT:      -4.6      6.485      8.980
REMARK  7 active torsions:
REMARK  status: ('A' for Active; 'I' for Inactive)
REMARK    1  A    between atoms: C_2  and  C_3 
REMARK    2  A    between atoms: C_3  and  O_6 
REMARK    3  A    between atoms: C_3  and  C_4 
REMARK    4  A    between atoms: C_7  and  O_6 
REMARK    5  A    between atoms: C_9  and  C_10 
REMARK    6  A    between atoms: N_15  and  C_14 
REMARK    7  A    between atoms: N_20  and  C_19 
REMARK       I    between atoms: C_22  and  N_20 
ROOT
ATOM      1  C   LIG d   1       2.646  89.558 116.510  0.00  0.00     0.161 C 
ATOM      2  C   LIG d   1       2.665  89.206 115.150  0.00  0.00     0.016 C 
ATOM      3  C   LIG d   1       3.850  88.905 114.440  0.00  0.00     0.038 C 
ATOM      4  C   LIG d   1       5.090  88.787 115.085  0.00  0.00     0.028 C 
ATOM      5  C   LIG d   1       5.196  89.627 116.354  0.00  0.00    -0.047 C 
ATOM      6  C   LIG d   1       3.977  89.327 117.256  0.00  0.00     0.091 C 
ENDROOT
BRANCH   1   7
ATOM      7  O   LIG d   1       1.571  88.869 117.178  0.00  0.00    -0.368 OA
BRANCH   7   8
ATOM      8  C   LIG d   1       0.583  89.707 117.827  0.00  0.00     0.119 C 
BRANCH   8   9
ATOM      9  C   LIG d   1      -0.791  89.034 117.637  0.00  0.00     0.028 C 
ATOM     10  C   LIG d   1      -1.104  88.016 118.747  0.00  0.00     0.006 C 
ENDBRANCH   8   9
BRANCH   8  11
ATOM     11  C   LIG d   1       0.466  91.068 117.135  0.00  0.00     0.028 C 
ATOM     12  C   LIG d   1       0.373  92.236 118.130  0.00  0.00     0.006 C 
ENDBRANCH   8  11
ENDBRANCH   7   8
ENDBRANCH   1   7
BRANCH   6  13
ATOM     13  N   LIG d   1       3.958  90.168 118.481  0.00  0.00    -0.311 N 
ATOM     14  C   LIG d   1       3.942  91.500 118.455  0.00  0.00     0.210 C 
ATOM     15  C   LIG d   1       3.944  92.173 119.831  0.00  0.00     0.109 C 
ATOM     16  O   LIG d   1       3.894  92.187 117.424  0.00  0.00    -0.276 OA
ATOM     17  H   LIG d   1       3.964  89.692 119.361  0.00  0.00     0.149 HD
ENDBRANCH   6  13
BRANCH   5  18
ATOM     18  N   LIG d   1       6.484  89.304 116.996  0.00  0.00     0.381 N 
ATOM     19  H   LIG d   1       6.750  88.367 116.768  0.00  0.00    -0.090 HD
ATOM     20  H   LIG d   1       6.375  89.367 117.993  0.00  0.00    -0.090 HD
ATOM     21  H   LIG d   1       7.186  89.941 116.690  0.00  0.00    -0.090 HD
ENDBRANCH   5  18
BRANCH   3  22
ATOM     22  C   LIG d   1       3.807  88.757 113.062  0.00  0.00     0.382 C 
ATOM     23  O   LIG d   1       4.846  88.445 112.432  0.00  0.00    -0.241 OA
ATOM     24  O   LIG d   1       2.753  88.975 112.436  0.00  0.00    -0.241 OA
ENDBRANCH   3  22
TORSDOF 7
ENDMDL
MODEL 6
REMARK VINA RESULT:      -4.5      2.378      6.376
REMARK  7 active torsions:
REMARK  status: ('A' for Active; 'I' for Inactive)
REMARK    1  A    between atoms: C_2  and  C_3 
REMARK    2  A    between atoms: C_3  and  O_6 
REMARK    3  A    between atoms: C_3  and  C_4 
REMARK    4  A    between atoms: C_7  and  O_6 
REMARK    5  A    between atoms: C_9  and  C_10 
REMARK    6  A    between atoms: N_15  and  C_14 
REMARK    7  A    between atoms: N_20  and  C_19 
REMARK       I    between atoms: C_22  and  N_20 
ROOT
ATOM      1  C   LIG d   1      -1.798  90.339 118.099  0.00  0.00     0.161 C 
ATOM      2  C   LIG d   1      -3.070  90.014 117.598  0.00  0.00     0.016 C 
ATOM      3  C   LIG d   1      -4.088  90.970 117.379  0.00  0.00     0.038 C 
ATOM      4  C   LIG d   1      -3.851  92.347 117.506  0.00  0.00     0.028 C 
ATOM      5  C   LIG d   1      -2.738  92.682 118.493  0.00  0.00    -0.047 C 
ATOM      6  C   LIG d   1      -1.485  91.849 118.138  0.00  0.00     0.091 C 
ENDROOT
BRANCH   1   7
ATOM      7  O   LIG d   1      -0.785  89.636 117.353  0.00  0.00    -0.368 OA
BRANCH   7   8
ATOM      8  C   LIG d   1      -0.445  88.311 117.832  0.00  0.00     0.119 C 
BRANCH   8   9
ATOM      9  C   LIG d   1      -0.520  88.342 119.371  0.00  0.00     0.028 C 
ATOM     10  C   LIG d   1      -1.522  87.317 119.930  0.00  0.00     0.006 C 
ENDBRANCH   8   9
BRANCH   8  11
ATOM     11  C   LIG d   1       1.008  87.956 117.504  0.00  0.00     0.028 C 
ATOM     12  C   LIG d   1       1.309  86.459 117.676  0.00  0.00     0.006 C 
ENDBRANCH   8  11
ENDBRANCH   7   8
ENDBRANCH   1   7
BRANCH   6  13
ATOM     13  N   LIG d   1      -0.376  92.054 119.105  0.00  0.00    -0.311 N 
ATOM     14  C   LIG d   1       0.894  92.219 118.740  0.00  0.00     0.210 C 
ATOM     15  C   LIG d   1       1.883  92.394 119.897  0.00  0.00     0.109 C 
ATOM     16  O   LIG d   1       1.292  92.270 117.566  0.00  0.00    -0.276 OA
ATOM     17  H   LIG d   1      -0.613  92.058 120.078  0.00  0.00     0.149 HD
ENDBRANCH   6  13
BRANCH   5  18
ATOM     18  N   LIG d   1      -2.504  94.137 118.424  0.00  0.00     0.381 N 
ATOM     19  H   LIG d   1      -1.548  94.337 118.640  0.00  0.00    -0.090 HD
ATOM     20  H   LIG d   1      -3.084  94.592 119.106  0.00  0.00    -0.090 HD
ATOM     21  H   LIG d   1      -2.723  94.475 117.512  0.00  0.00    -0.090 HD
ENDBRANCH   5  18
BRANCH   3  22
ATOM     22  C   LIG d   1      -5.372  90.549 117.068  0.00  0.00     0.382 C 
ATOM     23  O   LIG d   1      -5.624  90.097 115.925  0.00  0.00    -0.241 OA
ATOM     24  O   LIG d   1      -6.291  90.655 117.902  0.00  0.00    -0.241 OA
ENDBRANCH   3  22
TORSDOF 7
ENDMDL
MODEL 7
REMARK VINA RESULT:      -4.4      7.801     10.913
REMARK  7 active torsions:
REMARK  status: ('A' for Active; 'I' for Inactive)
REMARK    1  A    between atoms: C_2  and  C_3 
REMARK    2  A    between atoms: C_3  and  O_6 
REMARK    3  A    between atoms: C_3  and  C_4 
REMARK    4  A    between atoms: C_7  and  O_6 
REMARK    5  A    between atoms: C_9  and  C_10 
REMARK    6  A    between atoms: N_15  and  C_14 
REMARK    7  A    between atoms: N_20  and  C_19 
REMARK       I    between atoms: C_22  and  N_20 
ROOT
ATOM      1  C   LIG d   1       3.464  87.963 116.051  0.00  0.00     0.161 C 
ATOM      2  C   LIG d   1       2.521  89.000 116.147  0.00  0.00     0.016 C 
ATOM      3  C   LIG d   1       2.716  90.159 116.933  0.00  0.00     0.038 C 
ATOM      4  C   LIG d   1       3.940  90.431 117.562  0.00  0.00     0.028 C 
ATOM      5  C   LIG d   1       4.738  89.177 117.904  0.00  0.00    -0.047 C 
ATOM      6  C   LIG d   1       4.851  88.294 116.640  0.00  0.00     0.091 C 
ENDROOT
BRANCH   1   7
ATOM      7  O   LIG d   1       3.590  87.544 114.678  0.00  0.00    -0.368 OA
BRANCH   7   8
ATOM      8  C   LIG d   1       3.518  88.593 113.681  0.00  0.00     0.119 C 
BRANCH   8   9
ATOM      9  C   LIG d   1       2.756  88.027 112.468  0.00  0.00     0.028 C 
ATOM     10  C   LIG d   1       1.894  86.807 112.832  0.00  0.00     0.006 C 
ENDBRANCH   8   9
BRANCH   8  11
ATOM     11  C   LIG d   1       4.909  88.956 113.153  0.00  0.00     0.028 C 
ATOM     12  C   LIG d   1       5.786  87.723 112.887  0.00  0.00     0.006 C 
ENDBRANCH   8  11
ENDBRANCH   7   8
ENDBRANCH   1   7
BRANCH   6  13
ATOM     13  N   LIG d   1       5.545  87.008 116.908  0.00  0.00    -0.311 N 
ATOM     14  C   LIG d   1       6.860  86.842 116.778  0.00  0.00     0.210 C 
ATOM     15  C   LIG d   1       7.368  85.430 117.085  0.00  0.00     0.109 C 
ATOM     16  O   LIG d   1       7.658  87.740 116.468  0.00  0.00    -0.276 OA
ATOM     17  H   LIG d   1       4.976  86.234 117.195  0.00  0.00     0.149 HD
ENDBRANCH   6  13
BRANCH   5  18
ATOM     18  N   LIG d   1       6.047  89.611 118.426  0.00  0.00     0.381 N 
ATOM     19  H   LIG d   1       5.917  90.310 119.130  0.00  0.00    -0.090 HD
ATOM     20  H   LIG d   1       6.579  90.014 117.675  0.00  0.00    -0.090 HD
ATOM     21  H   LIG d   1       6.537  88.832 118.808  0.00  0.00    -0.090 HD
ENDBRANCH   5  18
BRANCH   3  22
ATOM     22  C   LIG d   1       1.664  91.041 117.130  0.00  0.00     0.382 C 
ATOM     23  O   LIG d   1       1.877  92.167 117.640  0.00  0.00    -0.241 OA
ATOM     24  O   LIG d   1       0.498  90.708 116.844  0.00  0.00    -0.241 OA
ENDBRANCH   3  22
TORSDOF 7
ENDMDL
MODEL 8
REMARK VINA RESULT:      -4.4      2.212      4.979
REMARK  7 active torsions:
REMARK  status: ('A' for Active; 'I' for Inactive)
REMARK    1  A    between atoms: C_2  and  C_3 
REMARK    2  A    between atoms: C_3  and  O_6 
REMARK    3  A    between atoms: C_3  and  C_4 
REMARK    4  A    between atoms: C_7  and  O_6 
REMARK    5  A    between atoms: C_9  and  C_10 
REMARK    6  A    between atoms: N_15  and  C_14 
REMARK    7  A    between atoms: N_20  and  C_19 
REMARK       I    between atoms: C_22  and  N_20 
ROOT
ATOM      1  C   LIG d   1      -5.851  92.975 118.051  0.00  0.00     0.161 C 
ATOM      2  C   LIG d   1      -6.507  92.439 116.929  0.00  0.00     0.016 C 
ATOM      3  C   LIG d   1      -5.994  91.364 116.168  0.00  0.00     0.038 C 
ATOM      4  C   LIG d   1      -4.857  90.647 116.569  0.00  0.00     0.028 C 
ATOM      5  C   LIG d   1      -3.887  91.471 117.410  0.00  0.00    -0.047 C 
ATOM      6  C   LIG d   1      -4.665  92.134 118.569  0.00  0.00     0.091 C 
ENDROOT
BRANCH   1   7
ATOM      7  O   LIG d   1      -6.802  93.205 119.109  0.00  0.00    -0.368 OA
BRANCH   7   8
ATOM      8  C   LIG d   1      -6.797  94.531 119.693  0.00  0.00     0.119 C 
BRANCH   8   9
ATOM      9  C   LIG d   1      -8.265  94.943 119.918  0.00  0.00     0.028 C 
ATOM     10  C   LIG d   1      -8.924  95.488 118.640  0.00  0.00     0.006 C 
ENDBRANCH   8   9
BRANCH   8  11
ATOM     11  C   LIG d   1      -6.230  95.567 118.718  0.00  0.00     0.028 C 
ATOM     12  C   LIG d   1      -5.431  96.674 119.423  0.00  0.00     0.006 C 
ENDBRANCH   8  11
ENDBRANCH   7   8
ENDBRANCH   1   7
BRANCH   6  13
ATOM     13  N   LIG d   1      -3.807  93.026 119.391  0.00  0.00    -0.311 N 
ATOM     14  C   LIG d   1      -2.754  93.681 118.906  0.00  0.00     0.210 C 
ATOM     15  C   LIG d   1      -1.994  94.531 119.929  0.00  0.00     0.109 C 
ATOM     16  O   LIG d   1      -2.396  93.664 117.719  0.00  0.00    -0.276 OA
ATOM     17  H   LIG d   1      -4.045  93.122 120.359  0.00  0.00     0.149 HD
ENDBRANCH   6  13
BRANCH   5  18
ATOM     18  N   LIG d   1      -2.819  90.566 117.874  0.00  0.00     0.381 N 
ATOM     19  H   LIG d   1      -3.193  89.650 118.025  0.00  0.00    -0.090 HD
ATOM     20  H   LIG d   1      -2.459  90.908 118.747  0.00  0.00    -0.090 HD
ATOM     21  H   LIG d   1      -2.088  90.526 117.198  0.00  0.00    -0.090 HD
ENDBRANCH   5  18
BRANCH   3  22
ATOM     22  C   LIG d   1      -6.599  91.021 114.968  0.00  0.00     0.382 C 
ATOM     23  O   LIG d   1      -7.196  89.923 114.859  0.00  0.00    -0.241 OA
ATOM     24  O   LIG d   1      -6.518  91.777 113.981  0.00  0.00    -0.241 OA
ENDBRANCH   3  22
TORSDOF 7
ENDMDL
MODEL 9
REMARK VINA RESULT:      -4.3      3.187      5.602
REMARK  7 active torsions:
REMARK  status: ('A' for Active; 'I' for Inactive)
REMARK    1  A    between atoms: C_2  and  C_3 
REMARK    2  A    between atoms: C_3  and  O_6 
REMARK    3  A    between atoms: C_3  and  C_4 
REMARK    4  A    between atoms: C_7  and  O_6 
REMARK    5  A    between atoms: C_9  and  C_10 
REMARK    6  A    between atoms: N_15  and  C_14 
REMARK    7  A    between atoms: N_20  and  C_19 
REMARK       I    between atoms: C_22  and  N_20 
ROOT
ATOM      1  C   LIG d   1      -0.489  90.216 118.172  0.00  0.00     0.161 C 
ATOM      2  C   LIG d   1       0.900  90.306 118.363  0.00  0.00     0.016 C 
ATOM      3  C   LIG d   1       1.630  91.508 118.212  0.00  0.00     0.038 C 
ATOM      4  C   LIG d   1       0.994  92.741 118.005  0.00  0.00     0.028 C 
ATOM      5  C   LIG d   1      -0.356  92.616 117.307  0.00  0.00    -0.047 C 
ATOM      6  C   LIG d   1      -1.215  91.573 118.056  0.00  0.00     0.091 C 
ENDROOT
BRANCH   1   7
ATOM      7  O   LIG d   1      -1.076  89.422 119.223  0.00  0.00    -0.368 OA
BRANCH   7   8
ATOM      8  C   LIG d   1      -1.393  88.050 118.883  0.00  0.00     0.119 C 
BRANCH   8   9
ATOM      9  C   LIG d   1      -2.838  87.780 119.347  0.00  0.00     0.028 C 
ATOM     10  C   LIG d   1      -3.510  89.035 119.930  0.00  0.00     0.006 C 
ENDBRANCH   8   9
BRANCH   8  11
ATOM     11  C   LIG d   1      -0.524  87.065 119.670  0.00  0.00     0.028 C 
ATOM     12  C   LIG d   1       0.499  86.334 118.785  0.00  0.00     0.006 C 
ENDBRANCH   8  11
ENDBRANCH   7   8
ENDBRANCH   1   7
BRANCH   6  13
ATOM     13  N   LIG d   1      -2.520  91.328 117.389  0.00  0.00    -0.311 N 
ATOM     14  C   LIG d   1      -3.629  92.007 117.676  0.00  0.00     0.210 C 
ATOM     15  C   LIG d   1      -4.871  91.583 116.886  0.00  0.00     0.109 C 
ATOM     16  O   LIG d   1      -3.695  92.943 118.488  0.00  0.00    -0.276 OA
ATOM     17  H   LIG d   1      -2.550  90.607 116.695  0.00  0.00     0.149 HD
ENDBRANCH   6  13
BRANCH   5  18
ATOM     18  N   LIG d   1      -0.969  93.958 117.280  0.00  0.00     0.381 N 
ATOM     19  H   LIG d   1      -0.501  94.557 117.929  0.00  0.00    -0.090 HD
ATOM     20  H   LIG d   1      -1.931  93.881 117.559  0.00  0.00    -0.090 HD
ATOM     21  H   LIG d   1      -0.912  94.341 116.362  0.00  0.00    -0.090 HD
ENDBRANCH   5  18
BRANCH   3  22
ATOM     22  C   LIG d   1       3.016  91.476 118.227  0.00  0.00     0.382 C 
ATOM     23  O   LIG d   1       3.668  92.179 117.417  0.00  0.00    -0.241 OA
ATOM     24  O   LIG d   1       3.622  90.720 119.009  0.00  0.00    -0.241 OA
ENDBRANCH   3  22
TORSDOF 7
ENDMDL
