MODEL 1
REMARK VINA RESULT:      -5.1      0.000      0.000
REMARK  7 active torsions:
REMARK  status: ('A' for Active; 'I' for Inactive)
REMARK    1  A    between atoms: C_2  and  C_3 
REMARK    2  A    between atoms: C_3  and  O_6 
REMARK    3  A    between atoms: C_3  and  C_4 
REMARK    4  A    between atoms: C_7  and  O_6 
REMARK    5  A    between atoms: C_9  and  C_10 
REMARK    6  A    between atoms: N_15  and  C_14 
REMARK    7  A    between atoms: N_20  and  C_19 
REMARK       I    between atoms: C_22  and  N_20 
ROOT
ATOM      1  C   LIG d   1       4.619  89.562 116.297  0.00  0.00     0.161 C 
ATOM      2  C   LIG d   1       3.457  90.006 115.643  0.00  0.00     0.016 C 
ATOM      3  C   LIG d   1       3.328  90.060 114.236  0.00  0.00     0.038 C 
ATOM      4  C   LIG d   1       4.305  89.527 113.381  0.00  0.00     0.028 C 
ATOM      5  C   LIG d   1       5.705  89.532 113.984  0.00  0.00    -0.047 C 
ATOM      6  C   LIG d   1       5.652  88.873 115.381  0.00  0.00     0.091 C 
ENDROOT
BRANCH   1   7
ATOM      7  O   LIG d   1       4.262  88.695 117.391  0.00  0.00    -0.368 OA
BRANCH   7   8
ATOM      8  C   LIG d   1       3.014  87.972 117.252  0.00  0.00     0.119 C 
BRANCH   8   9
ATOM      9  C   LIG d   1       2.269  88.071 118.596  0.00  0.00     0.028 C 
ATOM     10  C   LIG d   1       0.956  88.864 118.482  0.00  0.00     0.006 C 
ENDBRANCH   8   9
BRANCH   8  11
ATOM     11  C   LIG d   1       3.259  86.476 117.033  0.00  0.00     0.028 C 
ATOM     12  C   LIG d   1       3.238  86.079 115.548  0.00  0.00     0.006 C 
ENDBRANCH   8  11
ENDBRANCH   7   8
ENDBRANCH   1   7
BRANCH   6  13
ATOM     13  N   LIG d   1       6.965  88.912 116.077  0.00  0.00    -0.311 N 
ATOM     14  C   LIG d   1       7.489  87.865 116.713  0.00  0.00     0.210 C 
ATOM     15  C   LIG d   1       8.844  88.126 117.380  0.00  0.00     0.109 C 
ATOM     16  O   LIG d   1       6.977  86.737 116.760  0.00  0.00    -0.276 OA
ATOM     17  H   LIG d   1       7.464  89.780 116.061  0.00  0.00     0.149 HD
ENDBRANCH   6  13
BRANCH   5  18
ATOM     18  N   LIG d   1       6.597  88.825 113.045  0.00  0.00     0.381 N 
ATOM     19  H   LIG d   1       6.421  87.841 113.086  0.00  0.00    -0.090 HD
ATOM     20  H   LIG d   1       7.551  88.987 113.318  0.00  0.00    -0.090 HD
ATOM     21  H   LIG d   1       6.449  89.158 112.118  0.00  0.00    -0.090 HD
ENDBRANCH   5  18
BRANCH   3  22
ATOM     22  C   LIG d   1       2.230  90.688 113.670  0.00  0.00     0.382 C 
ATOM     23  O   LIG d   1       2.331  91.235 112.545  0.00  0.00    -0.241 OA
ATOM     24  O   LIG d   1       1.151  90.753 114.289  0.00  0.00    -0.241 OA
ENDBRANCH   3  22
TORSDOF 7
ENDMDL
MODEL 2
REMARK VINA RESULT:      -5.0      1.542      2.339
REMARK  7 active torsions:
REMARK  status: ('A' for Active; 'I' for Inactive)
REMARK    1  A    between atoms: C_2  and  C_3 
REMARK    2  A    between atoms: C_3  and  O_6 
REMARK    3  A    between atoms: C_3  and  C_4 
REMARK    4  A    between atoms: C_7  and  O_6 
REMARK    5  A    between atoms: C_9  and  C_10 
REMARK    6  A    between atoms: N_15  and  C_14 
REMARK    7  A    between atoms: N_20  and  C_19 
REMARK       I    between atoms: C_22  and  N_20 
ROOT
ATOM      1  C   LIG d   1       4.673  89.769 116.298  0.00  0.00     0.161 C 
ATOM      2  C   LIG d   1       3.507  90.187 115.636  0.00  0.00     0.016 C 
ATOM      3  C   LIG d   1       3.344  90.127 114.233  0.00  0.00     0.038 C 
ATOM      4  C   LIG d   1       4.286  89.501 113.404  0.00  0.00     0.028 C 
ATOM      5  C   LIG d   1       5.701  89.520 113.972  0.00  0.00    -0.047 C 
ATOM      6  C   LIG d   1       5.668  88.980 115.420  0.00  0.00     0.091 C 
ENDROOT
BRANCH   1   7
ATOM      7  O   LIG d   1       4.324  89.005 117.469  0.00  0.00    -0.368 OA
BRANCH   7   8
ATOM      8  C   LIG d   1       4.605  89.630 118.745  0.00  0.00     0.119 C 
BRANCH   8   9
ATOM      9  C   LIG d   1       3.254  89.958 119.409  0.00  0.00     0.028 C 
ATOM     10  C   LIG d   1       2.835  91.423 119.196  0.00  0.00     0.006 C 
ENDBRANCH   8   9
BRANCH   8  11
ATOM     11  C   LIG d   1       5.305  90.980 118.562  0.00  0.00     0.028 C 
ATOM     12  C   LIG d   1       6.715  91.009 119.173  0.00  0.00     0.006 C 
ENDBRANCH   8  11
ENDBRANCH   7   8
ENDBRANCH   1   7
BRANCH   6  13
ATOM     13  N   LIG d   1       6.998  89.043 116.080  0.00  0.00    -0.311 N 
ATOM     14  C   LIG d   1       7.507  88.045 116.800  0.00  0.00     0.210 C 
ATOM     15  C   LIG d   1       8.885  88.325 117.409  0.00  0.00     0.109 C 
ATOM     16  O   LIG d   1       6.963  86.943 116.965  0.00  0.00    -0.276 OA
ATOM     17  H   LIG d   1       7.521  89.890 115.971  0.00  0.00     0.149 HD
ENDBRANCH   6  13
BRANCH   5  18
ATOM     18  N   LIG d   1       6.553  88.716 113.075  0.00  0.00     0.381 N 
ATOM     19  H   LIG d   1       7.375  88.421 113.563  0.00  0.00    -0.090 HD
ATOM     20  H   LIG d   1       6.834  89.285 112.297  0.00  0.00    -0.090 HD
ATOM     21  H   LIG d   1       6.049  87.921 112.749  0.00  0.00    -0.090 HD
ENDBRANCH   5  18
BRANCH   3  22
ATOM     22  C   LIG d   1       2.247  90.735 113.642  0.00  0.00     0.382 C 
ATOM     23  O   LIG d   1       1.140  90.740 114.232  0.00  0.00    -0.241 OA
ATOM     24  O   LIG d   1       2.339  91.238 112.506  0.00  0.00    -0.241 OA
ENDBRANCH   3  22
TORSDOF 7
ENDMDL
MODEL 3
REMARK VINA RESULT:      -4.7      4.512      6.771
REMARK  7 active torsions:
REMARK  status: ('A' for Active; 'I' for Inactive)
REMARK    1  A    between atoms: C_2  and  C_3 
REMARK    2  A    between atoms: C_3  and  O_6 
REMARK    3  A    between atoms: C_3  and  C_4 
REMARK    4  A    between atoms: C_7  and  O_6 
REMARK    5  A    between atoms: C_9  and  C_10 
REMARK    6  A    between atoms: N_15  and  C_14 
REMARK    7  A    between atoms: N_20  and  C_19 
REMARK       I    between atoms: C_22  and  N_20 
ROOT
ATOM      1  C   LIG d   1      -0.259  90.694 117.443  0.00  0.00     0.161 C 
ATOM      2  C   LIG d   1      -1.603  90.293 117.361  0.00  0.00     0.016 C 
ATOM      3  C   LIG d   1      -2.650  90.928 118.069  0.00  0.00     0.038 C 
ATOM      4  C   LIG d   1      -2.442  92.111 118.794  0.00  0.00     0.028 C 
ATOM      5  C   LIG d   1      -1.017  92.261 119.314  0.00  0.00    -0.047 C 
ATOM      6  C   LIG d   1      -0.031  92.050 118.142  0.00  0.00     0.091 C 
ENDROOT
BRANCH   1   7
ATOM      7  O   LIG d   1       0.329  90.702 116.128  0.00  0.00    -0.368 OA
BRANCH   7   8
ATOM      8  C   LIG d   1       1.226  89.606 115.823  0.00  0.00     0.119 C 
BRANCH   8   9
ATOM      9  C   LIG d   1       1.563  88.902 117.152  0.00  0.00     0.028 C 
ATOM     10  C   LIG d   1       3.066  88.945 117.474  0.00  0.00     0.006 C 
ENDBRANCH   8   9
BRANCH   8  11
ATOM     11  C   LIG d   1       2.566  90.116 115.284  0.00  0.00     0.028 C 
ATOM     12  C   LIG d   1       2.534  90.388 113.771  0.00  0.00     0.006 C 
ENDBRANCH   8  11
ENDBRANCH   7   8
ENDBRANCH   1   7
BRANCH   6  13
ATOM     13  N   LIG d   1       1.389  92.097 118.580  0.00  0.00    -0.311 N 
ATOM     14  C   LIG d   1       2.351  92.702 117.885  0.00  0.00     0.210 C 
ATOM     15  C   LIG d   1       3.749  92.614 118.506  0.00  0.00     0.109 C 
ATOM     16  O   LIG d   1       2.174  93.330 116.831  0.00  0.00    -0.276 OA
ATOM     17  H   LIG d   1       1.616  91.639 119.441  0.00  0.00     0.149 HD
ENDBRANCH   6  13
BRANCH   5  18
ATOM     18  N   LIG d   1      -0.905  93.597 119.930  0.00  0.00     0.381 N 
ATOM     19  H   LIG d   1       0.059  93.849 120.021  0.00  0.00    -0.090 HD
ATOM     20  H   LIG d   1      -1.311  93.566 120.849  0.00  0.00    -0.090 HD
ATOM     21  H   LIG d   1      -1.381  94.271 119.371  0.00  0.00    -0.090 HD
ENDBRANCH   5  18
BRANCH   3  22
ATOM     22  C   LIG d   1      -3.913  90.357 118.087  0.00  0.00     0.382 C 
ATOM     23  O   LIG d   1      -4.787  90.743 117.274  0.00  0.00    -0.241 OA
ATOM     24  O   LIG d   1      -4.203  89.492 118.935  0.00  0.00    -0.241 OA
ENDBRANCH   3  22
TORSDOF 7
ENDMDL
MODEL 4
REMARK VINA RESULT:      -4.5      1.879      2.388
REMARK  7 active torsions:
REMARK  status: ('A' for Active; 'I' for Inactive)
REMARK    1  A    between atoms: C_2  and  C_3 
REMARK    2  A    between atoms: C_3  and  O_6 
REMARK    3  A    between atoms: C_3  and  C_4 
REMARK    4  A    between atoms: C_7  and  O_6 
REMARK    5  A    between atoms: C_9  and  C_10 
REMARK    6  A    between atoms: N_15  and  C_14 
REMARK    7  A    between atoms: N_20  and  C_19 
REMARK       I    between atoms: C_22  and  N_20 
ROOT
ATOM      1  C   LIG d   1       3.610  90.820 116.674  0.00  0.00     0.161 C 
ATOM      2  C   LIG d   1       2.928  90.705 115.451  0.00  0.00     0.016 C 
ATOM      3  C   LIG d   1       3.406  89.940 114.362  0.00  0.00     0.038 C 
ATOM      4  C   LIG d   1       4.532  89.111 114.476  0.00  0.00     0.028 C 
ATOM      5  C   LIG d   1       5.531  89.587 115.525  0.00  0.00    -0.047 C 
ATOM      6  C   LIG d   1       4.783  89.834 116.855  0.00  0.00     0.091 C 
ENDROOT
BRANCH   1   7
ATOM      7  O   LIG d   1       2.679  90.696 117.767  0.00  0.00    -0.368 OA
BRANCH   7   8
ATOM      8  C   LIG d   1       1.437  90.010 117.472  0.00  0.00     0.119 C 
BRANCH   8   9
ATOM      9  C   LIG d   1       0.295  90.828 118.105  0.00  0.00     0.028 C 
ATOM     10  C   LIG d   1      -1.091  90.377 117.615  0.00  0.00     0.006 C 
ENDBRANCH   8   9
BRANCH   8  11
ATOM     11  C   LIG d   1       1.382  88.640 118.154  0.00  0.00     0.028 C 
ATOM     12  C   LIG d   1       1.874  87.502 117.247  0.00  0.00     0.006 C 
ENDBRANCH   8  11
ENDBRANCH   7   8
ENDBRANCH   1   7
BRANCH   6  13
ATOM     13  N   LIG d   1       5.673  90.383 117.912  0.00  0.00    -0.311 N 
ATOM     14  C   LIG d   1       6.291  89.625 118.816  0.00  0.00     0.210 C 
ATOM     15  C   LIG d   1       7.145  90.393 119.829  0.00  0.00     0.109 C 
ATOM     16  O   LIG d   1       6.238  88.386 118.855  0.00  0.00    -0.276 OA
ATOM     17  H   LIG d   1       5.796  91.376 117.933  0.00  0.00     0.149 HD
ENDBRANCH   6  13
BRANCH   5  18
ATOM     18  N   LIG d   1       6.584  88.561 115.635  0.00  0.00     0.381 N 
ATOM     19  H   LIG d   1       6.215  87.743 116.077  0.00  0.00    -0.090 HD
ATOM     20  H   LIG d   1       7.329  88.919 116.207  0.00  0.00    -0.090 HD
ATOM     21  H   LIG d   1       6.932  88.330 114.730  0.00  0.00    -0.090 HD
ENDBRANCH   5  18
BRANCH   3  22
ATOM     22  C   LIG d   1       2.777  90.031 113.130  0.00  0.00     0.382 C 
ATOM     23  O   LIG d   1       2.336  91.137 112.731  0.00  0.00    -0.241 OA
ATOM     24  O   LIG d   1       2.605  89.015 112.431  0.00  0.00    -0.241 OA
ENDBRANCH   3  22
TORSDOF 7
ENDMDL
MODEL 5
REMARK VINA RESULT:      -4.4      3.464      5.383
REMARK  7 active torsions:
REMARK  status: ('A' for Active; 'I' for Inactive)
REMARK    1  A    between atoms: C_2  and  C_3 
REMARK    2  A    between atoms: C_3  and  O_6 
REMARK    3  A    between atoms: C_3  and  C_4 
REMARK    4  A    between atoms: C_7  and  O_6 
REMARK    5  A    between atoms: C_9  and  C_10 
REMARK    6  A    between atoms: N_15  and  C_14 
REMARK    7  A    between atoms: N_20  and  C_19 
REMARK       I    between atoms: C_22  and  N_20 
ROOT
ATOM      1  C   LIG d   1       3.777  89.727 117.156  0.00  0.00     0.161 C 
ATOM      2  C   LIG d   1       3.973  88.571 116.382  0.00  0.00     0.016 C 
ATOM      3  C   LIG d   1       2.984  88.029 115.529  0.00  0.00     0.038 C 
ATOM      4  C   LIG d   1       1.776  88.695 115.276  0.00  0.00     0.028 C 
ATOM      5  C   LIG d   1       1.333  89.600 116.421  0.00  0.00    -0.047 C 
ATOM      6  C   LIG d   1       2.505  90.529 116.809  0.00  0.00     0.091 C 
ENDROOT
BRANCH   1   7
ATOM      7  O   LIG d   1       4.941  90.573 117.075  0.00  0.00    -0.368 OA
BRANCH   7   8
ATOM      8  C   LIG d   1       5.780  90.617 118.256  0.00  0.00     0.119 C 
BRANCH   8   9
ATOM      9  C   LIG d   1       5.667  92.033 118.851  0.00  0.00     0.028 C 
ATOM     10  C   LIG d   1       7.032  92.732 118.966  0.00  0.00     0.006 C 
ENDBRANCH   8   9
BRANCH   8  11
ATOM     11  C   LIG d   1       7.258  90.445 117.895  0.00  0.00     0.028 C 
ATOM     12  C   LIG d   1       7.574  89.055 117.321  0.00  0.00     0.006 C 
ENDBRANCH   8  11
ENDBRANCH   7   8
ENDBRANCH   1   7
BRANCH   6  13
ATOM     13  N   LIG d   1       2.184  91.390 117.977  0.00  0.00    -0.311 N 
ATOM     14  C   LIG d   1       2.155  92.720 117.922  0.00  0.00     0.210 C 
ATOM     15  C   LIG d   1       1.821  93.415 119.246  0.00  0.00     0.109 C 
ATOM     16  O   LIG d   1       2.342  93.390 116.895  0.00  0.00    -0.276 OA
ATOM     17  H   LIG d   1       1.988  90.928 118.844  0.00  0.00     0.149 HD
ENDBRANCH   6  13
BRANCH   5  18
ATOM     18  N   LIG d   1       0.136  90.336 115.970  0.00  0.00     0.381 N 
ATOM     19  H   LIG d   1      -0.127  90.026 115.056  0.00  0.00    -0.090 HD
ATOM     20  H   LIG d   1       0.357  91.315 115.919  0.00  0.00    -0.090 HD
ATOM     21  H   LIG d   1      -0.615  90.190 116.608  0.00  0.00    -0.090 HD
ENDBRANCH   5  18
BRANCH   3  22
ATOM     22  C   LIG d   1       3.184  86.785 114.949  0.00  0.00     0.382 C 
ATOM     23  O   LIG d   1       4.065  86.638 114.068  0.00  0.00    -0.241 OA
ATOM     24  O   LIG d   1       2.465  85.818 115.264  0.00  0.00    -0.241 OA
ENDBRANCH   3  22
TORSDOF 7
ENDMDL
MODEL 6
REMARK VINA RESULT:      -4.2      2.177      3.613
REMARK  7 active torsions:
REMARK  status: ('A' for Active; 'I' for Inactive)
REMARK    1  A    between atoms: C_2  and  C_3 
REMARK    2  A    between atoms: C_3  and  O_6 
REMARK    3  A    between atoms: C_3  and  C_4 
REMARK    4  A    between atoms: C_7  and  O_6 
REMARK    5  A    between atoms: C_9  and  C_10 
REMARK    6  A    between atoms: N_15  and  C_14 
REMARK    7  A    between atoms: N_20  and  C_19 
REMARK       I    between atoms: C_22  and  N_20 
ROOT
ATOM      1  C   LIG d   1       4.350  87.800 116.189  0.00  0.00     0.161 C 
ATOM      2  C   LIG d   1       3.152  88.337 115.690  0.00  0.00     0.016 C 
ATOM      3  C   LIG d   1       2.726  89.660 115.945  0.00  0.00     0.038 C 
ATOM      4  C   LIG d   1       3.548  90.591 116.597  0.00  0.00     0.028 C 
ATOM      5  C   LIG d   1       4.547  89.951 117.555  0.00  0.00    -0.047 C 
ATOM      6  C   LIG d   1       5.313  88.835 116.809  0.00  0.00     0.091 C 
ENDROOT
BRANCH   1   7
ATOM      7  O   LIG d   1       5.019  87.051 115.155  0.00  0.00    -0.368 OA
BRANCH   7   8
ATOM      8  C   LIG d   1       4.653  87.379 113.792  0.00  0.00     0.119 C 
BRANCH   8   9
ATOM      9  C   LIG d   1       4.494  86.053 113.023  0.00  0.00     0.028 C 
ATOM     10  C   LIG d   1       3.032  85.767 112.643  0.00  0.00     0.006 C 
ENDBRANCH   8   9
BRANCH   8  11
ATOM     11  C   LIG d   1       5.781  88.130 113.078  0.00  0.00     0.028 C 
ATOM     12  C   LIG d   1       5.755  89.642 113.349  0.00  0.00     0.006 C 
ENDBRANCH   8  11
ENDBRANCH   7   8
ENDBRANCH   1   7
BRANCH   6  13
ATOM     13  N   LIG d   1       6.251  88.100 117.697  0.00  0.00    -0.311 N 
ATOM     14  C   LIG d   1       7.540  88.412 117.820  0.00  0.00     0.210 C 
ATOM     15  C   LIG d   1       8.335  87.514 118.774  0.00  0.00     0.109 C 
ATOM     16  O   LIG d   1       8.094  89.367 117.255  0.00  0.00    -0.276 OA
ATOM     17  H   LIG d   1       5.879  87.330 118.217  0.00  0.00     0.149 HD
ENDBRANCH   6  13
BRANCH   5  18
ATOM     18  N   LIG d   1       5.429  91.020 118.060  0.00  0.00     0.381 N 
ATOM     19  H   LIG d   1       6.179  90.620 118.588  0.00  0.00    -0.090 HD
ATOM     20  H   LIG d   1       4.899  91.619 118.668  0.00  0.00    -0.090 HD
ATOM     21  H   LIG d   1       5.795  91.548 117.298  0.00  0.00    -0.090 HD
ENDBRANCH   5  18
BRANCH   3  22
ATOM     22  C   LIG d   1       1.447  90.053 115.581  0.00  0.00     0.382 C 
ATOM     23  O   LIG d   1       1.256  90.628 114.482  0.00  0.00    -0.241 OA
ATOM     24  O   LIG d   1       0.488  89.879 116.357  0.00  0.00    -0.241 OA
ENDBRANCH   3  22
TORSDOF 7
ENDMDL
MODEL 7
REMARK VINA RESULT:      -4.2      2.729      4.841
REMARK  7 active torsions:
REMARK  status: ('A' for Active; 'I' for Inactive)
REMARK    1  A    between atoms: C_2  and  C_3 
REMARK    2  A    between atoms: C_3  and  O_6 
REMARK    3  A    between atoms: C_3  and  C_4 
REMARK    4  A    between atoms: C_7  and  O_6 
REMARK    5  A    between atoms: C_9  and  C_10 
REMARK    6  A    between atoms: N_15  and  C_14 
REMARK    7  A    between atoms: N_20  and  C_19 
REMARK       I    between atoms: C_22  and  N_20 
ROOT
ATOM      1  C   LIG d   1       2.678  87.920 116.156  0.00  0.00     0.161 C 
ATOM      2  C   LIG d   1       3.190  88.511 114.989  0.00  0.00     0.016 C 
ATOM      3  C   LIG d   1       2.736  89.749 114.480  0.00  0.00     0.038 C 
ATOM      4  C   LIG d   1       1.837  90.558 115.191  0.00  0.00     0.028 C 
ATOM      5  C   LIG d   1       0.918  89.771 116.119  0.00  0.00    -0.047 C 
ATOM      6  C   LIG d   1       1.777  88.840 117.005  0.00  0.00     0.091 C 
ENDROOT
BRANCH   1   7
ATOM      7  O   LIG d   1       3.760  87.401 116.956  0.00  0.00    -0.368 OA
BRANCH   7   8
ATOM      8  C   LIG d   1       5.050  88.034 116.771  0.00  0.00     0.119 C 
BRANCH   8   9
ATOM      9  C   LIG d   1       6.119  86.926 116.815  0.00  0.00     0.028 C 
ATOM     10  C   LIG d   1       7.545  87.490 116.939  0.00  0.00     0.006 C 
ENDBRANCH   8   9
BRANCH   8  11
ATOM     11  C   LIG d   1       5.385  88.968 117.938  0.00  0.00     0.028 C 
ATOM     12  C   LIG d   1       5.104  90.445 117.620  0.00  0.00     0.006 C 
ENDBRANCH   8  11
ENDBRANCH   7   8
ENDBRANCH   1   7
BRANCH   6  13
ATOM     13  N   LIG d   1       0.950  87.973 117.885  0.00  0.00    -0.311 N 
ATOM     14  C   LIG d   1       0.926  88.086 119.212  0.00  0.00     0.210 C 
ATOM     15  C   LIG d   1       0.021  87.080 119.929  0.00  0.00     0.109 C 
ATOM     16  O   LIG d   1       1.543  88.945 119.860  0.00  0.00    -0.276 OA
ATOM     17  H   LIG d   1       0.394  87.270 117.439  0.00  0.00     0.149 HD
ENDBRANCH   6  13
BRANCH   5  18
ATOM     18  N   LIG d   1       0.131  90.746 116.898  0.00  0.00     0.381 N 
ATOM     19  H   LIG d   1      -0.159  91.498 116.305  0.00  0.00    -0.090 HD
ATOM     20  H   LIG d   1       0.711  91.125 117.626  0.00  0.00    -0.090 HD
ATOM     21  H   LIG d   1      -0.667  90.301 117.296  0.00  0.00    -0.090 HD
ENDBRANCH   5  18
BRANCH   3  22
ATOM     22  C   LIG d   1       3.151  90.170 113.226  0.00  0.00     0.382 C 
ATOM     23  O   LIG d   1       4.211  89.716 112.731  0.00  0.00    -0.241 OA
ATOM     24  O   LIG d   1       2.503  91.032 112.602  0.00  0.00    -0.241 OA
ENDBRANCH   3  22
TORSDOF 7
ENDMDL
MODEL 8
REMARK VINA RESULT:      -4.1      4.487      6.540
REMARK  7 active torsions:
REMARK  status: ('A' for Active; 'I' for Inactive)
REMARK    1  A    between atoms: C_2  and  C_3 
REMARK    2  A    between atoms: C_3  and  O_6 
REMARK    3  A    between atoms: C_3  and  C_4 
REMARK    4  A    between atoms: C_7  and  O_6 
REMARK    5  A    between atoms: C_9  and  C_10 
REMARK    6  A    between atoms: N_15  and  C_14 
REMARK    7  A    between atoms: N_20  and  C_19 
REMARK       I    between atoms: C_22  and  N_20 
ROOT
ATOM      1  C   LIG d   1      -0.134  90.251 118.664  0.00  0.00     0.161 C 
ATOM      2  C   LIG d   1      -1.515  89.993 118.689  0.00  0.00     0.016 C 
ATOM      3  C   LIG d   1      -2.496  90.983 118.450  0.00  0.00     0.038 C 
ATOM      4  C   LIG d   1      -2.156  92.274 118.018  0.00  0.00     0.028 C 
ATOM      5  C   LIG d   1      -0.769  92.718 118.469  0.00  0.00    -0.047 C 
ATOM      6  C   LIG d   1       0.256  91.627 118.086  0.00  0.00     0.091 C 
ENDROOT
BRANCH   1   7
ATOM      7  O   LIG d   1       0.546  89.197 117.954  0.00  0.00    -0.368 OA
BRANCH   7   8
ATOM      8  C   LIG d   1       1.406  88.344 118.750  0.00  0.00     0.119 C 
BRANCH   8   9
ATOM      9  C   LIG d   1       2.637  87.996 117.890  0.00  0.00     0.028 C 
ATOM     10  C   LIG d   1       2.885  89.026 116.776  0.00  0.00     0.006 C 
ENDBRANCH   8   9
BRANCH   8  11
ATOM     11  C   LIG d   1       0.732  87.004 119.056  0.00  0.00     0.028 C 
ATOM     12  C   LIG d   1       1.317  85.842 118.237  0.00  0.00     0.006 C 
ENDBRANCH   8  11
ENDBRANCH   7   8
ENDBRANCH   1   7
BRANCH   6  13
ATOM     13  N   LIG d   1       1.627  91.943 118.565  0.00  0.00    -0.311 N 
ATOM     14  C   LIG d   1       2.512  92.635 117.850  0.00  0.00     0.210 C 
ATOM     15  C   LIG d   1       3.874  92.832 118.523  0.00  0.00     0.109 C 
ATOM     16  O   LIG d   1       2.288  93.132 116.736  0.00  0.00    -0.276 OA
ATOM     17  H   LIG d   1       1.882  91.605 119.472  0.00  0.00     0.149 HD
ENDBRANCH   6  13
BRANCH   5  18
ATOM     18  N   LIG d   1      -0.491  94.021 117.835  0.00  0.00     0.381 N 
ATOM     19  H   LIG d   1      -0.684  94.760 118.482  0.00  0.00    -0.090 HD
ATOM     20  H   LIG d   1      -1.094  94.131 117.040  0.00  0.00    -0.090 HD
ATOM     21  H   LIG d   1       0.462  94.063 117.547  0.00  0.00    -0.090 HD
ENDBRANCH   5  18
BRANCH   3  22
ATOM     22  C   LIG d   1      -3.833  90.696 118.682  0.00  0.00     0.382 C 
ATOM     23  O   LIG d   1      -4.221  89.504 118.718  0.00  0.00    -0.241 OA
ATOM     24  O   LIG d   1      -4.663  91.616 118.811  0.00  0.00    -0.241 OA
ENDBRANCH   3  22
TORSDOF 7
ENDMDL
MODEL 9
REMARK VINA RESULT:      -4.1      2.526      3.632
REMARK  7 active torsions:
REMARK  status: ('A' for Active; 'I' for Inactive)
REMARK    1  A    between atoms: C_2  and  C_3 
REMARK    2  A    between atoms: C_3  and  O_6 
REMARK    3  A    between atoms: C_3  and  C_4 
REMARK    4  A    between atoms: C_7  and  O_6 
REMARK    5  A    between atoms: C_9  and  C_10 
REMARK    6  A    between atoms: N_15  and  C_14 
REMARK    7  A    between atoms: N_20  and  C_19 
REMARK       I    between atoms: C_22  and  N_20 
ROOT
ATOM      1  C   LIG d   1       4.721  89.311 116.081  0.00  0.00     0.161 C 
ATOM      2  C   LIG d   1       3.673  90.246 116.057  0.00  0.00     0.016 C 
ATOM      3  C   LIG d   1       3.508  91.255 117.034  0.00  0.00     0.038 C 
ATOM      4  C   LIG d   1       4.472  91.492 118.025  0.00  0.00     0.028 C 
ATOM      5  C   LIG d   1       5.286  90.254 118.388  0.00  0.00    -0.047 C 
ATOM      6  C   LIG d   1       5.845  89.624 117.092  0.00  0.00     0.091 C 
ENDROOT
BRANCH   1   7
ATOM      7  O   LIG d   1       5.268  89.155 114.757  0.00  0.00    -0.368 OA
BRANCH   7   8
ATOM      8  C   LIG d   1       5.104  87.851 114.149  0.00  0.00     0.119 C 
BRANCH   8   9
ATOM      9  C   LIG d   1       4.279  88.040 112.861  0.00  0.00     0.028 C 
ATOM     10  C   LIG d   1       2.806  87.638 113.044  0.00  0.00     0.006 C 
ENDBRANCH   8   9
BRANCH   8  11
ATOM     11  C   LIG d   1       4.266  86.924 115.035  0.00  0.00     0.028 C 
ATOM     12  C   LIG d   1       5.023  85.653 115.452  0.00  0.00     0.006 C 
ENDBRANCH   8  11
ENDBRANCH   7   8
ENDBRANCH   1   7
BRANCH   6  13
ATOM     13  N   LIG d   1       6.583  88.360 117.349  0.00  0.00    -0.311 N 
ATOM     14  C   LIG d   1       7.908  88.298 117.476  0.00  0.00     0.210 C 
ATOM     15  C   LIG d   1       8.469  86.893 117.718  0.00  0.00     0.109 C 
ATOM     16  O   LIG d   1       8.668  89.277 117.442  0.00  0.00    -0.276 OA
ATOM     17  H   LIG d   1       6.041  87.522 117.422  0.00  0.00     0.149 HD
ENDBRANCH   6  13
BRANCH   5  18
ATOM     18  N   LIG d   1       6.341  90.675 119.328  0.00  0.00     0.381 N 
ATOM     19  H   LIG d   1       7.241  90.470 118.942  0.00  0.00    -0.090 HD
ATOM     20  H   LIG d   1       6.240  90.157 120.184  0.00  0.00    -0.090 HD
ATOM     21  H   LIG d   1       6.266  91.651 119.512  0.00  0.00    -0.090 HD
ENDBRANCH   5  18
BRANCH   3  22
ATOM     22  C   LIG d   1       2.347  92.013 117.050  0.00  0.00     0.382 C 
ATOM     23  O   LIG d   1       2.403  93.248 116.838  0.00  0.00    -0.241 OA
ATOM     24  O   LIG d   1       1.251  91.485 117.316  0.00  0.00    -0.241 OA
ENDBRANCH   3  22
TORSDOF 7
ENDMDL
