MODEL 1
REMARK VINA RESULT:      -5.1      0.000      0.000
REMARK  7 active torsions:
REMARK  status: ('A' for Active; 'I' for Inactive)
REMARK    1  A    between atoms: C_2  and  C_3 
REMARK    2  A    between atoms: C_3  and  O_6 
REMARK    3  A    between atoms: C_3  and  C_4 
REMARK    4  A    between atoms: C_7  and  O_6 
REMARK    5  A    between atoms: C_9  and  C_10 
REMARK    6  A    between atoms: N_15  and  C_14 
REMARK    7  A    between atoms: N_20  and  C_19 
REMARK       I    between atoms: C_22  and  N_20 
ROOT
ATOM      1  C   LIG d   1      -3.962  91.015 117.450  0.00  0.00     0.161 C 
ATOM      2  C   LIG d   1      -4.919  90.249 116.765  0.00  0.00     0.016 C 
ATOM      3  C   LIG d   1      -6.194  90.741 116.402  0.00  0.00     0.038 C 
ATOM      4  C   LIG d   1      -6.544  92.089 116.568  0.00  0.00     0.028 C 
ATOM      5  C   LIG d   1      -5.798  92.772 117.710  0.00  0.00    -0.047 C 
ATOM      6  C   LIG d   1      -4.283  92.521 117.541  0.00  0.00     0.091 C 
ENDROOT
BRANCH   1   7
ATOM      7  O   LIG d   1      -2.662  90.814 116.860  0.00  0.00    -0.368 OA
BRANCH   7   8
ATOM      8  C   LIG d   1      -1.675  90.164 117.697  0.00  0.00     0.119 C 
BRANCH   8   9
ATOM      9  C   LIG d   1      -0.290  90.688 117.272  0.00  0.00     0.028 C 
ATOM     10  C   LIG d   1       0.475  91.338 118.437  0.00  0.00     0.006 C 
ENDBRANCH   8   9
BRANCH   8  11
ATOM     11  C   LIG d   1      -1.633  88.655 117.441  0.00  0.00     0.028 C 
ATOM     12  C   LIG d   1      -2.021  87.829 118.678  0.00  0.00     0.006 C 
ENDBRANCH   8  11
ENDBRANCH   7   8
ENDBRANCH   1   7
BRANCH   6  13
ATOM     13  N   LIG d   1      -3.486  93.083 118.663  0.00  0.00    -0.311 N 
ATOM     14  C   LIG d   1      -2.381  93.806 118.488  0.00  0.00     0.210 C 
ATOM     15  C   LIG d   1      -1.702  94.272 119.779  0.00  0.00     0.109 C 
ATOM     16  O   LIG d   1      -1.916  94.131 117.385  0.00  0.00    -0.276 OA
ATOM     17  H   LIG d   1      -3.809  92.894 119.592  0.00  0.00     0.149 HD
ENDBRANCH   6  13
BRANCH   5  18
ATOM     18  N   LIG d   1      -6.155  94.203 117.683  0.00  0.00     0.381 N 
ATOM     19  H   LIG d   1      -6.736  94.392 116.891  0.00  0.00    -0.090 HD
ATOM     20  H   LIG d   1      -5.314  94.745 117.594  0.00  0.00    -0.090 HD
ATOM     21  H   LIG d   1      -6.632  94.452 118.521  0.00  0.00    -0.090 HD
ENDBRANCH   5  18
BRANCH   3  22
ATOM     22  C   LIG d   1      -7.150  89.870 115.902  0.00  0.00     0.382 C 
ATOM     23  O   LIG d   1      -7.822  89.159 116.688  0.00  0.00    -0.241 OA
ATOM     24  O   LIG d   1      -7.319  89.754 114.674  0.00  0.00    -0.241 OA
ENDBRANCH   3  22
TORSDOF 7
ENDMDL
MODEL 2
REMARK VINA RESULT:      -5.1      2.762      4.970
REMARK  7 active torsions:
REMARK  status: ('A' for Active; 'I' for Inactive)
REMARK    1  A    between atoms: C_2  and  C_3 
REMARK    2  A    between atoms: C_3  and  O_6 
REMARK    3  A    between atoms: C_3  and  C_4 
REMARK    4  A    between atoms: C_7  and  O_6 
REMARK    5  A    between atoms: C_9  and  C_10 
REMARK    6  A    between atoms: N_15  and  C_14 
REMARK    7  A    between atoms: N_20  and  C_19 
REMARK       I    between atoms: C_22  and  N_20 
ROOT
ATOM      1  C   LIG d   1      -5.686  92.803 117.315  0.00  0.00     0.161 C 
ATOM      2  C   LIG d   1      -6.752  93.695 117.517  0.00  0.00     0.016 C 
ATOM      3  C   LIG d   1      -6.710  94.762 118.443  0.00  0.00     0.038 C 
ATOM      4  C   LIG d   1      -5.533  95.105 119.126  0.00  0.00     0.028 C 
ATOM      5  C   LIG d   1      -4.587  93.926 119.330  0.00  0.00    -0.047 C 
ATOM      6  C   LIG d   1      -4.355  93.228 117.971  0.00  0.00     0.091 C 
ENDROOT
BRANCH   1   7
ATOM      7  O   LIG d   1      -5.499  92.576 115.904  0.00  0.00    -0.368 OA
BRANCH   7   8
ATOM      8  C   LIG d   1      -5.962  91.301 115.397  0.00  0.00     0.119 C 
BRANCH   8   9
ATOM      9  C   LIG d   1      -7.349  91.530 114.765  0.00  0.00     0.028 C 
ATOM     10  C   LIG d   1      -7.455  90.937 113.350  0.00  0.00     0.006 C 
ENDBRANCH   8   9
BRANCH   8  11
ATOM     11  C   LIG d   1      -6.194  90.300 116.533  0.00  0.00     0.028 C 
ATOM     12  C   LIG d   1      -7.600  89.681 116.504  0.00  0.00     0.006 C 
ENDBRANCH   8  11
ENDBRANCH   7   8
ENDBRANCH   1   7
BRANCH   6  13
ATOM     13  N   LIG d   1      -3.507  92.014 118.094  0.00  0.00    -0.311 N 
ATOM     14  C   LIG d   1      -2.189  92.017 117.899  0.00  0.00     0.210 C 
ATOM     15  C   LIG d   1      -1.509  90.653 118.057  0.00  0.00     0.109 C 
ATOM     16  O   LIG d   1      -1.515  93.025 117.642  0.00  0.00    -0.276 OA
ATOM     17  H   LIG d   1      -3.968  91.157 118.331  0.00  0.00     0.149 HD
ENDBRANCH   6  13
BRANCH   5  18
ATOM     18  N   LIG d   1      -3.345  94.451 119.930  0.00  0.00     0.381 N 
ATOM     19  H   LIG d   1      -2.881  93.724 120.437  0.00  0.00    -0.090 HD
ATOM     20  H   LIG d   1      -3.580  95.185 120.574  0.00  0.00    -0.090 HD
ATOM     21  H   LIG d   1      -2.745  94.804 119.217  0.00  0.00    -0.090 HD
ENDBRANCH   5  18
BRANCH   3  22
ATOM     22  C   LIG d   1      -7.865  95.476 118.723  0.00  0.00     0.382 C 
ATOM     23  O   LIG d   1      -7.789  96.602 119.270  0.00  0.00    -0.241 OA
ATOM     24  O   LIG d   1      -8.984  94.989 118.475  0.00  0.00    -0.241 OA
ENDBRANCH   3  22
TORSDOF 7
ENDMDL
MODEL 3
REMARK VINA RESULT:      -5.1      2.381      4.887
REMARK  7 active torsions:
REMARK  status: ('A' for Active; 'I' for Inactive)
REMARK    1  A    between atoms: C_2  and  C_3 
REMARK    2  A    between atoms: C_3  and  O_6 
REMARK    3  A    between atoms: C_3  and  C_4 
REMARK    4  A    between atoms: C_7  and  O_6 
REMARK    5  A    between atoms: C_9  and  C_10 
REMARK    6  A    between atoms: N_15  and  C_14 
REMARK    7  A    between atoms: N_20  and  C_19 
REMARK       I    between atoms: C_22  and  N_20 
ROOT
ATOM      1  C   LIG d   1      -5.699  92.890 117.416  0.00  0.00     0.161 C 
ATOM      2  C   LIG d   1      -6.332  92.356 116.282  0.00  0.00     0.016 C 
ATOM      3  C   LIG d   1      -5.998  91.101 115.722  0.00  0.00     0.038 C 
ATOM      4  C   LIG d   1      -5.104  90.223 116.353  0.00  0.00     0.028 C 
ATOM      5  C   LIG d   1      -4.070  90.931 117.222  0.00  0.00    -0.047 C 
ATOM      6  C   LIG d   1      -4.800  91.898 118.182  0.00  0.00     0.091 C 
ENDROOT
BRANCH   1   7
ATOM      7  O   LIG d   1      -6.683  93.461 118.301  0.00  0.00    -0.368 OA
BRANCH   7   8
ATOM      8  C   LIG d   1      -6.764  94.908 118.316  0.00  0.00     0.119 C 
BRANCH   8   9
ATOM      9  C   LIG d   1      -6.139  95.394 119.637  0.00  0.00     0.028 C 
ATOM     10  C   LIG d   1      -4.960  96.355 119.410  0.00  0.00     0.006 C 
ENDBRANCH   8   9
BRANCH   8  11
ATOM     11  C   LIG d   1      -8.219  95.383 118.356  0.00  0.00     0.028 C 
ATOM     12  C   LIG d   1      -8.346  96.915 118.358  0.00  0.00     0.006 C 
ENDBRANCH   8  11
ENDBRANCH   7   8
ENDBRANCH   1   7
BRANCH   6  13
ATOM     13  N   LIG d   1      -3.856  92.693 119.011  0.00  0.00    -0.311 N 
ATOM     14  C   LIG d   1      -2.857  93.410 118.499  0.00  0.00     0.210 C 
ATOM     15  C   LIG d   1      -1.991  94.139 119.531  0.00  0.00     0.109 C 
ATOM     16  O   LIG d   1      -2.626  93.538 117.288  0.00  0.00    -0.276 OA
ATOM     17  H   LIG d   1      -3.990  92.671 120.003  0.00  0.00     0.149 HD
ENDBRANCH   6  13
BRANCH   5  18
ATOM     18  N   LIG d   1      -3.294  89.893 117.925  0.00  0.00     0.381 N 
ATOM     19  H   LIG d   1      -2.624  90.323 118.531  0.00  0.00    -0.090 HD
ATOM     20  H   LIG d   1      -2.797  89.342 117.247  0.00  0.00    -0.090 HD
ATOM     21  H   LIG d   1      -3.904  89.310 118.455  0.00  0.00    -0.090 HD
ENDBRANCH   5  18
BRANCH   3  22
ATOM     22  C   LIG d   1      -6.530  90.732 114.496  0.00  0.00     0.382 C 
ATOM     23  O   LIG d   1      -7.332  91.495 113.905  0.00  0.00    -0.241 OA
ATOM     24  O   LIG d   1      -6.253  89.626 113.995  0.00  0.00    -0.241 OA
ENDBRANCH   3  22
TORSDOF 7
ENDMDL
MODEL 4
REMARK VINA RESULT:      -5.0      0.557      1.535
REMARK  7 active torsions:
REMARK  status: ('A' for Active; 'I' for Inactive)
REMARK    1  A    between atoms: C_2  and  C_3 
REMARK    2  A    between atoms: C_3  and  O_6 
REMARK    3  A    between atoms: C_3  and  C_4 
REMARK    4  A    between atoms: C_7  and  O_6 
REMARK    5  A    between atoms: C_9  and  C_10 
REMARK    6  A    between atoms: N_15  and  C_14 
REMARK    7  A    between atoms: N_20  and  C_19 
REMARK       I    between atoms: C_22  and  N_20 
ROOT
ATOM      1  C   LIG d   1      -3.931  91.081 117.477  0.00  0.00     0.161 C 
ATOM      2  C   LIG d   1      -4.850  90.309 116.747  0.00  0.00     0.016 C 
ATOM      3  C   LIG d   1      -6.121  90.783 116.348  0.00  0.00     0.038 C 
ATOM      4  C   LIG d   1      -6.500  92.122 116.522  0.00  0.00     0.028 C 
ATOM      5  C   LIG d   1      -5.808  92.800 117.700  0.00  0.00    -0.047 C 
ATOM      6  C   LIG d   1      -4.283  92.579 117.579  0.00  0.00     0.091 C 
ENDROOT
BRANCH   1   7
ATOM      7  O   LIG d   1      -2.608  90.913 116.929  0.00  0.00    -0.368 OA
BRANCH   7   8
ATOM      8  C   LIG d   1      -1.844  89.793 117.439  0.00  0.00     0.119 C 
BRANCH   8   9
ATOM      9  C   LIG d   1      -1.931  89.836 118.977  0.00  0.00     0.028 C 
ATOM     10  C   LIG d   1      -2.148  88.444 119.592  0.00  0.00     0.006 C 
ENDBRANCH   8   9
BRANCH   8  11
ATOM     11  C   LIG d   1      -0.355  89.939 117.113  0.00  0.00     0.028 C 
ATOM     12  C   LIG d   1       0.070  91.403 116.913  0.00  0.00     0.006 C 
ENDBRANCH   8  11
ENDBRANCH   7   8
ENDBRANCH   1   7
BRANCH   6  13
ATOM     13  N   LIG d   1      -3.536  93.138 118.736  0.00  0.00    -0.311 N 
ATOM     14  C   LIG d   1      -2.471  93.928 118.609  0.00  0.00     0.210 C 
ATOM     15  C   LIG d   1      -1.838  94.378 119.930  0.00  0.00     0.109 C 
ATOM     16  O   LIG d   1      -2.010  94.325 117.529  0.00  0.00    -0.276 OA
ATOM     17  H   LIG d   1      -3.861  92.893 119.651  0.00  0.00     0.149 HD
ENDBRANCH   6  13
BRANCH   5  18
ATOM     18  N   LIG d   1      -6.189  94.225 117.681  0.00  0.00     0.381 N 
ATOM     19  H   LIG d   1      -7.016  94.361 118.228  0.00  0.00    -0.090 HD
ATOM     20  H   LIG d   1      -6.389  94.496 116.734  0.00  0.00    -0.090 HD
ATOM     21  H   LIG d   1      -5.447  94.781 118.045  0.00  0.00    -0.090 HD
ENDBRANCH   5  18
BRANCH   3  22
ATOM     22  C   LIG d   1      -7.043  89.903 115.802  0.00  0.00     0.382 C 
ATOM     23  O   LIG d   1      -7.782  89.223 116.555  0.00  0.00    -0.241 OA
ATOM     24  O   LIG d   1      -7.114  89.747 114.569  0.00  0.00    -0.241 OA
ENDBRANCH   3  22
TORSDOF 7
ENDMDL
MODEL 5
REMARK VINA RESULT:      -4.9      1.874      4.577
REMARK  7 active torsions:
REMARK  status: ('A' for Active; 'I' for Inactive)
REMARK    1  A    between atoms: C_2  and  C_3 
REMARK    2  A    between atoms: C_3  and  O_6 
REMARK    3  A    between atoms: C_3  and  C_4 
REMARK    4  A    between atoms: C_7  and  O_6 
REMARK    5  A    between atoms: C_9  and  C_10 
REMARK    6  A    between atoms: N_15  and  C_14 
REMARK    7  A    between atoms: N_20  and  C_19 
REMARK       I    between atoms: C_22  and  N_20 
ROOT
ATOM      1  C   LIG d   1      -4.094  91.087 117.208  0.00  0.00     0.161 C 
ATOM      2  C   LIG d   1      -3.030  91.899 117.636  0.00  0.00     0.016 C 
ATOM      3  C   LIG d   1      -3.212  93.135 118.298  0.00  0.00     0.038 C 
ATOM      4  C   LIG d   1      -4.478  93.574 118.714  0.00  0.00     0.028 C 
ATOM      5  C   LIG d   1      -5.618  93.032 117.859  0.00  0.00    -0.047 C 
ATOM      6  C   LIG d   1      -5.479  91.496 117.752  0.00  0.00     0.091 C 
ENDROOT
BRANCH   1   7
ATOM      7  O   LIG d   1      -3.816  89.709 117.529  0.00  0.00    -0.368 OA
BRANCH   7   8
ATOM      8  C   LIG d   1      -2.503  89.434 118.075  0.00  0.00     0.119 C 
BRANCH   8   9
ATOM      9  C   LIG d   1      -1.943  88.203 117.335  0.00  0.00     0.028 C 
ATOM     10  C   LIG d   1      -0.503  88.421 116.839  0.00  0.00     0.006 C 
ENDBRANCH   8   9
BRANCH   8  11
ATOM     11  C   LIG d   1      -2.586  89.019 119.547  0.00  0.00     0.028 C 
ATOM     12  C   LIG d   1      -2.299  87.525 119.762  0.00  0.00     0.006 C 
ENDBRANCH   8  11
ENDBRANCH   7   8
ENDBRANCH   1   7
BRANCH   6  13
ATOM     13  N   LIG d   1      -6.506  90.894 116.863  0.00  0.00    -0.311 N 
ATOM     14  C   LIG d   1      -6.716  91.293 115.610  0.00  0.00     0.210 C 
ATOM     15  C   LIG d   1      -7.838  90.552 114.875  0.00  0.00     0.109 C 
ATOM     16  O   LIG d   1      -6.058  92.167 115.026  0.00  0.00    -0.276 OA
ATOM     17  H   LIG d   1      -7.065  90.156 117.246  0.00  0.00     0.149 HD
ENDBRANCH   6  13
BRANCH   5  18
ATOM     18  N   LIG d   1      -6.885  93.455 118.485  0.00  0.00     0.381 N 
ATOM     19  H   LIG d   1      -7.649  93.256 117.871  0.00  0.00    -0.090 HD
ATOM     20  H   LIG d   1      -6.855  94.448 118.640  0.00  0.00    -0.090 HD
ATOM     21  H   LIG d   1      -7.013  92.980 119.351  0.00  0.00    -0.090 HD
ENDBRANCH   5  18
BRANCH   3  22
ATOM     22  C   LIG d   1      -2.123  93.966 118.514  0.00  0.00     0.382 C 
ATOM     23  O   LIG d   1      -1.701  94.700 117.589  0.00  0.00    -0.241 OA
ATOM     24  O   LIG d   1      -1.529  93.957 119.609  0.00  0.00    -0.241 OA
ENDBRANCH   3  22
TORSDOF 7
ENDMDL
MODEL 6
REMARK VINA RESULT:      -4.8      1.671      2.201
REMARK  7 active torsions:
REMARK  status: ('A' for Active; 'I' for Inactive)
REMARK    1  A    between atoms: C_2  and  C_3 
REMARK    2  A    between atoms: C_3  and  O_6 
REMARK    3  A    between atoms: C_3  and  C_4 
REMARK    4  A    between atoms: C_7  and  O_6 
REMARK    5  A    between atoms: C_9  and  C_10 
REMARK    6  A    between atoms: N_15  and  C_14 
REMARK    7  A    between atoms: N_20  and  C_19 
REMARK       I    between atoms: C_22  and  N_20 
ROOT
ATOM      1  C   LIG d   1      -2.236  90.689 117.656  0.00  0.00     0.161 C 
ATOM      2  C   LIG d   1      -3.475  90.278 117.137  0.00  0.00     0.016 C 
ATOM      3  C   LIG d   1      -4.573  91.151 116.959  0.00  0.00     0.038 C 
ATOM      4  C   LIG d   1      -4.456  92.536 117.148  0.00  0.00     0.028 C 
ATOM      5  C   LIG d   1      -3.375  92.922 118.152  0.00  0.00    -0.047 C 
ATOM      6  C   LIG d   1      -2.055  92.218 117.764  0.00  0.00     0.091 C 
ENDROOT
BRANCH   1   7
ATOM      7  O   LIG d   1      -1.166  90.111 116.883  0.00  0.00    -0.368 OA
BRANCH   7   8
ATOM      8  C   LIG d   1      -0.232  89.277 117.611  0.00  0.00     0.119 C 
BRANCH   8   9
ATOM      9  C   LIG d   1       1.186  89.636 117.124  0.00  0.00     0.028 C 
ATOM     10  C   LIG d   1       1.170  90.449 115.819  0.00  0.00     0.006 C 
ENDBRANCH   8   9
BRANCH   8  11
ATOM     11  C   LIG d   1      -0.417  87.797 117.262  0.00  0.00     0.028 C 
ATOM     12  C   LIG d   1      -1.247  87.038 118.309  0.00  0.00     0.006 C 
ENDBRANCH   8  11
ENDBRANCH   7   8
ENDBRANCH   1   7
BRANCH   6  13
ATOM     13  N   LIG d   1      -0.967  92.474 118.742  0.00  0.00    -0.311 N 
ATOM     14  C   LIG d   1       0.164  93.106 118.432  0.00  0.00     0.210 C 
ATOM     15  C   LIG d   1       1.163  93.248 119.585  0.00  0.00     0.109 C 
ATOM     16  O   LIG d   1       0.421  93.591 117.320  0.00  0.00    -0.276 OA
ATOM     17  H   LIG d   1      -1.105  92.142 119.677  0.00  0.00     0.149 HD
ENDBRANCH   6  13
BRANCH   5  18
ATOM     18  N   LIG d   1      -3.269  94.393 118.149  0.00  0.00     0.381 N 
ATOM     19  H   LIG d   1      -3.089  94.718 117.220  0.00  0.00    -0.090 HD
ATOM     20  H   LIG d   1      -2.497  94.664 118.732  0.00  0.00    -0.090 HD
ATOM     21  H   LIG d   1      -4.112  94.797 118.492  0.00  0.00    -0.090 HD
ENDBRANCH   5  18
BRANCH   3  22
ATOM     22  C   LIG d   1      -5.815  90.634 116.626  0.00  0.00     0.382 C 
ATOM     23  O   LIG d   1      -5.899  89.508 116.079  0.00  0.00    -0.241 OA
ATOM     24  O   LIG d   1      -6.850  91.298 116.825  0.00  0.00    -0.241 OA
ENDBRANCH   3  22
TORSDOF 7
ENDMDL
MODEL 7
REMARK VINA RESULT:      -4.6      2.529      4.415
REMARK  7 active torsions:
REMARK  status: ('A' for Active; 'I' for Inactive)
REMARK    1  A    between atoms: C_2  and  C_3 
REMARK    2  A    between atoms: C_3  and  O_6 
REMARK    3  A    between atoms: C_3  and  C_4 
REMARK    4  A    between atoms: C_7  and  O_6 
REMARK    5  A    between atoms: C_9  and  C_10 
REMARK    6  A    between atoms: N_15  and  C_14 
REMARK    7  A    between atoms: N_20  and  C_19 
REMARK       I    between atoms: C_22  and  N_20 
ROOT
ATOM      1  C   LIG d   1      -2.597  92.606 117.949  0.00  0.00     0.161 C 
ATOM      2  C   LIG d   1      -3.873  92.925 117.456  0.00  0.00     0.016 C 
ATOM      3  C   LIG d   1      -4.732  91.979 116.849  0.00  0.00     0.038 C 
ATOM      4  C   LIG d   1      -4.430  90.609 116.830  0.00  0.00     0.028 C 
ATOM      5  C   LIG d   1      -2.934  90.318 116.863  0.00  0.00    -0.047 C 
ATOM      6  C   LIG d   1      -2.297  91.095 118.037  0.00  0.00     0.091 C 
ENDROOT
BRANCH   1   7
ATOM      7  O   LIG d   1      -2.398  93.232 119.231  0.00  0.00    -0.368 OA
BRANCH   7   8
ATOM      8  C   LIG d   1      -1.485  94.357 119.257  0.00  0.00     0.119 C 
BRANCH   8   9
ATOM      9  C   LIG d   1      -2.319  95.634 119.037  0.00  0.00     0.028 C 
ATOM     10  C   LIG d   1      -1.687  96.576 117.999  0.00  0.00     0.006 C 
ENDBRANCH   8   9
BRANCH   8  11
ATOM     11  C   LIG d   1      -0.505  94.306 118.082  0.00  0.00     0.028 C 
ATOM     12  C   LIG d   1       0.919  93.917 118.510  0.00  0.00     0.006 C 
ENDBRANCH   8  11
ENDBRANCH   7   8
ENDBRANCH   1   7
BRANCH   6  13
ATOM     13  N   LIG d   1      -0.820  90.932 118.090  0.00  0.00    -0.311 N 
ATOM     14  C   LIG d   1      -0.210  90.020 118.845  0.00  0.00     0.210 C 
ATOM     15  C   LIG d   1       1.320  90.035 118.767  0.00  0.00     0.109 C 
ATOM     16  O   LIG d   1      -0.791  89.180 119.548  0.00  0.00    -0.276 OA
ATOM     17  H   LIG d   1      -0.273  91.552 117.526  0.00  0.00     0.149 HD
ENDBRANCH   6  13
BRANCH   5  18
ATOM     18  N   LIG d   1      -2.767  88.856 116.978  0.00  0.00     0.381 N 
ATOM     19  H   LIG d   1      -3.238  88.526 117.797  0.00  0.00    -0.090 HD
ATOM     20  H   LIG d   1      -1.789  88.647 117.071  0.00  0.00    -0.090 HD
ATOM     21  H   LIG d   1      -3.136  88.406 116.169  0.00  0.00    -0.090 HD
ENDBRANCH   5  18
BRANCH   3  22
ATOM     22  C   LIG d   1      -5.889  92.408 116.217  0.00  0.00     0.382 C 
ATOM     23  O   LIG d   1      -6.035  92.225 114.985  0.00  0.00    -0.241 OA
ATOM     24  O   LIG d   1      -6.769  93.016 116.855  0.00  0.00    -0.241 OA
ENDBRANCH   3  22
TORSDOF 7
ENDMDL
MODEL 8
REMARK VINA RESULT:      -4.6      2.394      5.209
REMARK  7 active torsions:
REMARK  status: ('A' for Active; 'I' for Inactive)
REMARK    1  A    between atoms: C_2  and  C_3 
REMARK    2  A    between atoms: C_3  and  O_6 
REMARK    3  A    between atoms: C_3  and  C_4 
REMARK    4  A    between atoms: C_7  and  O_6 
REMARK    5  A    between atoms: C_9  and  C_10 
REMARK    6  A    between atoms: N_15  and  C_14 
REMARK    7  A    between atoms: N_20  and  C_19 
REMARK       I    between atoms: C_22  and  N_20 
ROOT
ATOM      1  C   LIG d   1      -5.011  91.534 117.093  0.00  0.00     0.161 C 
ATOM      2  C   LIG d   1      -5.814  92.508 117.710  0.00  0.00     0.016 C 
ATOM      3  C   LIG d   1      -5.294  93.553 118.509  0.00  0.00     0.038 C 
ATOM      4  C   LIG d   1      -3.915  93.783 118.622  0.00  0.00     0.028 C 
ATOM      5  C   LIG d   1      -3.073  92.526 118.430  0.00  0.00    -0.047 C 
ATOM      6  C   LIG d   1      -3.498  91.834 117.115  0.00  0.00     0.091 C 
ENDROOT
BRANCH   1   7
ATOM      7  O   LIG d   1      -5.460  91.316 115.741  0.00  0.00    -0.368 OA
BRANCH   7   8
ATOM      8  C   LIG d   1      -6.158  90.070 115.494  0.00  0.00     0.119 C 
BRANCH   8   9
ATOM      9  C   LIG d   1      -6.904  90.216 114.154  0.00  0.00     0.028 C 
ATOM     10  C   LIG d   1      -7.316  91.669 113.866  0.00  0.00     0.006 C 
ENDBRANCH   8   9
BRANCH   8  11
ATOM     11  C   LIG d   1      -7.249  89.827 116.541  0.00  0.00     0.028 C 
ATOM     12  C   LIG d   1      -8.522  89.209 115.941  0.00  0.00     0.006 C 
ENDBRANCH   8  11
ENDBRANCH   7   8
ENDBRANCH   1   7
BRANCH   6  13
ATOM     13  N   LIG d   1      -2.782  90.551 116.892  0.00  0.00    -0.311 N 
ATOM     14  C   LIG d   1      -2.826  89.529 117.746  0.00  0.00     0.210 C 
ATOM     15  C   LIG d   1      -1.999  88.307 117.334  0.00  0.00     0.109 C 
ATOM     16  O   LIG d   1      -3.497  89.507 118.788  0.00  0.00    -0.276 OA
ATOM     17  H   LIG d   1      -2.238  90.471 116.056  0.00  0.00     0.149 HD
ENDBRANCH   6  13
BRANCH   5  18
ATOM     18  N   LIG d   1      -1.655  92.934 118.436  0.00  0.00     0.381 N 
ATOM     19  H   LIG d   1      -1.582  93.902 118.680  0.00  0.00    -0.090 HD
ATOM     20  H   LIG d   1      -1.277  92.812 117.513  0.00  0.00    -0.090 HD
ATOM     21  H   LIG d   1      -1.144  92.381 119.088  0.00  0.00    -0.090 HD
ENDBRANCH   5  18
BRANCH   3  22
ATOM     22  C   LIG d   1      -6.158  94.356 119.237  0.00  0.00     0.382 C 
ATOM     23  O   LIG d   1      -7.379  94.075 119.292  0.00  0.00    -0.241 OA
ATOM     24  O   LIG d   1      -5.739  95.384 119.803  0.00  0.00    -0.241 OA
ENDBRANCH   3  22
TORSDOF 7
ENDMDL
MODEL 9
REMARK VINA RESULT:      -4.5      6.946     10.561
REMARK  7 active torsions:
REMARK  status: ('A' for Active; 'I' for Inactive)
REMARK    1  A    between atoms: C_2  and  C_3 
REMARK    2  A    between atoms: C_3  and  O_6 
REMARK    3  A    between atoms: C_3  and  C_4 
REMARK    4  A    between atoms: C_7  and  O_6 
REMARK    5  A    between atoms: C_9  and  C_10 
REMARK    6  A    between atoms: N_15  and  C_14 
REMARK    7  A    between atoms: N_20  and  C_19 
REMARK       I    between atoms: C_22  and  N_20 
ROOT
ATOM      1  C   LIG d   1       4.439  88.657 116.363  0.00  0.00     0.161 C 
ATOM      2  C   LIG d   1       5.339  89.257 117.260  0.00  0.00     0.016 C 
ATOM      3  C   LIG d   1       6.567  89.833 116.862  0.00  0.00     0.038 C 
ATOM      4  C   LIG d   1       6.912  89.984 115.510  0.00  0.00     0.028 C 
ATOM      5  C   LIG d   1       6.268  88.942 114.601  0.00  0.00    -0.047 C 
ATOM      6  C   LIG d   1       4.747  88.910 114.872  0.00  0.00     0.091 C 
ENDROOT
BRANCH   1   7
ATOM      7  O   LIG d   1       3.093  89.067 116.674  0.00  0.00    -0.368 OA
BRANCH   7   8
ATOM      8  C   LIG d   1       2.693  90.369 116.180  0.00  0.00     0.119 C 
BRANCH   8   9
ATOM      9  C   LIG d   1       2.527  91.296 117.400  0.00  0.00     0.028 C 
ATOM     10  C   LIG d   1       3.361  92.582 117.277  0.00  0.00     0.006 C 
ENDBRANCH   8   9
BRANCH   8  11
ATOM     11  C   LIG d   1       1.312  90.315 115.521  0.00  0.00     0.028 C 
ATOM     12  C   LIG d   1       0.176  90.688 116.487  0.00  0.00     0.006 C 
ENDBRANCH   8  11
ENDBRANCH   7   8
ENDBRANCH   1   7
BRANCH   6  13
ATOM     13  N   LIG d   1       4.052  87.859 114.085  0.00  0.00    -0.311 N 
ATOM     14  C   LIG d   1       3.197  88.126 113.099  0.00  0.00     0.210 C 
ATOM     15  C   LIG d   1       2.577  86.895 112.431  0.00  0.00     0.109 C 
ATOM     16  O   LIG d   1       2.918  89.264 112.694  0.00  0.00    -0.276 OA
ATOM     17  H   LIG d   1       4.244  86.906 114.327  0.00  0.00     0.149 HD
ENDBRANCH   6  13
BRANCH   5  18
ATOM     18  N   LIG d   1       6.600  89.298 113.209  0.00  0.00     0.381 N 
ATOM     19  H   LIG d   1       7.588  89.224 113.067  0.00  0.00    -0.090 HD
ATOM     20  H   LIG d   1       6.329  90.252 113.044  0.00  0.00    -0.090 HD
ATOM     21  H   LIG d   1       6.120  88.695 112.579  0.00  0.00    -0.090 HD
ENDBRANCH   5  18
BRANCH   3  22
ATOM     22  C   LIG d   1       7.484  90.230 117.823  0.00  0.00     0.382 C 
ATOM     23  O   LIG d   1       7.161  91.088 118.681  0.00  0.00    -0.241 OA
ATOM     24  O   LIG d   1       8.643  89.775 117.817  0.00  0.00    -0.241 OA
ENDBRANCH   3  22
TORSDOF 7
ENDMDL
