MODEL 1
REMARK VINA RESULT:      -4.8      0.000      0.000
REMARK  7 active torsions:
REMARK  status: ('A' for Active; 'I' for Inactive)
REMARK    1  A    between atoms: C_2  and  C_3 
REMARK    2  A    between atoms: C_3  and  O_6 
REMARK    3  A    between atoms: C_3  and  C_4 
REMARK    4  A    between atoms: C_7  and  O_6 
REMARK    5  A    between atoms: C_9  and  C_10 
REMARK    6  A    between atoms: N_15  and  C_14 
REMARK    7  A    between atoms: N_20  and  C_19 
REMARK       I    between atoms: C_22  and  N_20 
ROOT
ATOM      1  C   LIG d   1      -3.931  91.429 117.599  0.00  0.00     0.161 C 
ATOM      2  C   LIG d   1      -4.875  90.645 116.914  0.00  0.00     0.016 C 
ATOM      3  C   LIG d   1      -6.157  91.114 116.548  0.00  0.00     0.038 C 
ATOM      4  C   LIG d   1      -6.529  92.457 116.710  0.00  0.00     0.028 C 
ATOM      5  C   LIG d   1      -5.798  93.155 117.851  0.00  0.00    -0.047 C 
ATOM      6  C   LIG d   1      -4.278  92.930 117.685  0.00  0.00     0.091 C 
ENDROOT
BRANCH   1   7
ATOM      7  O   LIG d   1      -2.627  91.248 117.011  0.00  0.00    -0.368 OA
BRANCH   7   8
ATOM      8  C   LIG d   1      -1.598  90.732 117.889  0.00  0.00     0.119 C 
BRANCH   8   9
ATOM      9  C   LIG d   1      -0.237  91.021 117.227  0.00  0.00     0.028 C 
ATOM     10  C   LIG d   1       0.670  91.897 118.107  0.00  0.00     0.006 C 
ENDBRANCH   8   9
BRANCH   8  11
ATOM     11  C   LIG d   1      -1.677  89.207 118.005  0.00  0.00     0.028 C 
ATOM     12  C   LIG d   1      -2.248  88.741 119.354  0.00  0.00     0.006 C 
ENDBRANCH   8  11
ENDBRANCH   7   8
ENDBRANCH   1   7
BRANCH   6  13
ATOM     13  N   LIG d   1      -3.493  93.508 118.807  0.00  0.00    -0.311 N 
ATOM     14  C   LIG d   1      -2.339  94.152 118.639  0.00  0.00     0.210 C 
ATOM     15  C   LIG d   1      -1.683  94.652 119.930  0.00  0.00     0.109 C 
ATOM     16  O   LIG d   1      -1.812  94.384 117.540  0.00  0.00    -0.276 OA
ATOM     17  H   LIG d   1      -3.863  93.393 119.730  0.00  0.00     0.149 HD
ENDBRANCH   6  13
BRANCH   5  18
ATOM     18  N   LIG d   1      -6.178  94.580 117.820  0.00  0.00     0.381 N 
ATOM     19  H   LIG d   1      -7.033  94.691 117.313  0.00  0.00    -0.090 HD
ATOM     20  H   LIG d   1      -5.460  95.097 117.343  0.00  0.00    -0.090 HD
ATOM     21  H   LIG d   1      -6.286  94.925 118.748  0.00  0.00    -0.090 HD
ENDBRANCH   5  18
BRANCH   3  22
ATOM     22  C   LIG d   1      -7.098  90.226 116.049  0.00  0.00     0.382 C 
ATOM     23  O   LIG d   1      -6.932  89.707 114.919  0.00  0.00    -0.241 OA
ATOM     24  O   LIG d   1      -8.131  89.971 116.696  0.00  0.00    -0.241 OA
ENDBRANCH   3  22
TORSDOF 7
ENDMDL
MODEL 2
REMARK VINA RESULT:      -4.6      2.040      3.073
REMARK  7 active torsions:
REMARK  status: ('A' for Active; 'I' for Inactive)
REMARK    1  A    between atoms: C_2  and  C_3 
REMARK    2  A    between atoms: C_3  and  O_6 
REMARK    3  A    between atoms: C_3  and  C_4 
REMARK    4  A    between atoms: C_7  and  O_6 
REMARK    5  A    between atoms: C_9  and  C_10 
REMARK    6  A    between atoms: N_15  and  C_14 
REMARK    7  A    between atoms: N_20  and  C_19 
REMARK       I    between atoms: C_22  and  N_20 
ROOT
ATOM      1  C   LIG d   1      -2.545  90.358 118.696  0.00  0.00     0.161 C 
ATOM      2  C   LIG d   1      -3.925  90.321 118.435  0.00  0.00     0.016 C 
ATOM      3  C   LIG d   1      -4.633  91.391 117.840  0.00  0.00     0.038 C 
ATOM      4  C   LIG d   1      -3.977  92.519 117.324  0.00  0.00     0.028 C 
ATOM      5  C   LIG d   1      -2.653  92.820 118.019  0.00  0.00    -0.047 C 
ATOM      6  C   LIG d   1      -1.793  91.535 118.039  0.00  0.00     0.091 C 
ENDROOT
BRANCH   1   7
ATOM      7  O   LIG d   1      -1.942  89.105 118.316  0.00  0.00    -0.368 OA
BRANCH   7   8
ATOM      8  C   LIG d   1      -1.194  88.418 119.350  0.00  0.00     0.119 C 
BRANCH   8   9
ATOM      9  C   LIG d   1       0.040  87.781 118.682  0.00  0.00     0.028 C 
ATOM     10  C   LIG d   1       0.337  88.385 117.299  0.00  0.00     0.006 C 
ENDBRANCH   8   9
BRANCH   8  11
ATOM     11  C   LIG d   1      -1.992  87.247 119.930  0.00  0.00     0.028 C 
ATOM     12  C   LIG d   1      -1.208  85.925 119.913  0.00  0.00     0.006 C 
ENDBRANCH   8  11
ENDBRANCH   7   8
ENDBRANCH   1   7
BRANCH   6  13
ATOM     13  N   LIG d   1      -0.515  91.719 118.775  0.00  0.00    -0.311 N 
ATOM     14  C   LIG d   1       0.634  92.035 118.181  0.00  0.00     0.210 C 
ATOM     15  C   LIG d   1       1.836  92.158 119.122  0.00  0.00     0.109 C 
ATOM     16  O   LIG d   1       0.765  92.257 116.968  0.00  0.00    -0.276 OA
ATOM     17  H   LIG d   1      -0.538  91.589 119.768  0.00  0.00     0.149 HD
ENDBRANCH   6  13
BRANCH   5  18
ATOM     18  N   LIG d   1      -2.012  93.933 117.294  0.00  0.00     0.381 N 
ATOM     19  H   LIG d   1      -2.185  93.842 116.313  0.00  0.00    -0.090 HD
ATOM     20  H   LIG d   1      -1.020  93.890 117.444  0.00  0.00    -0.090 HD
ATOM     21  H   LIG d   1      -2.368  94.803 117.622  0.00  0.00    -0.090 HD
ENDBRANCH   5  18
BRANCH   3  22
ATOM     22  C   LIG d   1      -6.018  91.356 117.793  0.00  0.00     0.382 C 
ATOM     23  O   LIG d   1      -6.598  90.649 116.933  0.00  0.00    -0.241 OA
ATOM     24  O   LIG d   1      -6.695  92.056 118.569  0.00  0.00    -0.241 OA
ENDBRANCH   3  22
TORSDOF 7
ENDMDL
MODEL 3
REMARK VINA RESULT:      -4.4      3.622      5.461
REMARK  7 active torsions:
REMARK  status: ('A' for Active; 'I' for Inactive)
REMARK    1  A    between atoms: C_2  and  C_3 
REMARK    2  A    between atoms: C_3  and  O_6 
REMARK    3  A    between atoms: C_3  and  C_4 
REMARK    4  A    between atoms: C_7  and  O_6 
REMARK    5  A    between atoms: C_9  and  C_10 
REMARK    6  A    between atoms: N_15  and  C_14 
REMARK    7  A    between atoms: N_20  and  C_19 
REMARK       I    between atoms: C_22  and  N_20 
ROOT
ATOM      1  C   LIG d   1       0.089  89.135 117.720  0.00  0.00     0.161 C 
ATOM      2  C   LIG d   1      -1.260  89.024 118.096  0.00  0.00     0.016 C 
ATOM      3  C   LIG d   1      -2.161  90.113 118.094  0.00  0.00     0.038 C 
ATOM      4  C   LIG d   1      -1.810  91.365 117.568  0.00  0.00     0.028 C 
ATOM      5  C   LIG d   1      -0.315  91.657 117.648  0.00  0.00    -0.047 C 
ATOM      6  C   LIG d   1       0.462  90.468 117.038  0.00  0.00     0.091 C 
ENDROOT
BRANCH   1   7
ATOM      7  O   LIG d   1       0.455  88.023 116.880  0.00  0.00    -0.368 OA
BRANCH   7   8
ATOM      8  C   LIG d   1       1.497  87.155 117.391  0.00  0.00     0.119 C 
BRANCH   8   9
ATOM      9  C   LIG d   1       1.656  85.988 116.396  0.00  0.00     0.028 C 
ATOM     10  C   LIG d   1       1.914  86.473 114.960  0.00  0.00     0.006 C 
ENDBRANCH   8   9
BRANCH   8  11
ATOM     11  C   LIG d   1       1.082  86.506 118.714  0.00  0.00     0.028 C 
ATOM     12  C   LIG d   1      -0.001  85.430 118.537  0.00  0.00     0.006 C 
ENDBRANCH   8  11
ENDBRANCH   7   8
ENDBRANCH   1   7
BRANCH   6  13
ATOM     13  N   LIG d   1       1.934  90.635 117.151  0.00  0.00    -0.311 N 
ATOM     14  C   LIG d   1       2.786  90.309 116.180  0.00  0.00     0.210 C 
ATOM     15  C   LIG d   1       4.263  90.542 116.511  0.00  0.00     0.109 C 
ATOM     16  O   LIG d   1       2.456  89.879 115.065  0.00  0.00    -0.276 OA
ATOM     17  H   LIG d   1       2.286  91.007 118.012  0.00  0.00     0.149 HD
ENDBRANCH   6  13
BRANCH   5  18
ATOM     18  N   LIG d   1      -0.072  92.930 116.942  0.00  0.00     0.381 N 
ATOM     19  H   LIG d   1      -0.423  92.871 116.007  0.00  0.00    -0.090 HD
ATOM     20  H   LIG d   1       0.919  93.092 116.897  0.00  0.00    -0.090 HD
ATOM     21  H   LIG d   1      -0.516  93.678 117.426  0.00  0.00    -0.090 HD
ENDBRANCH   5  18
BRANCH   3  22
ATOM     22  C   LIG d   1      -3.419  89.966 118.660  0.00  0.00     0.382 C 
ATOM     23  O   LIG d   1      -3.550  89.349 119.744  0.00  0.00    -0.241 OA
ATOM     24  O   LIG d   1      -4.429  90.404 118.077  0.00  0.00    -0.241 OA
ENDBRANCH   3  22
TORSDOF 7
ENDMDL
MODEL 4
REMARK VINA RESULT:      -4.4      6.273      8.691
REMARK  7 active torsions:
REMARK  status: ('A' for Active; 'I' for Inactive)
REMARK    1  A    between atoms: C_2  and  C_3 
REMARK    2  A    between atoms: C_3  and  O_6 
REMARK    3  A    between atoms: C_3  and  C_4 
REMARK    4  A    between atoms: C_7  and  O_6 
REMARK    5  A    between atoms: C_9  and  C_10 
REMARK    6  A    between atoms: N_15  and  C_14 
REMARK    7  A    between atoms: N_20  and  C_19 
REMARK       I    between atoms: C_22  and  N_20 
ROOT
ATOM      1  C   LIG d   1       2.585  87.799 115.601  0.00  0.00     0.161 C 
ATOM      2  C   LIG d   1       1.515  87.777 116.510  0.00  0.00     0.016 C 
ATOM      3  C   LIG d   1       1.222  88.841 117.394  0.00  0.00     0.038 C 
ATOM      4  C   LIG d   1       1.893  90.071 117.322  0.00  0.00     0.028 C 
ATOM      5  C   LIG d   1       3.308  89.956 116.765  0.00  0.00    -0.047 C 
ATOM      6  C   LIG d   1       3.261  89.176 115.431  0.00  0.00     0.091 C 
ENDROOT
BRANCH   1   7
ATOM      7  O   LIG d   1       2.152  87.293 114.323  0.00  0.00    -0.368 OA
BRANCH   7   8
ATOM      8  C   LIG d   1       2.216  85.855 114.152  0.00  0.00     0.119 C 
BRANCH   8   9
ATOM      9  C   LIG d   1       3.704  85.455 114.155  0.00  0.00     0.028 C 
ATOM     10  C   LIG d   1       4.330  85.511 112.751  0.00  0.00     0.006 C 
ENDBRANCH   8   9
BRANCH   8  11
ATOM     11  C   LIG d   1       1.685  85.433 112.779  0.00  0.00     0.028 C 
ATOM     12  C   LIG d   1       0.343  86.095 112.430  0.00  0.00     0.006 C 
ENDBRANCH   8  11
ENDBRANCH   7   8
ENDBRANCH   1   7
BRANCH   6  13
ATOM     13  N   LIG d   1       4.613  88.946 114.860  0.00  0.00    -0.311 N 
ATOM     14  C   LIG d   1       4.908  89.131 113.574  0.00  0.00     0.210 C 
ATOM     15  C   LIG d   1       6.357  88.817 113.191  0.00  0.00     0.109 C 
ATOM     16  O   LIG d   1       4.114  89.557 112.721  0.00  0.00    -0.276 OA
ATOM     17  H   LIG d   1       5.326  88.630 115.488  0.00  0.00     0.149 HD
ENDBRANCH   6  13
BRANCH   5  18
ATOM     18  N   LIG d   1       3.841  91.324 116.616  0.00  0.00     0.381 N 
ATOM     19  H   LIG d   1       4.453  91.365 115.825  0.00  0.00    -0.090 HD
ATOM     20  H   LIG d   1       4.370  91.558 117.437  0.00  0.00    -0.090 HD
ATOM     21  H   LIG d   1       3.092  91.971 116.499  0.00  0.00    -0.090 HD
ENDBRANCH   5  18
BRANCH   3  22
ATOM     22  C   LIG d   1       0.273  88.666 118.390  0.00  0.00     0.382 C 
ATOM     23  O   LIG d   1       0.196  89.489 119.334  0.00  0.00    -0.241 OA
ATOM     24  O   LIG d   1      -0.477  87.672 118.380  0.00  0.00    -0.241 OA
ENDBRANCH   3  22
TORSDOF 7
ENDMDL
MODEL 5
REMARK VINA RESULT:      -4.4      6.439      9.155
REMARK  7 active torsions:
REMARK  status: ('A' for Active; 'I' for Inactive)
REMARK    1  A    between atoms: C_2  and  C_3 
REMARK    2  A    between atoms: C_3  and  O_6 
REMARK    3  A    between atoms: C_3  and  C_4 
REMARK    4  A    between atoms: C_7  and  O_6 
REMARK    5  A    between atoms: C_9  and  C_10 
REMARK    6  A    between atoms: N_15  and  C_14 
REMARK    7  A    between atoms: N_20  and  C_19 
REMARK       I    between atoms: C_22  and  N_20 
ROOT
ATOM      1  C   LIG d   1       3.688  89.295 115.688  0.00  0.00     0.161 C 
ATOM      2  C   LIG d   1       2.438  89.924 115.807  0.00  0.00     0.016 C 
ATOM      3  C   LIG d   1       2.110  90.811 116.858  0.00  0.00     0.038 C 
ATOM      4  C   LIG d   1       3.068  91.249 117.784  0.00  0.00     0.028 C 
ATOM      5  C   LIG d   1       4.202  90.253 118.001  0.00  0.00    -0.047 C 
ATOM      6  C   LIG d   1       4.782  89.847 116.626  0.00  0.00     0.091 C 
ENDROOT
BRANCH   1   7
ATOM      7  O   LIG d   1       4.132  89.345 114.318  0.00  0.00    -0.368 OA
BRANCH   7   8
ATOM      8  C   LIG d   1       4.001  88.117 113.560  0.00  0.00     0.119 C 
BRANCH   8   9
ATOM      9  C   LIG d   1       5.297  87.934 112.747  0.00  0.00     0.028 C 
ATOM     10  C   LIG d   1       6.429  88.856 113.233  0.00  0.00     0.006 C 
ENDBRANCH   8   9
BRANCH   8  11
ATOM     11  C   LIG d   1       2.881  88.220 112.520  0.00  0.00     0.028 C 
ATOM     12  C   LIG d   1       1.989  86.970 112.480  0.00  0.00     0.006 C 
ENDBRANCH   8  11
ENDBRANCH   7   8
ENDBRANCH   1   7
BRANCH   6  13
ATOM     13  N   LIG d   1       5.841  88.811 116.742  0.00  0.00    -0.311 N 
ATOM     14  C   LIG d   1       7.142  89.093 116.773  0.00  0.00     0.210 C 
ATOM     15  C   LIG d   1       8.065  87.874 116.876  0.00  0.00     0.109 C 
ATOM     16  O   LIG d   1       7.618  90.238 116.758  0.00  0.00    -0.276 OA
ATOM     17  H   LIG d   1       5.542  87.857 116.791  0.00  0.00     0.149 HD
ENDBRANCH   6  13
BRANCH   5  18
ATOM     18  N   LIG d   1       5.197  90.895 118.881  0.00  0.00     0.381 N 
ATOM     19  H   LIG d   1       4.793  91.698 119.320  0.00  0.00    -0.090 HD
ATOM     20  H   LIG d   1       5.976  91.198 118.324  0.00  0.00    -0.090 HD
ATOM     21  H   LIG d   1       5.506  90.249 119.574  0.00  0.00    -0.090 HD
ENDBRANCH   5  18
BRANCH   3  22
ATOM     22  C   LIG d   1       0.800  91.238 117.014  0.00  0.00     0.382 C 
ATOM     23  O   LIG d   1      -0.141  90.411 116.942  0.00  0.00    -0.241 OA
ATOM     24  O   LIG d   1       0.544  92.445 117.181  0.00  0.00    -0.241 OA
ENDBRANCH   3  22
TORSDOF 7
ENDMDL
MODEL 6
REMARK VINA RESULT:      -4.3      6.822      9.138
REMARK  7 active torsions:
REMARK  status: ('A' for Active; 'I' for Inactive)
REMARK    1  A    between atoms: C_2  and  C_3 
REMARK    2  A    between atoms: C_3  and  O_6 
REMARK    3  A    between atoms: C_3  and  C_4 
REMARK    4  A    between atoms: C_7  and  O_6 
REMARK    5  A    between atoms: C_9  and  C_10 
REMARK    6  A    between atoms: N_15  and  C_14 
REMARK    7  A    between atoms: N_20  and  C_19 
REMARK       I    between atoms: C_22  and  N_20 
ROOT
ATOM      1  C   LIG d   1       3.577  90.558 116.669  0.00  0.00     0.161 C 
ATOM      2  C   LIG d   1       2.505  91.432 116.914  0.00  0.00     0.016 C 
ATOM      3  C   LIG d   1       2.627  92.620 117.671  0.00  0.00     0.038 C 
ATOM      4  C   LIG d   1       3.872  93.095 118.110  0.00  0.00     0.028 C 
ATOM      5  C   LIG d   1       4.902  91.990 118.319  0.00  0.00    -0.047 C 
ATOM      6  C   LIG d   1       4.965  91.116 117.046  0.00  0.00     0.091 C 
ENDROOT
BRANCH   1   7
ATOM      7  O   LIG d   1       3.562  90.141 115.290  0.00  0.00    -0.368 OA
BRANCH   7   8
ATOM      8  C   LIG d   1       3.006  88.829 115.026  0.00  0.00     0.119 C 
BRANCH   8   9
ATOM      9  C   LIG d   1       3.205  87.978 116.296  0.00  0.00     0.028 C 
ATOM     10  C   LIG d   1       4.228  86.848 116.090  0.00  0.00     0.006 C 
ENDBRANCH   8   9
BRANCH   8  11
ATOM     11  C   LIG d   1       3.785  88.104 113.926  0.00  0.00     0.028 C 
ATOM     12  C   LIG d   1       4.634  89.058 113.070  0.00  0.00     0.006 C 
ENDBRANCH   8  11
ENDBRANCH   7   8
ENDBRANCH   1   7
BRANCH   6  13
ATOM     13  N   LIG d   1       5.888  89.960 117.197  0.00  0.00    -0.311 N 
ATOM     14  C   LIG d   1       6.820  89.645 116.300  0.00  0.00     0.210 C 
ATOM     15  C   LIG d   1       7.651  88.404 116.640  0.00  0.00     0.109 C 
ATOM     16  O   LIG d   1       7.059  90.293 115.270  0.00  0.00    -0.276 OA
ATOM     17  H   LIG d   1       5.785  89.399 118.019  0.00  0.00     0.149 HD
ENDBRANCH   6  13
BRANCH   5  18
ATOM     18  N   LIG d   1       6.188  92.636 118.642  0.00  0.00     0.381 N 
ATOM     19  H   LIG d   1       6.041  93.375 119.299  0.00  0.00    -0.090 HD
ATOM     20  H   LIG d   1       6.572  93.032 117.802  0.00  0.00    -0.090 HD
ATOM     21  H   LIG d   1       6.821  91.965 119.021  0.00  0.00    -0.090 HD
ENDBRANCH   5  18
BRANCH   3  22
ATOM     22  C   LIG d   1       1.489  93.326 118.030  0.00  0.00     0.382 C 
ATOM     23  O   LIG d   1       1.557  94.223 118.904  0.00  0.00    -0.241 OA
ATOM     24  O   LIG d   1       0.386  93.047 117.523  0.00  0.00    -0.241 OA
ENDBRANCH   3  22
TORSDOF 7
ENDMDL
MODEL 7
REMARK VINA RESULT:      -4.3      2.626      5.859
REMARK  7 active torsions:
REMARK  status: ('A' for Active; 'I' for Inactive)
REMARK    1  A    between atoms: C_2  and  C_3 
REMARK    2  A    between atoms: C_3  and  O_6 
REMARK    3  A    between atoms: C_3  and  C_4 
REMARK    4  A    between atoms: C_7  and  O_6 
REMARK    5  A    between atoms: C_9  and  C_10 
REMARK    6  A    between atoms: N_15  and  C_14 
REMARK    7  A    between atoms: N_20  and  C_19 
REMARK       I    between atoms: C_22  and  N_20 
ROOT
ATOM      1  C   LIG d   1      -2.877  92.869 118.211  0.00  0.00     0.161 C 
ATOM      2  C   LIG d   1      -3.130  94.204 118.570  0.00  0.00     0.016 C 
ATOM      3  C   LIG d   1      -2.126  95.092 119.021  0.00  0.00     0.038 C 
ATOM      4  C   LIG d   1      -0.767  94.746 119.000  0.00  0.00     0.028 C 
ATOM      5  C   LIG d   1      -0.521  93.247 119.124  0.00  0.00    -0.047 C 
ATOM      6  C   LIG d   1      -1.383  92.508 118.075  0.00  0.00     0.091 C 
ENDROOT
BRANCH   1   7
ATOM      7  O   LIG d   1      -3.582  92.549 116.995  0.00  0.00    -0.368 OA
BRANCH   7   8
ATOM      8  C   LIG d   1      -4.694  91.629 117.127  0.00  0.00     0.119 C 
BRANCH   8   9
ATOM      9  C   LIG d   1      -5.954  92.348 116.608  0.00  0.00     0.028 C 
ATOM     10  C   LIG d   1      -6.224  92.061 115.122  0.00  0.00     0.006 C 
ENDBRANCH   8   9
BRANCH   8  11
ATOM     11  C   LIG d   1      -4.984  91.313 118.597  0.00  0.00     0.028 C 
ATOM     12  C   LIG d   1      -6.266  91.987 119.110  0.00  0.00     0.006 C 
ENDBRANCH   8  11
ENDBRANCH   7   8
ENDBRANCH   1   7
BRANCH   6  13
ATOM     13  N   LIG d   1      -1.266  91.031 118.184  0.00  0.00    -0.311 N 
ATOM     14  C   LIG d   1      -0.432  90.305 117.441  0.00  0.00     0.210 C 
ATOM     15  C   LIG d   1      -0.484  88.795 117.698  0.00  0.00     0.109 C 
ATOM     16  O   LIG d   1       0.369  90.770 116.616  0.00  0.00    -0.276 OA
ATOM     17  H   LIG d   1      -1.857  90.574 118.850  0.00  0.00     0.149 HD
ENDBRANCH   6  13
BRANCH   5  18
ATOM     18  N   LIG d   1       0.926  93.016 118.949  0.00  0.00     0.381 N 
ATOM     19  H   LIG d   1       1.437  93.531 119.638  0.00  0.00    -0.090 HD
ATOM     20  H   LIG d   1       1.200  93.347 118.040  0.00  0.00    -0.090 HD
ATOM     21  H   LIG d   1       1.129  92.045 119.032  0.00  0.00    -0.090 HD
ENDBRANCH   5  18
BRANCH   3  22
ATOM     22  C   LIG d   1      -2.484  96.327 119.538  0.00  0.00     0.382 C 
ATOM     23  O   LIG d   1      -1.596  97.130 119.915  0.00  0.00    -0.241 OA
ATOM     24  O   LIG d   1      -3.684  96.632 119.675  0.00  0.00    -0.241 OA
ENDBRANCH   3  22
TORSDOF 7
ENDMDL
MODEL 8
REMARK VINA RESULT:      -4.3      6.394      9.693
REMARK  7 active torsions:
REMARK  status: ('A' for Active; 'I' for Inactive)
REMARK    1  A    between atoms: C_2  and  C_3 
REMARK    2  A    between atoms: C_3  and  O_6 
REMARK    3  A    between atoms: C_3  and  C_4 
REMARK    4  A    between atoms: C_7  and  O_6 
REMARK    5  A    between atoms: C_9  and  C_10 
REMARK    6  A    between atoms: N_15  and  C_14 
REMARK    7  A    between atoms: N_20  and  C_19 
REMARK       I    between atoms: C_22  and  N_20 
ROOT
ATOM      1  C   LIG d   1       3.100  89.524 115.428  0.00  0.00     0.161 C 
ATOM      2  C   LIG d   1       4.477  89.668 115.192  0.00  0.00     0.016 C 
ATOM      3  C   LIG d   1       5.467  89.390 116.163  0.00  0.00     0.038 C 
ATOM      4  C   LIG d   1       5.150  88.802 117.397  0.00  0.00     0.028 C 
ATOM      5  C   LIG d   1       3.733  89.110 117.869  0.00  0.00    -0.047 C 
ATOM      6  C   LIG d   1       2.741  88.778 116.730  0.00  0.00     0.091 C 
ENDROOT
BRANCH   1   7
ATOM      7  O   LIG d   1       2.474  88.887 114.297  0.00  0.00    -0.368 OA
BRANCH   7   8
ATOM      8  C   LIG d   1       2.902  87.533 114.011  0.00  0.00     0.119 C 
BRANCH   8   9
ATOM      9  C   LIG d   1       3.380  87.498 112.546  0.00  0.00     0.028 C 
ATOM     10  C   LIG d   1       4.901  87.307 112.430  0.00  0.00     0.006 C 
ENDBRANCH   8   9
BRANCH   8  11
ATOM     11  C   LIG d   1       1.727  86.552 114.077  0.00  0.00     0.028 C 
ATOM     12  C   LIG d   1       1.533  85.765 112.771  0.00  0.00     0.006 C 
ENDBRANCH   8  11
ENDBRANCH   7   8
ENDBRANCH   1   7
BRANCH   6  13
ATOM     13  N   LIG d   1       1.340  89.129 117.078  0.00  0.00    -0.311 N 
ATOM     14  C   LIG d   1       0.461  88.250 117.556  0.00  0.00     0.210 C 
ATOM     15  C   LIG d   1      -0.936  88.817 117.831  0.00  0.00     0.109 C 
ATOM     16  O   LIG d   1       0.714  87.063 117.809  0.00  0.00    -0.276 OA
ATOM     17  H   LIG d   1       1.059  90.079 116.934  0.00  0.00     0.149 HD
ENDBRANCH   6  13
BRANCH   5  18
ATOM     18  N   LIG d   1       3.490  88.324 119.094  0.00  0.00     0.381 N 
ATOM     19  H   LIG d   1       4.162  87.586 119.161  0.00  0.00    -0.090 HD
ATOM     20  H   LIG d   1       2.575  87.914 119.040  0.00  0.00    -0.090 HD
ATOM     21  H   LIG d   1       3.552  88.914 119.894  0.00  0.00    -0.090 HD
ENDBRANCH   5  18
BRANCH   3  22
ATOM     22  C   LIG d   1       6.786  89.739 115.919  0.00  0.00     0.382 C 
ATOM     23  O   LIG d   1       7.074  90.445 114.923  0.00  0.00    -0.241 OA
ATOM     24  O   LIG d   1       7.697  89.320 116.658  0.00  0.00    -0.241 OA
ENDBRANCH   3  22
TORSDOF 7
ENDMDL
MODEL 9
REMARK VINA RESULT:      -4.3      2.712      5.993
REMARK  7 active torsions:
REMARK  status: ('A' for Active; 'I' for Inactive)
REMARK    1  A    between atoms: C_2  and  C_3 
REMARK    2  A    between atoms: C_3  and  O_6 
REMARK    3  A    between atoms: C_3  and  C_4 
REMARK    4  A    between atoms: C_7  and  O_6 
REMARK    5  A    between atoms: C_9  and  C_10 
REMARK    6  A    between atoms: N_15  and  C_14 
REMARK    7  A    between atoms: N_20  and  C_19 
REMARK       I    between atoms: C_22  and  N_20 
ROOT
ATOM      1  C   LIG d   1      -2.639  91.469 118.607  0.00  0.00     0.161 C 
ATOM      2  C   LIG d   1      -2.723  92.868 118.506  0.00  0.00     0.016 C 
ATOM      3  C   LIG d   1      -1.619  93.693 118.190  0.00  0.00     0.038 C 
ATOM      4  C   LIG d   1      -0.381  93.158 117.803  0.00  0.00     0.028 C 
ATOM      5  C   LIG d   1      -0.112  91.773 118.380  0.00  0.00    -0.047 C 
ATOM      6  C   LIG d   1      -1.323  90.860 118.079  0.00  0.00     0.091 C 
ENDROOT
BRANCH   1   7
ATOM      7  O   LIG d   1      -3.770  90.863 117.950  0.00  0.00    -0.368 OA
BRANCH   7   8
ATOM      8  C   LIG d   1      -4.793  91.773 117.475  0.00  0.00     0.119 C 
BRANCH   8   9
ATOM      9  C   LIG d   1      -6.088  91.457 118.248  0.00  0.00     0.028 C 
ATOM     10  C   LIG d   1      -6.195  92.249 119.562  0.00  0.00     0.006 C 
ENDBRANCH   8   9
BRANCH   8  11
ATOM     11  C   LIG d   1      -5.127  91.515 116.002  0.00  0.00     0.028 C 
ATOM     12  C   LIG d   1      -6.445  92.176 115.566  0.00  0.00     0.006 C 
ENDBRANCH   8  11
ENDBRANCH   7   8
ENDBRANCH   1   7
BRANCH   6  13
ATOM     13  N   LIG d   1      -1.179  89.510 118.682  0.00  0.00    -0.311 N 
ATOM     14  C   LIG d   1      -0.605  88.484 118.055  0.00  0.00     0.210 C 
ATOM     15  C   LIG d   1      -0.578  87.174 118.849  0.00  0.00     0.109 C 
ATOM     16  O   LIG d   1      -0.086  88.544 116.930  0.00  0.00    -0.276 OA
ATOM     17  H   LIG d   1      -1.545  89.381 119.605  0.00  0.00     0.149 HD
ENDBRANCH   6  13
BRANCH   5  18
ATOM     18  N   LIG d   1       1.145  91.279 117.788  0.00  0.00     0.381 N 
ATOM     19  H   LIG d   1       1.607  92.024 117.305  0.00  0.00    -0.090 HD
ATOM     20  H   LIG d   1       0.929  90.558 117.122  0.00  0.00    -0.090 HD
ATOM     21  H   LIG d   1       1.739  90.917 118.501  0.00  0.00    -0.090 HD
ENDBRANCH   5  18
BRANCH   3  22
ATOM     22  C   LIG d   1      -1.737  95.070 118.299  0.00  0.00     0.382 C 
ATOM     23  O   LIG d   1      -0.943  95.818 117.679  0.00  0.00    -0.241 OA
ATOM     24  O   LIG d   1      -2.598  95.573 119.045  0.00  0.00    -0.241 OA
ENDBRANCH   3  22
TORSDOF 7
ENDMDL
