MODEL 1
REMARK VINA RESULT:      -5.0      0.000      0.000
REMARK  7 active torsions:
REMARK  status: ('A' for Active; 'I' for Inactive)
REMARK    1  A    between atoms: C_2  and  C_3 
REMARK    2  A    between atoms: C_3  and  O_6 
REMARK    3  A    between atoms: C_3  and  C_4 
REMARK    4  A    between atoms: C_7  and  O_6 
REMARK    5  A    between atoms: C_9  and  C_10 
REMARK    6  A    between atoms: N_15  and  C_14 
REMARK    7  A    between atoms: N_20  and  C_19 
REMARK       I    between atoms: C_22  and  N_20 
ROOT
ATOM      1  C   LIG d   1      -6.269  92.293 119.010  0.00  0.00     0.161 C 
ATOM      2  C   LIG d   1      -7.517  92.937 118.986  0.00  0.00     0.016 C 
ATOM      3  C   LIG d   1      -7.674  94.334 119.138  0.00  0.00     0.038 C 
ATOM      4  C   LIG d   1      -6.575  95.205 119.173  0.00  0.00     0.028 C 
ATOM      5  C   LIG d   1      -5.303  94.554 119.706  0.00  0.00    -0.047 C 
ATOM      6  C   LIG d   1      -5.051  93.238 118.935  0.00  0.00     0.091 C 
ENDROOT
BRANCH   1   7
ATOM      7  O   LIG d   1      -6.206  91.311 117.956  0.00  0.00    -0.368 OA
BRANCH   7   8
ATOM      8  C   LIG d   1      -5.444  91.684 116.782  0.00  0.00     0.119 C 
BRANCH   8   9
ATOM      9  C   LIG d   1      -6.445  92.166 115.714  0.00  0.00     0.028 C 
ATOM     10  C   LIG d   1      -6.559  91.188 114.533  0.00  0.00     0.006 C 
ENDBRANCH   8   9
BRANCH   8  11
ATOM     11  C   LIG d   1      -4.744  90.470 116.163  0.00  0.00     0.028 C 
ATOM     12  C   LIG d   1      -3.968  89.639 117.196  0.00  0.00     0.006 C 
ENDBRANCH   8  11
ENDBRANCH   7   8
ENDBRANCH   1   7
BRANCH   6  13
ATOM     13  N   LIG d   1      -3.872  92.495 119.452  0.00  0.00    -0.311 N 
ATOM     14  C   LIG d   1      -2.650  92.611 118.937  0.00  0.00     0.210 C 
ATOM     15  C   LIG d   1      -1.581  91.740 119.606  0.00  0.00     0.109 C 
ATOM     16  O   LIG d   1      -2.342  93.376 118.010  0.00  0.00    -0.276 OA
ATOM     17  H   LIG d   1      -4.026  91.875 120.223  0.00  0.00     0.149 HD
ENDBRANCH   6  13
BRANCH   5  18
ATOM     18  N   LIG d   1      -4.207  95.530 119.558  0.00  0.00     0.381 N 
ATOM     19  H   LIG d   1      -3.578  95.453 120.333  0.00  0.00    -0.090 HD
ATOM     20  H   LIG d   1      -4.595  96.457 119.558  0.00  0.00    -0.090 HD
ATOM     21  H   LIG d   1      -3.718  95.366 118.706  0.00  0.00    -0.090 HD
ENDBRANCH   5  18
BRANCH   3  22
ATOM     22  C   LIG d   1      -8.944  94.869 119.297  0.00  0.00     0.382 C 
ATOM     23  O   LIG d   1      -9.918  94.113 119.531  0.00  0.00    -0.241 OA
ATOM     24  O   LIG d   1      -9.134  96.093 119.166  0.00  0.00    -0.241 OA
ENDBRANCH   3  22
TORSDOF 7
ENDMDL
MODEL 2
REMARK VINA RESULT:      -4.7      2.451      4.271
REMARK  7 active torsions:
REMARK  status: ('A' for Active; 'I' for Inactive)
REMARK    1  A    between atoms: C_2  and  C_3 
REMARK    2  A    between atoms: C_3  and  O_6 
REMARK    3  A    between atoms: C_3  and  C_4 
REMARK    4  A    between atoms: C_7  and  O_6 
REMARK    5  A    between atoms: C_9  and  C_10 
REMARK    6  A    between atoms: N_15  and  C_14 
REMARK    7  A    between atoms: N_20  and  C_19 
REMARK       I    between atoms: C_22  and  N_20 
ROOT
ATOM      1  C   LIG d   1      -4.557  91.627 118.356  0.00  0.00     0.161 C 
ATOM      2  C   LIG d   1      -4.887  92.761 119.117  0.00  0.00     0.016 C 
ATOM      3  C   LIG d   1      -5.908  93.670 118.756  0.00  0.00     0.038 C 
ATOM      4  C   LIG d   1      -6.776  93.422 117.682  0.00  0.00     0.028 C 
ATOM      5  C   LIG d   1      -6.158  92.552 116.592  0.00  0.00    -0.047 C 
ATOM      6  C   LIG d   1      -5.565  91.280 117.241  0.00  0.00     0.091 C 
ENDROOT
BRANCH   1   7
ATOM      7  O   LIG d   1      -4.362  90.495 119.226  0.00  0.00    -0.368 OA
BRANCH   7   8
ATOM      8  C   LIG d   1      -2.988  90.118 119.485  0.00  0.00     0.119 C 
BRANCH   8   9
ATOM      9  C   LIG d   1      -2.117  90.762 118.389  0.00  0.00     0.028 C 
ATOM     10  C   LIG d   1      -0.918  91.532 118.969  0.00  0.00     0.006 C 
ENDBRANCH   8   9
BRANCH   8  11
ATOM     11  C   LIG d   1      -2.785  88.608 119.328  0.00  0.00     0.028 C 
ATOM     12  C   LIG d   1      -2.442  88.199 117.887  0.00  0.00     0.006 C 
ENDBRANCH   8  11
ENDBRANCH   7   8
ENDBRANCH   1   7
BRANCH   6  13
ATOM     13  N   LIG d   1      -4.867  90.414 116.256  0.00  0.00    -0.311 N 
ATOM     14  C   LIG d   1      -5.460  89.410 115.613  0.00  0.00     0.210 C 
ATOM     15  C   LIG d   1      -4.553  88.630 114.655  0.00  0.00     0.109 C 
ATOM     16  O   LIG d   1      -6.658  89.110 115.721  0.00  0.00    -0.276 OA
ATOM     17  H   LIG d   1      -3.900  90.607 116.085  0.00  0.00     0.149 HD
ENDBRANCH   6  13
BRANCH   5  18
ATOM     18  N   LIG d   1      -7.213  92.260 115.604  0.00  0.00     0.381 N 
ATOM     19  H   LIG d   1      -7.715  93.097 115.387  0.00  0.00    -0.090 HD
ATOM     20  H   LIG d   1      -7.857  91.599 116.002  0.00  0.00    -0.090 HD
ATOM     21  H   LIG d   1      -6.808  91.882 114.775  0.00  0.00    -0.090 HD
ENDBRANCH   5  18
BRANCH   3  22
ATOM     22  C   LIG d   1      -6.043  94.862 119.450  0.00  0.00     0.382 C 
ATOM     23  O   LIG d   1      -7.176  95.385 119.584  0.00  0.00    -0.241 OA
ATOM     24  O   LIG d   1      -5.041  95.445 119.907  0.00  0.00    -0.241 OA
ENDBRANCH   3  22
TORSDOF 7
ENDMDL
MODEL 3
REMARK VINA RESULT:      -4.4      2.834      4.863
REMARK  7 active torsions:
REMARK  status: ('A' for Active; 'I' for Inactive)
REMARK    1  A    between atoms: C_2  and  C_3 
REMARK    2  A    between atoms: C_3  and  O_6 
REMARK    3  A    between atoms: C_3  and  C_4 
REMARK    4  A    between atoms: C_7  and  O_6 
REMARK    5  A    between atoms: C_9  and  C_10 
REMARK    6  A    between atoms: N_15  and  C_14 
REMARK    7  A    between atoms: N_20  and  C_19 
REMARK       I    between atoms: C_22  and  N_20 
ROOT
ATOM      1  C   LIG d   1      -4.045  91.514 117.343  0.00  0.00     0.161 C 
ATOM      2  C   LIG d   1      -3.413  92.506 118.110  0.00  0.00     0.016 C 
ATOM      3  C   LIG d   1      -4.102  93.353 119.009  0.00  0.00     0.038 C 
ATOM      4  C   LIG d   1      -5.458  93.162 119.315  0.00  0.00     0.028 C 
ATOM      5  C   LIG d   1      -6.246  92.499 118.190  0.00  0.00    -0.047 C 
ATOM      6  C   LIG d   1      -5.505  91.217 117.746  0.00  0.00     0.091 C 
ENDROOT
BRANCH   1   7
ATOM      7  O   LIG d   1      -3.262  90.304 117.368  0.00  0.00    -0.368 OA
BRANCH   7   8
ATOM      8  C   LIG d   1      -2.416  90.116 118.529  0.00  0.00     0.119 C 
BRANCH   8   9
ATOM      9  C   LIG d   1      -0.992  89.821 118.021  0.00  0.00     0.028 C 
ATOM     10  C   LIG d   1      -0.055  91.032 118.164  0.00  0.00     0.006 C 
ENDBRANCH   8   9
BRANCH   8  11
ATOM     11  C   LIG d   1      -2.829  88.874 119.324  0.00  0.00     0.028 C 
ATOM     12  C   LIG d   1      -2.072  87.609 118.890  0.00  0.00     0.006 C 
ENDBRANCH   8  11
ENDBRANCH   7   8
ENDBRANCH   1   7
BRANCH   6  13
ATOM     13  N   LIG d   1      -6.164  90.552 116.592  0.00  0.00    -0.311 N 
ATOM     14  C   LIG d   1      -6.321  91.133 115.404  0.00  0.00     0.210 C 
ATOM     15  C   LIG d   1      -7.045  90.279 114.358  0.00  0.00     0.109 C 
ATOM     16  O   LIG d   1      -5.901  92.261 115.107  0.00  0.00    -0.276 OA
ATOM     17  H   LIG d   1      -6.507  89.623 116.736  0.00  0.00     0.149 HD
ENDBRANCH   6  13
BRANCH   5  18
ATOM     18  N   LIG d   1      -7.607  92.235 118.694  0.00  0.00     0.381 N 
ATOM     19  H   LIG d   1      -7.963  93.051 119.150  0.00  0.00    -0.090 HD
ATOM     20  H   LIG d   1      -7.565  91.491 119.368  0.00  0.00    -0.090 HD
ATOM     21  H   LIG d   1      -8.205  91.978 117.941  0.00  0.00    -0.090 HD
ENDBRANCH   5  18
BRANCH   3  22
ATOM     22  C   LIG d   1      -3.443  94.429 119.582  0.00  0.00     0.382 C 
ATOM     23  O   LIG d   1      -2.208  94.367 119.795  0.00  0.00    -0.241 OA
ATOM     24  O   LIG d   1      -4.075  95.445 119.929  0.00  0.00    -0.241 OA
ENDBRANCH   3  22
TORSDOF 7
ENDMDL
MODEL 4
REMARK VINA RESULT:      -4.4      5.726      8.258
REMARK  7 active torsions:
REMARK  status: ('A' for Active; 'I' for Inactive)
REMARK    1  A    between atoms: C_2  and  C_3 
REMARK    2  A    between atoms: C_3  and  O_6 
REMARK    3  A    between atoms: C_3  and  C_4 
REMARK    4  A    between atoms: C_7  and  O_6 
REMARK    5  A    between atoms: C_9  and  C_10 
REMARK    6  A    between atoms: N_15  and  C_14 
REMARK    7  A    between atoms: N_20  and  C_19 
REMARK       I    between atoms: C_22  and  N_20 
ROOT
ATOM      1  C   LIG d   1       0.717  88.430 117.310  0.00  0.00     0.161 C 
ATOM      2  C   LIG d   1      -0.570  88.075 117.747  0.00  0.00     0.016 C 
ATOM      3  C   LIG d   1      -1.566  89.021 118.084  0.00  0.00     0.038 C 
ATOM      4  C   LIG d   1      -1.389  90.394 117.860  0.00  0.00     0.028 C 
ATOM      5  C   LIG d   1       0.071  90.831 117.896  0.00  0.00    -0.047 C 
ATOM      6  C   LIG d   1       0.891  89.921 116.954  0.00  0.00     0.091 C 
ENDROOT
BRANCH   1   7
ATOM      7  O   LIG d   1       1.100  87.600 116.195  0.00  0.00    -0.368 OA
BRANCH   7   8
ATOM      8  C   LIG d   1       1.704  86.326 116.527  0.00  0.00     0.119 C 
BRANCH   8   9
ATOM      9  C   LIG d   1       3.149  86.603 116.985  0.00  0.00     0.028 C 
ATOM     10  C   LIG d   1       4.155  86.541 115.823  0.00  0.00     0.006 C 
ENDBRANCH   8   9
BRANCH   8  11
ATOM     11  C   LIG d   1       1.835  85.433 115.290  0.00  0.00     0.028 C 
ATOM     12  C   LIG d   1       0.802  85.767 114.201  0.00  0.00     0.006 C 
ENDBRANCH   8  11
ENDBRANCH   7   8
ENDBRANCH   1   7
BRANCH   6  13
ATOM     13  N   LIG d   1       2.345  90.226 116.994  0.00  0.00    -0.311 N 
ATOM     14  C   LIG d   1       3.135  90.169 115.923  0.00  0.00     0.210 C 
ATOM     15  C   LIG d   1       4.607  90.503 116.188  0.00  0.00     0.109 C 
ATOM     16  O   LIG d   1       2.752  89.905 114.774  0.00  0.00    -0.276 OA
ATOM     17  H   LIG d   1       2.733  90.480 117.881  0.00  0.00     0.149 HD
ENDBRANCH   6  13
BRANCH   5  18
ATOM     18  N   LIG d   1       0.120  92.255 117.512  0.00  0.00     0.381 N 
ATOM     19  H   LIG d   1      -0.470  92.790 118.118  0.00  0.00    -0.090 HD
ATOM     20  H   LIG d   1      -0.223  92.350 116.573  0.00  0.00    -0.090 HD
ATOM     21  H   LIG d   1       1.056  92.591 117.568  0.00  0.00    -0.090 HD
ENDBRANCH   5  18
BRANCH   3  22
ATOM     22  C   LIG d   1      -2.739  88.597 118.689  0.00  0.00     0.382 C 
ATOM     23  O   LIG d   1      -2.773  87.498 119.292  0.00  0.00    -0.241 OA
ATOM     24  O   LIG d   1      -3.777  89.280 118.601  0.00  0.00    -0.241 OA
ENDBRANCH   3  22
TORSDOF 7
ENDMDL
MODEL 5
REMARK VINA RESULT:      -4.3      8.052     10.914
REMARK  7 active torsions:
REMARK  status: ('A' for Active; 'I' for Inactive)
REMARK    1  A    between atoms: C_2  and  C_3 
REMARK    2  A    between atoms: C_3  and  O_6 
REMARK    3  A    between atoms: C_3  and  C_4 
REMARK    4  A    between atoms: C_7  and  O_6 
REMARK    5  A    between atoms: C_9  and  C_10 
REMARK    6  A    between atoms: N_15  and  C_14 
REMARK    7  A    between atoms: N_20  and  C_19 
REMARK       I    between atoms: C_22  and  N_20 
ROOT
ATOM      1  C   LIG d   1       3.321  89.997 116.588  0.00  0.00     0.161 C 
ATOM      2  C   LIG d   1       3.228  89.451 115.297  0.00  0.00     0.016 C 
ATOM      3  C   LIG d   1       4.354  89.164 114.491  0.00  0.00     0.038 C 
ATOM      4  C   LIG d   1       5.663  89.264 114.983  0.00  0.00     0.028 C 
ATOM      5  C   LIG d   1       5.813  90.287 116.103  0.00  0.00    -0.047 C 
ATOM      6  C   LIG d   1       4.744  90.008 117.185  0.00  0.00     0.091 C 
ENDROOT
BRANCH   1   7
ATOM      7  O   LIG d   1       2.412  89.314 117.474  0.00  0.00    -0.368 OA
BRANCH   7   8
ATOM      8  C   LIG d   1       1.044  89.791 117.475  0.00  0.00     0.119 C 
BRANCH   8   9
ATOM      9  C   LIG d   1       0.911  90.811 118.623  0.00  0.00     0.028 C 
ATOM     10  C   LIG d   1       0.526  92.213 118.120  0.00  0.00     0.006 C 
ENDBRANCH   8   9
BRANCH   8  11
ATOM     11  C   LIG d   1       0.062  88.667 117.817  0.00  0.00     0.028 C 
ATOM     12  C   LIG d   1       0.292  87.399 116.978  0.00  0.00     0.006 C 
ENDBRANCH   8  11
ENDBRANCH   7   8
ENDBRANCH   1   7
BRANCH   6  13
ATOM     13  N   LIG d   1       4.766  91.016 118.277  0.00  0.00    -0.311 N 
ATOM     14  C   LIG d   1       4.362  92.275 118.121  0.00  0.00     0.210 C 
ATOM     15  C   LIG d   1       4.487  93.154 119.369  0.00  0.00     0.109 C 
ATOM     16  O   LIG d   1       3.881  92.739 117.076  0.00  0.00    -0.276 OA
ATOM     17  H   LIG d   1       5.112  90.716 119.167  0.00  0.00     0.149 HD
ENDBRANCH   6  13
BRANCH   5  18
ATOM     18  N   LIG d   1       7.193  90.189 116.615  0.00  0.00     0.381 N 
ATOM     19  H   LIG d   1       7.776  90.853 116.147  0.00  0.00    -0.090 HD
ATOM     20  H   LIG d   1       7.546  89.268 116.424  0.00  0.00    -0.090 HD
ATOM     21  H   LIG d   1       7.206  90.360 117.597  0.00  0.00    -0.090 HD
ENDBRANCH   5  18
BRANCH   3  22
ATOM     22  C   LIG d   1       4.175  88.810 113.162  0.00  0.00     0.382 C 
ATOM     23  O   LIG d   1       5.161  88.471 112.465  0.00  0.00    -0.241 OA
ATOM     24  O   LIG d   1       3.046  88.869 112.639  0.00  0.00    -0.241 OA
ENDBRANCH   3  22
TORSDOF 7
ENDMDL
MODEL 6
REMARK VINA RESULT:      -4.3      9.123     12.073
REMARK  7 active torsions:
REMARK  status: ('A' for Active; 'I' for Inactive)
REMARK    1  A    between atoms: C_2  and  C_3 
REMARK    2  A    between atoms: C_3  and  O_6 
REMARK    3  A    between atoms: C_3  and  C_4 
REMARK    4  A    between atoms: C_7  and  O_6 
REMARK    5  A    between atoms: C_9  and  C_10 
REMARK    6  A    between atoms: N_15  and  C_14 
REMARK    7  A    between atoms: N_20  and  C_19 
REMARK       I    between atoms: C_22  and  N_20 
ROOT
ATOM      1  C   LIG d   1       4.632  89.941 115.002  0.00  0.00     0.161 C 
ATOM      2  C   LIG d   1       3.780  89.096 114.273  0.00  0.00     0.016 C 
ATOM      3  C   LIG d   1       3.897  87.687 114.269  0.00  0.00     0.038 C 
ATOM      4  C   LIG d   1       4.787  87.015 115.121  0.00  0.00     0.028 C 
ATOM      5  C   LIG d   1       6.009  87.846 115.498  0.00  0.00    -0.047 C 
ATOM      6  C   LIG d   1       5.537  89.221 116.024  0.00  0.00     0.091 C 
ENDROOT
BRANCH   1   7
ATOM      7  O   LIG d   1       3.860  90.969 115.654  0.00  0.00    -0.368 OA
BRANCH   7   8
ATOM      8  C   LIG d   1       3.122  90.561 116.832  0.00  0.00     0.119 C 
BRANCH   8   9
ATOM      9  C   LIG d   1       1.629  90.831 116.559  0.00  0.00     0.028 C 
ATOM     10  C   LIG d   1       0.710  89.844 117.297  0.00  0.00     0.006 C 
ENDBRANCH   8   9
BRANCH   8  11
ATOM     11  C   LIG d   1       3.476  91.431 118.041  0.00  0.00     0.028 C 
ATOM     12  C   LIG d   1       4.179  92.740 117.648  0.00  0.00     0.006 C 
ENDBRANCH   8  11
ENDBRANCH   7   8
ENDBRANCH   1   7
BRANCH   6  13
ATOM     13  N   LIG d   1       6.673  90.128 116.336  0.00  0.00    -0.311 N 
ATOM     14  C   LIG d   1       7.148  90.310 117.567  0.00  0.00     0.210 C 
ATOM     15  C   LIG d   1       8.310  91.303 117.671  0.00  0.00     0.109 C 
ATOM     16  O   LIG d   1       6.740  89.719 118.578  0.00  0.00    -0.276 OA
ATOM     17  H   LIG d   1       7.085  90.624 115.570  0.00  0.00     0.149 HD
ENDBRANCH   6  13
BRANCH   5  18
ATOM     18  N   LIG d   1       6.779  87.079 116.495  0.00  0.00     0.381 N 
ATOM     19  H   LIG d   1       7.038  86.191 116.113  0.00  0.00    -0.090 HD
ATOM     20  H   LIG d   1       6.200  86.918 117.300  0.00  0.00    -0.090 HD
ATOM     21  H   LIG d   1       7.595  87.586 116.759  0.00  0.00    -0.090 HD
ENDBRANCH   5  18
BRANCH   3  22
ATOM     22  C   LIG d   1       3.146  86.936 113.377  0.00  0.00     0.382 C 
ATOM     23  O   LIG d   1       3.711  86.337 112.431  0.00  0.00    -0.241 OA
ATOM     24  O   LIG d   1       1.906  86.888 113.481  0.00  0.00    -0.241 OA
ENDBRANCH   3  22
TORSDOF 7
ENDMDL
MODEL 7
REMARK VINA RESULT:      -4.3      3.132      4.941
REMARK  7 active torsions:
REMARK  status: ('A' for Active; 'I' for Inactive)
REMARK    1  A    between atoms: C_2  and  C_3 
REMARK    2  A    between atoms: C_3  and  O_6 
REMARK    3  A    between atoms: C_3  and  C_4 
REMARK    4  A    between atoms: C_7  and  O_6 
REMARK    5  A    between atoms: C_9  and  C_10 
REMARK    6  A    between atoms: N_15  and  C_14 
REMARK    7  A    between atoms: N_20  and  C_19 
REMARK       I    between atoms: C_22  and  N_20 
ROOT
ATOM      1  C   LIG d   1      -2.192  90.866 119.733  0.00  0.00     0.161 C 
ATOM      2  C   LIG d   1      -3.539  90.637 119.405  0.00  0.00     0.016 C 
ATOM      3  C   LIG d   1      -4.265  91.439 118.495  0.00  0.00     0.038 C 
ATOM      4  C   LIG d   1      -3.646  92.439 117.731  0.00  0.00     0.028 C 
ATOM      5  C   LIG d   1      -2.410  93.034 118.398  0.00  0.00    -0.047 C 
ATOM      6  C   LIG d   1      -1.469  91.884 118.826  0.00  0.00     0.091 C 
ENDROOT
BRANCH   1   7
ATOM      7  O   LIG d   1      -1.475  89.616 119.753  0.00  0.00    -0.368 OA
BRANCH   7   8
ATOM      8  C   LIG d   1      -1.104  89.073 118.462  0.00  0.00     0.119 C 
BRANCH   8   9
ATOM      9  C   LIG d   1      -1.878  87.754 118.275  0.00  0.00     0.028 C 
ATOM     10  C   LIG d   1      -1.981  86.944 119.578  0.00  0.00     0.006 C 
ENDBRANCH   8   9
BRANCH   8  11
ATOM     11  C   LIG d   1       0.377  88.683 118.427  0.00  0.00     0.028 C 
ATOM     12  C   LIG d   1       1.097  88.956 119.757  0.00  0.00     0.006 C 
ENDBRANCH   8  11
ENDBRANCH   7   8
ENDBRANCH   1   7
BRANCH   6  13
ATOM     13  N   LIG d   1      -0.275  92.374 119.563  0.00  0.00    -0.311 N 
ATOM     14  C   LIG d   1       0.907  92.584 118.985  0.00  0.00     0.210 C 
ATOM     15  C   LIG d   1       2.010  93.071 119.930  0.00  0.00     0.109 C 
ATOM     16  O   LIG d   1       1.137  92.445 117.775  0.00  0.00    -0.276 OA
ATOM     17  H   LIG d   1      -0.381  92.542 120.544  0.00  0.00     0.149 HD
ENDBRANCH   6  13
BRANCH   5  18
ATOM     18  N   LIG d   1      -1.787  93.962 117.436  0.00  0.00     0.381 N 
ATOM     19  H   LIG d   1      -0.912  94.287 117.796  0.00  0.00    -0.090 HD
ATOM     20  H   LIG d   1      -2.391  94.756 117.312  0.00  0.00    -0.090 HD
ATOM     21  H   LIG d   1      -1.645  93.504 116.562  0.00  0.00    -0.090 HD
ENDBRANCH   5  18
BRANCH   3  22
ATOM     22  C   LIG d   1      -5.635  91.269 118.371  0.00  0.00     0.382 C 
ATOM     23  O   LIG d   1      -6.095  90.198 117.905  0.00  0.00    -0.241 OA
ATOM     24  O   LIG d   1      -6.416  92.189 118.678  0.00  0.00    -0.241 OA
ENDBRANCH   3  22
TORSDOF 7
ENDMDL
MODEL 8
REMARK VINA RESULT:      -4.3      7.870     10.533
REMARK  7 active torsions:
REMARK  status: ('A' for Active; 'I' for Inactive)
REMARK    1  A    between atoms: C_2  and  C_3 
REMARK    2  A    between atoms: C_3  and  O_6 
REMARK    3  A    between atoms: C_3  and  C_4 
REMARK    4  A    between atoms: C_7  and  O_6 
REMARK    5  A    between atoms: C_9  and  C_10 
REMARK    6  A    between atoms: N_15  and  C_14 
REMARK    7  A    between atoms: N_20  and  C_19 
REMARK       I    between atoms: C_22  and  N_20 
ROOT
ATOM      1  C   LIG d   1       3.584  90.201 116.267  0.00  0.00     0.161 C 
ATOM      2  C   LIG d   1       2.447  90.972 116.563  0.00  0.00     0.016 C 
ATOM      3  C   LIG d   1       2.381  91.874 117.649  0.00  0.00     0.038 C 
ATOM      4  C   LIG d   1       3.506  92.180 118.429  0.00  0.00     0.028 C 
ATOM      5  C   LIG d   1       4.531  91.053 118.482  0.00  0.00    -0.047 C 
ATOM      6  C   LIG d   1       4.858  90.603 117.039  0.00  0.00     0.091 C 
ENDROOT
BRANCH   1   7
ATOM      7  O   LIG d   1       3.831  90.220 114.847  0.00  0.00    -0.368 OA
BRANCH   7   8
ATOM      8  C   LIG d   1       3.556  88.989 114.135  0.00  0.00     0.119 C 
BRANCH   8   9
ATOM      9  C   LIG d   1       3.275  87.899 115.187  0.00  0.00     0.028 C 
ATOM     10  C   LIG d   1       4.261  86.722 115.091  0.00  0.00     0.006 C 
ENDBRANCH   8   9
BRANCH   8  11
ATOM     11  C   LIG d   1       4.787  88.503 113.365  0.00  0.00     0.028 C 
ATOM     12  C   LIG d   1       5.912  89.549 113.318  0.00  0.00     0.006 C 
ENDBRANCH   8  11
ENDBRANCH   7   8
ENDBRANCH   1   7
BRANCH   6  13
ATOM     13  N   LIG d   1       5.790  89.447 117.003  0.00  0.00    -0.311 N 
ATOM     14  C   LIG d   1       7.113  89.574 116.912  0.00  0.00     0.210 C 
ATOM     15  C   LIG d   1       7.888  88.253 116.869  0.00  0.00     0.109 C 
ATOM     16  O   LIG d   1       7.720  90.655 116.894  0.00  0.00    -0.276 OA
ATOM     17  H   LIG d   1       5.385  88.532 117.044  0.00  0.00     0.149 HD
ENDBRANCH   6  13
BRANCH   5  18
ATOM     18  N   LIG d   1       5.711  91.557 119.211  0.00  0.00     0.381 N 
ATOM     19  H   LIG d   1       6.500  90.970 119.025  0.00  0.00    -0.090 HD
ATOM     20  H   LIG d   1       5.520  91.526 120.197  0.00  0.00    -0.090 HD
ATOM     21  H   LIG d   1       5.910  92.492 118.932  0.00  0.00    -0.090 HD
ENDBRANCH   5  18
BRANCH   3  22
ATOM     22  C   LIG d   1       1.167  92.451 117.990  0.00  0.00     0.382 C 
ATOM     23  O   LIG d   1       1.135  93.426 118.779  0.00  0.00    -0.241 OA
ATOM     24  O   LIG d   1       0.099  91.981 117.553  0.00  0.00    -0.241 OA
ENDBRANCH   3  22
TORSDOF 7
ENDMDL
MODEL 9
REMARK VINA RESULT:      -4.2      2.384      4.286
REMARK  7 active torsions:
REMARK  status: ('A' for Active; 'I' for Inactive)
REMARK    1  A    between atoms: C_2  and  C_3 
REMARK    2  A    between atoms: C_3  and  O_6 
REMARK    3  A    between atoms: C_3  and  C_4 
REMARK    4  A    between atoms: C_7  and  O_6 
REMARK    5  A    between atoms: C_9  and  C_10 
REMARK    6  A    between atoms: N_15  and  C_14 
REMARK    7  A    between atoms: N_20  and  C_19 
REMARK       I    between atoms: C_22  and  N_20 
ROOT
ATOM      1  C   LIG d   1      -4.050  91.991 118.448  0.00  0.00     0.161 C 
ATOM      2  C   LIG d   1      -5.053  92.970 118.546  0.00  0.00     0.016 C 
ATOM      3  C   LIG d   1      -6.359  92.800 118.032  0.00  0.00     0.038 C 
ATOM      4  C   LIG d   1      -6.798  91.572 117.516  0.00  0.00     0.028 C 
ATOM      5  C   LIG d   1      -5.673  90.720 116.939  0.00  0.00    -0.047 C 
ATOM      6  C   LIG d   1      -4.543  90.604 117.987  0.00  0.00     0.091 C 
ENDROOT
BRANCH   1   7
ATOM      7  O   LIG d   1      -3.349  91.882 119.703  0.00  0.00    -0.368 OA
BRANCH   7   8
ATOM      8  C   LIG d   1      -2.029  92.478 119.750  0.00  0.00     0.119 C 
BRANCH   8   9
ATOM      9  C   LIG d   1      -1.757  93.109 118.371  0.00  0.00     0.028 C 
ATOM     10  C   LIG d   1      -1.662  94.643 118.436  0.00  0.00     0.006 C 
ENDBRANCH   8   9
BRANCH   8  11
ATOM     11  C   LIG d   1      -0.943  91.413 119.930  0.00  0.00     0.028 C 
ATOM     12  C   LIG d   1      -0.019  91.292 118.708  0.00  0.00     0.006 C 
ENDBRANCH   8  11
ENDBRANCH   7   8
ENDBRANCH   1   7
BRANCH   6  13
ATOM     13  N   LIG d   1      -3.367  89.856 117.472  0.00  0.00    -0.311 N 
ATOM     14  C   LIG d   1      -2.803  88.839 118.121  0.00  0.00     0.210 C 
ATOM     15  C   LIG d   1      -1.588  88.220 117.423  0.00  0.00     0.109 C 
ATOM     16  O   LIG d   1      -3.214  88.369 119.192  0.00  0.00    -0.276 OA
ATOM     17  H   LIG d   1      -2.988  90.151 116.593  0.00  0.00     0.149 HD
ENDBRANCH   6  13
BRANCH   5  18
ATOM     18  N   LIG d   1      -6.250  89.415 116.563  0.00  0.00     0.381 N 
ATOM     19  H   LIG d   1      -5.725  89.017 115.810  0.00  0.00    -0.090 HD
ATOM     20  H   LIG d   1      -7.194  89.556 116.249  0.00  0.00    -0.090 HD
ATOM     21  H   LIG d   1      -6.240  88.800 117.346  0.00  0.00    -0.090 HD
ENDBRANCH   5  18
BRANCH   3  22
ATOM     22  C   LIG d   1      -7.229  93.879 117.996  0.00  0.00     0.382 C 
ATOM     23  O   LIG d   1      -8.373  93.746 117.499  0.00  0.00    -0.241 OA
ATOM     24  O   LIG d   1      -6.868  94.996 118.414  0.00  0.00    -0.241 OA
ENDBRANCH   3  22
TORSDOF 7
ENDMDL
