MODEL 1
REMARK VINA RESULT:      -5.3      0.000      0.000
REMARK  7 active torsions:
REMARK  status: ('A' for Active; 'I' for Inactive)
REMARK    1  A    between atoms: C_2  and  C_3 
REMARK    2  A    between atoms: C_3  and  O_6 
REMARK    3  A    between atoms: C_3  and  C_4 
REMARK    4  A    between atoms: C_7  and  O_6 
REMARK    5  A    between atoms: C_9  and  C_10 
REMARK    6  A    between atoms: N_15  and  C_14 
REMARK    7  A    between atoms: N_20  and  C_19 
REMARK       I    between atoms: C_22  and  N_20 
ROOT
ATOM      1  C   LIG d   1      -4.059  92.302 117.142  0.00  0.00     0.161 C 
ATOM      2  C   LIG d   1      -3.577  93.234 118.076  0.00  0.00     0.016 C 
ATOM      3  C   LIG d   1      -4.412  94.128 118.785  0.00  0.00     0.038 C 
ATOM      4  C   LIG d   1      -5.811  94.046 118.719  0.00  0.00     0.028 C 
ATOM      5  C   LIG d   1      -6.322  93.458 117.408  0.00  0.00    -0.047 C 
ATOM      6  C   LIG d   1      -5.591  92.123 117.138  0.00  0.00     0.091 C 
ENDROOT
BRANCH   1   7
ATOM      7  O   LIG d   1      -3.406  91.032 117.337  0.00  0.00    -0.368 OA
BRANCH   7   8
ATOM      8  C   LIG d   1      -2.489  90.952 118.456  0.00  0.00     0.119 C 
BRANCH   8   9
ATOM      9  C   LIG d   1      -1.108  90.560 117.896  0.00  0.00     0.028 C 
ATOM     10  C   LIG d   1      -0.188  91.777 117.699  0.00  0.00     0.006 C 
ENDBRANCH   8   9
BRANCH   8  11
ATOM     11  C   LIG d   1      -2.874  89.820 119.413  0.00  0.00     0.028 C 
ATOM     12  C   LIG d   1      -2.568  88.427 118.841  0.00  0.00     0.006 C 
ENDBRANCH   8  11
ENDBRANCH   7   8
ENDBRANCH   1   7
BRANCH   6  13
ATOM     13  N   LIG d   1      -5.971  91.522 115.833  0.00  0.00    -0.311 N 
ATOM     14  C   LIG d   1      -6.908  90.585 115.703  0.00  0.00     0.210 C 
ATOM     15  C   LIG d   1      -7.130  90.087 114.271  0.00  0.00     0.109 C 
ATOM     16  O   LIG d   1      -7.600  90.141 116.632  0.00  0.00    -0.276 OA
ATOM     17  H   LIG d   1      -5.482  91.846 115.022  0.00  0.00     0.149 HD
ENDBRANCH   6  13
BRANCH   5  18
ATOM     18  N   LIG d   1      -7.784  93.303 117.529  0.00  0.00     0.381 N 
ATOM     19  H   LIG d   1      -7.998  92.700 118.298  0.00  0.00    -0.090 HD
ATOM     20  H   LIG d   1      -8.136  92.880 116.689  0.00  0.00    -0.090 HD
ATOM     21  H   LIG d   1      -8.211  94.193 117.666  0.00  0.00    -0.090 HD
ENDBRANCH   5  18
BRANCH   3  22
ATOM     22  C   LIG d   1      -3.846  95.143 119.541  0.00  0.00     0.382 C 
ATOM     23  O   LIG d   1      -4.551  96.109 119.920  0.00  0.00    -0.241 OA
ATOM     24  O   LIG d   1      -2.630  95.127 119.811  0.00  0.00    -0.241 OA
ENDBRANCH   3  22
TORSDOF 7
ENDMDL
MODEL 2
REMARK VINA RESULT:      -5.1      1.678      4.653
REMARK  7 active torsions:
REMARK  status: ('A' for Active; 'I' for Inactive)
REMARK    1  A    between atoms: C_2  and  C_3 
REMARK    2  A    between atoms: C_3  and  O_6 
REMARK    3  A    between atoms: C_3  and  C_4 
REMARK    4  A    between atoms: C_7  and  O_6 
REMARK    5  A    between atoms: C_9  and  C_10 
REMARK    6  A    between atoms: N_15  and  C_14 
REMARK    7  A    between atoms: N_20  and  C_19 
REMARK       I    between atoms: C_22  and  N_20 
ROOT
ATOM      1  C   LIG d   1      -4.231  91.345 117.585  0.00  0.00     0.161 C 
ATOM      2  C   LIG d   1      -5.120  90.541 116.852  0.00  0.00     0.016 C 
ATOM      3  C   LIG d   1      -6.341  91.016 116.320  0.00  0.00     0.038 C 
ATOM      4  C   LIG d   1      -6.687  92.375 116.356  0.00  0.00     0.028 C 
ATOM      5  C   LIG d   1      -6.060  93.129 117.524  0.00  0.00    -0.047 C 
ATOM      6  C   LIG d   1      -4.539  92.857 117.539  0.00  0.00     0.091 C 
ENDROOT
BRANCH   1   7
ATOM      7  O   LIG d   1      -2.879  91.096 117.155  0.00  0.00    -0.368 OA
BRANCH   7   8
ATOM      8  C   LIG d   1      -2.002  90.483 118.132  0.00  0.00     0.119 C 
BRANCH   8   9
ATOM      9  C   LIG d   1      -0.553  90.820 117.729  0.00  0.00     0.028 C 
ATOM     10  C   LIG d   1       0.279  89.563 117.424  0.00  0.00     0.006 C 
ENDBRANCH   8   9
BRANCH   8  11
ATOM     11  C   LIG d   1      -2.092  88.955 118.081  0.00  0.00     0.028 C 
ATOM     12  C   LIG d   1      -2.613  88.345 119.391  0.00  0.00     0.006 C 
ENDBRANCH   8  11
ENDBRANCH   7   8
ENDBRANCH   1   7
BRANCH   6  13
ATOM     13  N   LIG d   1      -3.861  93.489 118.700  0.00  0.00    -0.311 N 
ATOM     14  C   LIG d   1      -2.703  94.141 118.608  0.00  0.00     0.210 C 
ATOM     15  C   LIG d   1      -2.168  94.700 119.930  0.00  0.00     0.109 C 
ATOM     16  O   LIG d   1      -2.084  94.336 117.551  0.00  0.00    -0.276 OA
ATOM     17  H   LIG d   1      -4.310  93.405 119.591  0.00  0.00     0.149 HD
ENDBRANCH   6  13
BRANCH   5  18
ATOM     18  N   LIG d   1      -6.391  94.557 117.361  0.00  0.00     0.381 N 
ATOM     19  H   LIG d   1      -6.913  94.876 118.153  0.00  0.00    -0.090 HD
ATOM     20  H   LIG d   1      -6.962  94.667 116.542  0.00  0.00    -0.090 HD
ATOM     21  H   LIG d   1      -5.556  95.092 117.267  0.00  0.00    -0.090 HD
ENDBRANCH   5  18
BRANCH   3  22
ATOM     22  C   LIG d   1      -7.250  90.119 115.779  0.00  0.00     0.382 C 
ATOM     23  O   LIG d   1      -8.077  89.539 116.523  0.00  0.00    -0.241 OA
ATOM     24  O   LIG d   1      -7.223  89.849 114.563  0.00  0.00    -0.241 OA
ENDBRANCH   3  22
TORSDOF 7
ENDMDL
MODEL 3
REMARK VINA RESULT:      -4.7      2.698      4.789
REMARK  7 active torsions:
REMARK  status: ('A' for Active; 'I' for Inactive)
REMARK    1  A    between atoms: C_2  and  C_3 
REMARK    2  A    between atoms: C_3  and  O_6 
REMARK    3  A    between atoms: C_3  and  C_4 
REMARK    4  A    between atoms: C_7  and  O_6 
REMARK    5  A    between atoms: C_9  and  C_10 
REMARK    6  A    between atoms: N_15  and  C_14 
REMARK    7  A    between atoms: N_20  and  C_19 
REMARK       I    between atoms: C_22  and  N_20 
ROOT
ATOM      1  C   LIG d   1      -5.615  92.814 119.519  0.00  0.00     0.161 C 
ATOM      2  C   LIG d   1      -6.941  93.252 119.368  0.00  0.00     0.016 C 
ATOM      3  C   LIG d   1      -7.289  94.587 119.059  0.00  0.00     0.038 C 
ATOM      4  C   LIG d   1      -6.322  95.548 118.728  0.00  0.00     0.028 C 
ATOM      5  C   LIG d   1      -4.960  95.279 119.359  0.00  0.00    -0.047 C 
ATOM      6  C   LIG d   1      -4.544  93.822 119.052  0.00  0.00     0.091 C 
ENDROOT
BRANCH   1   7
ATOM      7  O   LIG d   1      -5.439  91.550 118.849  0.00  0.00    -0.368 OA
BRANCH   7   8
ATOM      8  C   LIG d   1      -4.966  91.614 117.481  0.00  0.00     0.119 C 
BRANCH   8   9
ATOM      9  C   LIG d   1      -6.090  91.071 116.577  0.00  0.00     0.028 C 
ATOM     10  C   LIG d   1      -6.512  92.079 115.495  0.00  0.00     0.006 C 
ENDBRANCH   8   9
BRANCH   8  11
ATOM     11  C   LIG d   1      -3.777  90.675 117.258  0.00  0.00     0.028 C 
ATOM     12  C   LIG d   1      -3.355  89.935 118.537  0.00  0.00     0.006 C 
ENDBRANCH   8  11
ENDBRANCH   7   8
ENDBRANCH   1   7
BRANCH   6  13
ATOM     13  N   LIG d   1      -3.262  93.450 119.704  0.00  0.00    -0.311 N 
ATOM     14  C   LIG d   1      -2.085  93.484 119.080  0.00  0.00     0.210 C 
ATOM     15  C   LIG d   1      -0.890  93.041 119.930  0.00  0.00     0.109 C 
ATOM     16  O   LIG d   1      -1.914  93.871 117.915  0.00  0.00    -0.276 OA
ATOM     17  H   LIG d   1      -3.305  93.154 120.659  0.00  0.00     0.149 HD
ENDBRANCH   6  13
BRANCH   5  18
ATOM     18  N   LIG d   1      -4.015  96.276 118.821  0.00  0.00     0.381 N 
ATOM     19  H   LIG d   1      -4.383  96.672 117.979  0.00  0.00    -0.090 HD
ATOM     20  H   LIG d   1      -3.149  95.816 118.600  0.00  0.00    -0.090 HD
ATOM     21  H   LIG d   1      -3.857  96.993 119.494  0.00  0.00    -0.090 HD
ENDBRANCH   5  18
BRANCH   3  22
ATOM     22  C   LIG d   1      -8.617  94.983 119.118  0.00  0.00     0.382 C 
ATOM     23  O   LIG d   1      -9.476  94.402 118.412  0.00  0.00    -0.241 OA
ATOM     24  O   LIG d   1      -8.959  95.942 119.835  0.00  0.00    -0.241 OA
ENDBRANCH   3  22
TORSDOF 7
ENDMDL
MODEL 4
REMARK VINA RESULT:      -4.5      2.741      5.033
REMARK  7 active torsions:
REMARK  status: ('A' for Active; 'I' for Inactive)
REMARK    1  A    between atoms: C_2  and  C_3 
REMARK    2  A    between atoms: C_3  and  O_6 
REMARK    3  A    between atoms: C_3  and  C_4 
REMARK    4  A    between atoms: C_7  and  O_6 
REMARK    5  A    between atoms: C_9  and  C_10 
REMARK    6  A    between atoms: N_15  and  C_14 
REMARK    7  A    between atoms: N_20  and  C_19 
REMARK       I    between atoms: C_22  and  N_20 
ROOT
ATOM      1  C   LIG d   1      -2.794  90.577 118.518  0.00  0.00     0.161 C 
ATOM      2  C   LIG d   1      -4.114  90.451 118.051  0.00  0.00     0.016 C 
ATOM      3  C   LIG d   1      -4.840  91.517 117.472  0.00  0.00     0.038 C 
ATOM      4  C   LIG d   1      -4.239  92.751 117.181  0.00  0.00     0.028 C 
ATOM      5  C   LIG d   1      -3.063  93.082 118.093  0.00  0.00    -0.047 C 
ATOM      6  C   LIG d   1      -2.086  91.885 118.107  0.00  0.00     0.091 C 
ENDROOT
BRANCH   1   7
ATOM      7  O   LIG d   1      -2.018  89.435 118.104  0.00  0.00    -0.368 OA
BRANCH   7   8
ATOM      8  C   LIG d   1      -1.391  88.673 119.164  0.00  0.00     0.119 C 
BRANCH   8   9
ATOM      9  C   LIG d   1      -0.047  88.148 118.624  0.00  0.00     0.028 C 
ATOM     10  C   LIG d   1       0.526  89.039 117.509  0.00  0.00     0.006 C 
ENDBRANCH   8   9
BRANCH   8  11
ATOM     11  C   LIG d   1      -2.206  87.422 119.508  0.00  0.00     0.028 C 
ATOM     12  C   LIG d   1      -1.348  86.148 119.561  0.00  0.00     0.006 C 
ENDBRANCH   8  11
ENDBRANCH   7   8
ENDBRANCH   1   7
BRANCH   6  13
ATOM     13  N   LIG d   1      -0.948  92.092 119.041  0.00  0.00    -0.311 N 
ATOM     14  C   LIG d   1       0.228  92.589 118.664  0.00  0.00     0.210 C 
ATOM     15  C   LIG d   1       1.271  92.702 119.781  0.00  0.00     0.109 C 
ATOM     16  O   LIG d   1       0.498  92.977 117.517  0.00  0.00    -0.276 OA
ATOM     17  H   LIG d   1      -1.091  91.834 119.998  0.00  0.00     0.149 HD
ENDBRANCH   6  13
BRANCH   5  18
ATOM     18  N   LIG d   1      -2.447  94.325 117.591  0.00  0.00     0.381 N 
ATOM     19  H   LIG d   1      -1.741  94.106 116.917  0.00  0.00    -0.090 HD
ATOM     20  H   LIG d   1      -2.011  94.805 118.359  0.00  0.00    -0.090 HD
ATOM     21  H   LIG d   1      -3.142  94.908 117.178  0.00  0.00    -0.090 HD
ENDBRANCH   5  18
BRANCH   3  22
ATOM     22  C   LIG d   1      -6.194  91.366 117.215  0.00  0.00     0.382 C 
ATOM     23  O   LIG d   1      -6.974  92.335 117.376  0.00  0.00    -0.241 OA
ATOM     24  O   LIG d   1      -6.652  90.262 116.866  0.00  0.00    -0.241 OA
ENDBRANCH   3  22
TORSDOF 7
ENDMDL
MODEL 5
REMARK VINA RESULT:      -4.3      1.356      2.158
REMARK  7 active torsions:
REMARK  status: ('A' for Active; 'I' for Inactive)
REMARK    1  A    between atoms: C_2  and  C_3 
REMARK    2  A    between atoms: C_3  and  O_6 
REMARK    3  A    between atoms: C_3  and  C_4 
REMARK    4  A    between atoms: C_7  and  O_6 
REMARK    5  A    between atoms: C_9  and  C_10 
REMARK    6  A    between atoms: N_15  and  C_14 
REMARK    7  A    between atoms: N_20  and  C_19 
REMARK       I    between atoms: C_22  and  N_20 
ROOT
ATOM      1  C   LIG d   1      -4.451  92.811 118.528  0.00  0.00     0.161 C 
ATOM      2  C   LIG d   1      -4.158  94.080 119.055  0.00  0.00     0.016 C 
ATOM      3  C   LIG d   1      -5.111  95.120 119.156  0.00  0.00     0.038 C 
ATOM      4  C   LIG d   1      -6.469  94.910 118.873  0.00  0.00     0.028 C 
ATOM      5  C   LIG d   1      -6.713  93.796 117.861  0.00  0.00    -0.047 C 
ATOM      6  C   LIG d   1      -5.953  92.529 118.317  0.00  0.00     0.091 C 
ENDROOT
BRANCH   1   7
ATOM      7  O   LIG d   1      -3.860  91.790 119.356  0.00  0.00    -0.368 OA
BRANCH   7   8
ATOM      8  C   LIG d   1      -2.794  91.017 118.752  0.00  0.00     0.119 C 
BRANCH   8   9
ATOM      9  C   LIG d   1      -2.890  89.583 119.307  0.00  0.00     0.028 C 
ATOM     10  C   LIG d   1      -2.509  88.522 118.260  0.00  0.00     0.006 C 
ENDBRANCH   8   9
BRANCH   8  11
ATOM     11  C   LIG d   1      -1.418  91.530 119.188  0.00  0.00     0.028 C 
ATOM     12  C   LIG d   1      -0.550  91.989 118.006  0.00  0.00     0.006 C 
ENDBRANCH   8  11
ENDBRANCH   7   8
ENDBRANCH   1   7
BRANCH   6  13
ATOM     13  N   LIG d   1      -6.069  91.416 117.340  0.00  0.00    -0.311 N 
ATOM     14  C   LIG d   1      -6.064  91.595 116.020  0.00  0.00     0.210 C 
ATOM     15  C   LIG d   1      -6.215  90.315 115.193  0.00  0.00     0.109 C 
ATOM     16  O   LIG d   1      -5.915  92.690 115.456  0.00  0.00    -0.276 OA
ATOM     17  H   LIG d   1      -6.162  90.491 117.711  0.00  0.00     0.149 HD
ENDBRANCH   6  13
BRANCH   5  18
ATOM     18  N   LIG d   1      -8.170  93.592 117.764  0.00  0.00     0.381 N 
ATOM     19  H   LIG d   1      -8.395  92.642 117.981  0.00  0.00    -0.090 HD
ATOM     20  H   LIG d   1      -8.462  93.778 116.821  0.00  0.00    -0.090 HD
ATOM     21  H   LIG d   1      -8.643  94.205 118.392  0.00  0.00    -0.090 HD
ENDBRANCH   5  18
BRANCH   3  22
ATOM     22  C   LIG d   1      -4.701  96.397 119.505  0.00  0.00     0.382 C 
ATOM     23  O   LIG d   1      -3.494  96.617 119.769  0.00  0.00    -0.241 OA
ATOM     24  O   LIG d   1      -5.529  97.322 119.604  0.00  0.00    -0.241 OA
ENDBRANCH   3  22
TORSDOF 7
ENDMDL
MODEL 6
REMARK VINA RESULT:      -4.3      2.508      4.824
REMARK  7 active torsions:
REMARK  status: ('A' for Active; 'I' for Inactive)
REMARK    1  A    between atoms: C_2  and  C_3 
REMARK    2  A    between atoms: C_3  and  O_6 
REMARK    3  A    between atoms: C_3  and  C_4 
REMARK    4  A    between atoms: C_7  and  O_6 
REMARK    5  A    between atoms: C_9  and  C_10 
REMARK    6  A    between atoms: N_15  and  C_14 
REMARK    7  A    between atoms: N_20  and  C_19 
REMARK       I    between atoms: C_22  and  N_20 
ROOT
ATOM      1  C   LIG d   1      -3.009  92.797 119.155  0.00  0.00     0.161 C 
ATOM      2  C   LIG d   1      -2.824  94.173 118.942  0.00  0.00     0.016 C 
ATOM      3  C   LIG d   1      -1.782  94.705 118.148  0.00  0.00     0.038 C 
ATOM      4  C   LIG d   1      -0.938  93.884 117.386  0.00  0.00     0.028 C 
ATOM      5  C   LIG d   1      -0.769  92.484 117.966  0.00  0.00    -0.047 C 
ATOM      6  C   LIG d   1      -2.166  91.882 118.242  0.00  0.00     0.091 C 
ENDROOT
BRANCH   1   7
ATOM      7  O   LIG d   1      -4.407  92.468 119.040  0.00  0.00    -0.368 OA
BRANCH   7   8
ATOM      8  C   LIG d   1      -5.177  93.271 118.112  0.00  0.00     0.119 C 
BRANCH   8   9
ATOM      9  C   LIG d   1      -6.561  93.512 118.745  0.00  0.00     0.028 C 
ATOM     10  C   LIG d   1      -7.072  94.943 118.512  0.00  0.00     0.006 C 
ENDBRANCH   8   9
BRANCH   8  11
ATOM     11  C   LIG d   1      -5.452  92.509 116.812  0.00  0.00     0.028 C 
ATOM     12  C   LIG d   1      -6.553  91.448 116.965  0.00  0.00     0.006 C 
ENDBRANCH   8  11
ENDBRANCH   7   8
ENDBRANCH   1   7
BRANCH   6  13
ATOM     13  N   LIG d   1      -2.090  90.546 118.889  0.00  0.00    -0.311 N 
ATOM     14  C   LIG d   1      -2.879  89.526 118.558  0.00  0.00     0.210 C 
ATOM     15  C   LIG d   1      -2.649  88.243 119.363  0.00  0.00     0.109 C 
ATOM     16  O   LIG d   1      -3.725  89.551 117.652  0.00  0.00    -0.276 OA
ATOM     17  H   LIG d   1      -1.410  90.429 119.614  0.00  0.00     0.149 HD
ENDBRANCH   6  13
BRANCH   5  18
ATOM     18  N   LIG d   1       0.020  91.694 117.002  0.00  0.00     0.381 N 
ATOM     19  H   LIG d   1       0.352  90.858 117.440  0.00  0.00    -0.090 HD
ATOM     20  H   LIG d   1       0.816  92.236 116.712  0.00  0.00    -0.090 HD
ATOM     21  H   LIG d   1      -0.539  91.463 116.211  0.00  0.00    -0.090 HD
ENDBRANCH   5  18
BRANCH   3  22
ATOM     22  C   LIG d   1      -1.551  96.072 118.144  0.00  0.00     0.382 C 
ATOM     23  O   LIG d   1      -0.563  96.539 117.526  0.00  0.00    -0.241 OA
ATOM     24  O   LIG d   1      -2.292  96.840 118.786  0.00  0.00    -0.241 OA
ENDBRANCH   3  22
TORSDOF 7
ENDMDL
MODEL 7
REMARK VINA RESULT:      -4.2      7.760     11.301
REMARK  7 active torsions:
REMARK  status: ('A' for Active; 'I' for Inactive)
REMARK    1  A    between atoms: C_2  and  C_3 
REMARK    2  A    between atoms: C_3  and  O_6 
REMARK    3  A    between atoms: C_3  and  C_4 
REMARK    4  A    between atoms: C_7  and  O_6 
REMARK    5  A    between atoms: C_9  and  C_10 
REMARK    6  A    between atoms: N_15  and  C_14 
REMARK    7  A    between atoms: N_20  and  C_19 
REMARK       I    between atoms: C_22  and  N_20 
ROOT
ATOM      1  C   LIG d   1       4.874  90.374 115.549  0.00  0.00     0.161 C 
ATOM      2  C   LIG d   1       3.972  89.815 114.629  0.00  0.00     0.016 C 
ATOM      3  C   LIG d   1       4.165  88.554 114.018  0.00  0.00     0.038 C 
ATOM      4  C   LIG d   1       5.205  87.696 114.402  0.00  0.00     0.028 C 
ATOM      5  C   LIG d   1       6.422  88.428 114.958  0.00  0.00    -0.047 C 
ATOM      6  C   LIG d   1       5.958  89.404 116.064  0.00  0.00     0.091 C 
ENDROOT
BRANCH   1   7
ATOM      7  O   LIG d   1       4.151  90.950 116.654  0.00  0.00    -0.368 OA
BRANCH   7   8
ATOM      8  C   LIG d   1       2.881  90.331 116.977  0.00  0.00     0.119 C 
BRANCH   8   9
ATOM      9  C   LIG d   1       1.895  91.459 117.338  0.00  0.00     0.028 C 
ATOM     10  C   LIG d   1       0.436  91.082 117.031  0.00  0.00     0.006 C 
ENDBRANCH   8   9
BRANCH   8  11
ATOM     11  C   LIG d   1       2.987  89.466 118.236  0.00  0.00     0.028 C 
ATOM     12  C   LIG d   1       3.118  87.968 117.921  0.00  0.00     0.006 C 
ENDBRANCH   8  11
ENDBRANCH   7   8
ENDBRANCH   1   7
BRANCH   6  13
ATOM     13  N   LIG d   1       7.075  90.222 116.603  0.00  0.00    -0.311 N 
ATOM     14  C   LIG d   1       7.330  90.348 117.904  0.00  0.00     0.210 C 
ATOM     15  C   LIG d   1       8.516  91.255 118.246  0.00  0.00     0.109 C 
ATOM     16  O   LIG d   1       6.706  89.769 118.807  0.00  0.00    -0.276 OA
ATOM     17  H   LIG d   1       7.651  90.701 115.939  0.00  0.00     0.149 HD
ENDBRANCH   6  13
BRANCH   5  18
ATOM     18  N   LIG d   1       7.371  87.410 115.446  0.00  0.00     0.381 N 
ATOM     19  H   LIG d   1       8.234  87.484 114.945  0.00  0.00    -0.090 HD
ATOM     20  H   LIG d   1       6.985  86.498 115.277  0.00  0.00    -0.090 HD
ATOM     21  H   LIG d   1       7.533  87.534 116.421  0.00  0.00    -0.090 HD
ENDBRANCH   5  18
BRANCH   3  22
ATOM     22  C   LIG d   1       3.333  88.159 112.981  0.00  0.00     0.382 C 
ATOM     23  O   LIG d   1       2.557  88.988 112.449  0.00  0.00    -0.241 OA
ATOM     24  O   LIG d   1       3.318  86.973 112.601  0.00  0.00    -0.241 OA
ENDBRANCH   3  22
TORSDOF 7
ENDMDL
MODEL 8
REMARK VINA RESULT:      -4.2      6.740      9.418
REMARK  7 active torsions:
REMARK  status: ('A' for Active; 'I' for Inactive)
REMARK    1  A    between atoms: C_2  and  C_3 
REMARK    2  A    between atoms: C_3  and  O_6 
REMARK    3  A    between atoms: C_3  and  C_4 
REMARK    4  A    between atoms: C_7  and  O_6 
REMARK    5  A    between atoms: C_9  and  C_10 
REMARK    6  A    between atoms: N_15  and  C_14 
REMARK    7  A    between atoms: N_20  and  C_19 
REMARK       I    between atoms: C_22  and  N_20 
ROOT
ATOM      1  C   LIG d   1       3.274  88.290 116.436  0.00  0.00     0.161 C 
ATOM      2  C   LIG d   1       4.023  88.943 115.444  0.00  0.00     0.016 C 
ATOM      3  C   LIG d   1       3.953  88.612 114.071  0.00  0.00     0.038 C 
ATOM      4  C   LIG d   1       3.008  87.700 113.576  0.00  0.00     0.028 C 
ATOM      5  C   LIG d   1       2.582  86.653 114.600  0.00  0.00    -0.047 C 
ATOM      6  C   LIG d   1       2.157  87.369 115.902  0.00  0.00     0.091 C 
ENDROOT
BRANCH   1   7
ATOM      7  O   LIG d   1       2.728  89.259 117.353  0.00  0.00    -0.368 OA
BRANCH   7   8
ATOM      8  C   LIG d   1       2.407  90.556 116.793  0.00  0.00     0.119 C 
BRANCH   8   9
ATOM      9  C   LIG d   1       3.052  91.623 117.699  0.00  0.00     0.028 C 
ATOM     10  C   LIG d   1       4.532  91.868 117.355  0.00  0.00     0.006 C 
ENDBRANCH   8   9
BRANCH   8  11
ATOM     11  C   LIG d   1       0.902  90.831 116.852  0.00  0.00     0.028 C 
ATOM     12  C   LIG d   1       0.567  92.180 117.508  0.00  0.00     0.006 C 
ENDBRANCH   8  11
ENDBRANCH   7   8
ENDBRANCH   1   7
BRANCH   6  13
ATOM     13  N   LIG d   1       1.805  86.414 116.985  0.00  0.00    -0.311 N 
ATOM     14  C   LIG d   1       0.697  86.513 117.718  0.00  0.00     0.210 C 
ATOM     15  C   LIG d   1       0.537  85.435 118.796  0.00  0.00     0.109 C 
ATOM     16  O   LIG d   1      -0.183  87.371 117.558  0.00  0.00    -0.276 OA
ATOM     17  H   LIG d   1       2.449  85.668 117.162  0.00  0.00     0.149 HD
ENDBRANCH   6  13
BRANCH   5  18
ATOM     18  N   LIG d   1       1.497  85.856 113.997  0.00  0.00     0.381 N 
ATOM     19  H   LIG d   1       1.523  84.923 114.356  0.00  0.00    -0.090 HD
ATOM     20  H   LIG d   1       1.638  85.815 113.003  0.00  0.00    -0.090 HD
ATOM     21  H   LIG d   1       0.615  86.273 114.198  0.00  0.00    -0.090 HD
ENDBRANCH   5  18
BRANCH   3  22
ATOM     22  C   LIG d   1       4.861  89.167 113.183  0.00  0.00     0.382 C 
ATOM     23  O   LIG d   1       5.722  88.440 112.630  0.00  0.00    -0.241 OA
ATOM     24  O   LIG d   1       4.860  90.392 112.960  0.00  0.00    -0.241 OA
ENDBRANCH   3  22
TORSDOF 7
ENDMDL
MODEL 9
REMARK VINA RESULT:      -4.2      6.753      9.238
REMARK  7 active torsions:
REMARK  status: ('A' for Active; 'I' for Inactive)
REMARK    1  A    between atoms: C_2  and  C_3 
REMARK    2  A    between atoms: C_3  and  O_6 
REMARK    3  A    between atoms: C_3  and  C_4 
REMARK    4  A    between atoms: C_7  and  O_6 
REMARK    5  A    between atoms: C_9  and  C_10 
REMARK    6  A    between atoms: N_15  and  C_14 
REMARK    7  A    between atoms: N_20  and  C_19 
REMARK       I    between atoms: C_22  and  N_20 
ROOT
ATOM      1  C   LIG d   1       3.060  89.139 116.409  0.00  0.00     0.161 C 
ATOM      2  C   LIG d   1       3.524  89.954 117.455  0.00  0.00     0.016 C 
ATOM      3  C   LIG d   1       4.746  90.664 117.404  0.00  0.00     0.038 C 
ATOM      4  C   LIG d   1       5.520  90.725 116.236  0.00  0.00     0.028 C 
ATOM      5  C   LIG d   1       5.346  89.512 115.329  0.00  0.00    -0.047 C 
ATOM      6  C   LIG d   1       3.837  89.282 115.084  0.00  0.00     0.091 C 
ENDROOT
BRANCH   1   7
ATOM      7  O   LIG d   1       1.654  89.373 116.194  0.00  0.00    -0.368 OA
BRANCH   7   8
ATOM      8  C   LIG d   1       0.816  89.345 117.375  0.00  0.00     0.119 C 
BRANCH   8   9
ATOM      9  C   LIG d   1      -0.019  88.051 117.320  0.00  0.00     0.028 C 
ATOM     10  C   LIG d   1       0.627  86.902 118.113  0.00  0.00     0.006 C 
ENDBRANCH   8   9
BRANCH   8  11
ATOM     11  C   LIG d   1      -0.205  90.487 117.360  0.00  0.00     0.028 C 
ATOM     12  C   LIG d   1       0.450  91.870 117.226  0.00  0.00     0.006 C 
ENDBRANCH   8  11
ENDBRANCH   7   8
ENDBRANCH   1   7
BRANCH   6  13
ATOM     13  N   LIG d   1       3.573  88.064 114.274  0.00  0.00    -0.311 N 
ATOM     14  C   LIG d   1       2.970  88.089 113.087  0.00  0.00     0.210 C 
ATOM     15  C   LIG d   1       2.778  86.718 112.430  0.00  0.00     0.109 C 
ATOM     16  O   LIG d   1       2.603  89.119 112.502  0.00  0.00    -0.276 OA
ATOM     17  H   LIG d   1       3.866  87.188 114.660  0.00  0.00     0.149 HD
ENDBRANCH   6  13
BRANCH   5  18
ATOM     18  N   LIG d   1       6.100  89.770 114.088  0.00  0.00     0.381 N 
ATOM     19  H   LIG d   1       6.490  88.916 113.745  0.00  0.00    -0.090 HD
ATOM     20  H   LIG d   1       6.855  90.402 114.292  0.00  0.00    -0.090 HD
ATOM     21  H   LIG d   1       5.500  90.170 113.401  0.00  0.00    -0.090 HD
ENDBRANCH   5  18
BRANCH   3  22
ATOM     22  C   LIG d   1       5.225  91.289 118.545  0.00  0.00     0.382 C 
ATOM     23  O   LIG d   1       6.236  92.030 118.477  0.00  0.00    -0.241 OA
ATOM     24  O   LIG d   1       4.687  91.086 119.650  0.00  0.00    -0.241 OA
ENDBRANCH   3  22
TORSDOF 7
ENDMDL
