MODEL 1
REMARK VINA RESULT:      -4.7      0.000      0.000
REMARK  7 active torsions:
REMARK  status: ('A' for Active; 'I' for Inactive)
REMARK    1  A    between atoms: C_2  and  C_3 
REMARK    2  A    between atoms: C_3  and  O_6 
REMARK    3  A    between atoms: C_3  and  C_4 
REMARK    4  A    between atoms: C_7  and  O_6 
REMARK    5  A    between atoms: C_9  and  C_10 
REMARK    6  A    between atoms: N_15  and  C_14 
REMARK    7  A    between atoms: N_20  and  C_19 
REMARK       I    between atoms: C_22  and  N_20 
ROOT
ATOM      1  C   LIG d   1      -4.760  93.096 119.288  0.00  0.00     0.161 C 
ATOM      2  C   LIG d   1      -3.884  92.101 118.824  0.00  0.00     0.016 C 
ATOM      3  C   LIG d   1      -4.069  91.406 117.607  0.00  0.00     0.038 C 
ATOM      4  C   LIG d   1      -5.068  91.769 116.691  0.00  0.00     0.028 C 
ATOM      5  C   LIG d   1      -6.278  92.428 117.344  0.00  0.00    -0.047 C 
ATOM      6  C   LIG d   1      -5.793  93.583 118.250  0.00  0.00     0.091 C 
ENDROOT
BRANCH   1   7
ATOM      7  O   LIG d   1      -4.005  94.210 119.804  0.00  0.00    -0.368 OA
BRANCH   7   8
ATOM      8  C   LIG d   1      -3.457  95.119 118.818  0.00  0.00     0.119 C 
BRANCH   8   9
ATOM      9  C   LIG d   1      -1.927  94.937 118.821  0.00  0.00     0.028 C 
ATOM     10  C   LIG d   1      -1.389  94.471 117.457  0.00  0.00     0.006 C 
ENDBRANCH   8   9
BRANCH   8  11
ATOM     11  C   LIG d   1      -3.692  96.580 119.215  0.00  0.00     0.028 C 
ATOM     12  C   LIG d   1      -2.414  97.430 119.144  0.00  0.00     0.006 C 
ENDBRANCH   8  11
ENDBRANCH   7   8
ENDBRANCH   1   7
BRANCH   6  13
ATOM     13  N   LIG d   1      -6.908  94.227 118.992  0.00  0.00    -0.311 N 
ATOM     14  C   LIG d   1      -7.363  95.448 118.717  0.00  0.00     0.210 C 
ATOM     15  C   LIG d   1      -8.505  95.931 119.617  0.00  0.00     0.109 C 
ATOM     16  O   LIG d   1      -6.951  96.164 117.792  0.00  0.00    -0.276 OA
ATOM     17  H   LIG d   1      -7.321  93.704 119.739  0.00  0.00     0.149 HD
ENDBRANCH   6  13
BRANCH   5  18
ATOM     18  N   LIG d   1      -7.177  92.878 116.264  0.00  0.00     0.381 N 
ATOM     19  H   LIG d   1      -7.432  93.834 116.413  0.00  0.00    -0.090 HD
ATOM     20  H   LIG d   1      -8.014  92.322 116.284  0.00  0.00    -0.090 HD
ATOM     21  H   LIG d   1      -6.725  92.781 115.382  0.00  0.00    -0.090 HD
ENDBRANCH   5  18
BRANCH   3  22
ATOM     22  C   LIG d   1      -3.273  90.309 117.313  0.00  0.00     0.382 C 
ATOM     23  O   LIG d   1      -3.585  89.543 116.370  0.00  0.00    -0.241 OA
ATOM     24  O   LIG d   1      -2.272  90.051 118.008  0.00  0.00    -0.241 OA
ENDBRANCH   3  22
TORSDOF 7
ENDMDL
MODEL 2
REMARK VINA RESULT:      -4.4      8.872     12.047
REMARK  7 active torsions:
REMARK  status: ('A' for Active; 'I' for Inactive)
REMARK    1  A    between atoms: C_2  and  C_3 
REMARK    2  A    between atoms: C_3  and  O_6 
REMARK    3  A    between atoms: C_3  and  C_4 
REMARK    4  A    between atoms: C_7  and  O_6 
REMARK    5  A    between atoms: C_9  and  C_10 
REMARK    6  A    between atoms: N_15  and  C_14 
REMARK    7  A    between atoms: N_20  and  C_19 
REMARK       I    between atoms: C_22  and  N_20 
ROOT
ATOM      1  C   LIG d   1       4.061  88.266 116.546  0.00  0.00     0.161 C 
ATOM      2  C   LIG d   1       2.998  89.183 116.494  0.00  0.00     0.016 C 
ATOM      3  C   LIG d   1       3.169  90.581 116.625  0.00  0.00     0.038 C 
ATOM      4  C   LIG d   1       4.441  91.172 116.665  0.00  0.00     0.028 C 
ATOM      5  C   LIG d   1       5.519  90.251 117.227  0.00  0.00    -0.047 C 
ATOM      6  C   LIG d   1       5.466  88.900 116.477  0.00  0.00     0.091 C 
ENDROOT
BRANCH   1   7
ATOM      7  O   LIG d   1       3.905  87.279 115.507  0.00  0.00    -0.368 OA
BRANCH   7   8
ATOM      8  C   LIG d   1       3.320  87.747 114.266  0.00  0.00     0.119 C 
BRANCH   8   9
ATOM      9  C   LIG d   1       2.396  86.631 113.741  0.00  0.00     0.028 C 
ATOM     10  C   LIG d   1       1.214  86.355 114.685  0.00  0.00     0.006 C 
ENDBRANCH   8   9
BRANCH   8  11
ATOM     11  C   LIG d   1       4.386  87.933 113.183  0.00  0.00     0.028 C 
ATOM     12  C   LIG d   1       4.761  86.618 112.482  0.00  0.00     0.006 C 
ENDBRANCH   8  11
ENDBRANCH   7   8
ENDBRANCH   1   7
BRANCH   6  13
ATOM     13  N   LIG d   1       6.433  87.911 117.022  0.00  0.00    -0.311 N 
ATOM     14  C   LIG d   1       7.278  87.217 116.262  0.00  0.00     0.210 C 
ATOM     15  C   LIG d   1       8.175  86.236 117.023  0.00  0.00     0.109 C 
ATOM     16  O   LIG d   1       7.392  87.344 115.034  0.00  0.00    -0.276 OA
ATOM     17  H   LIG d   1       6.429  87.769 118.013  0.00  0.00     0.149 HD
ENDBRANCH   6  13
BRANCH   5  18
ATOM     18  N   LIG d   1       6.814  90.942 117.082  0.00  0.00     0.381 N 
ATOM     19  H   LIG d   1       6.760  91.852 117.494  0.00  0.00    -0.090 HD
ATOM     20  H   LIG d   1       7.018  91.050 116.104  0.00  0.00    -0.090 HD
ATOM     21  H   LIG d   1       7.534  90.412 117.523  0.00  0.00    -0.090 HD
ENDBRANCH   5  18
BRANCH   3  22
ATOM     22  C   LIG d   1       2.058  91.400 116.757  0.00  0.00     0.382 C 
ATOM     23  O   LIG d   1       0.934  90.999 116.370  0.00  0.00    -0.241 OA
ATOM     24  O   LIG d   1       2.173  92.551 117.218  0.00  0.00    -0.241 OA
ENDBRANCH   3  22
TORSDOF 7
ENDMDL
MODEL 3
REMARK VINA RESULT:      -4.4      6.123      9.330
REMARK  7 active torsions:
REMARK  status: ('A' for Active; 'I' for Inactive)
REMARK    1  A    between atoms: C_2  and  C_3 
REMARK    2  A    between atoms: C_3  and  O_6 
REMARK    3  A    between atoms: C_3  and  C_4 
REMARK    4  A    between atoms: C_7  and  O_6 
REMARK    5  A    between atoms: C_9  and  C_10 
REMARK    6  A    between atoms: N_15  and  C_14 
REMARK    7  A    between atoms: N_20  and  C_19 
REMARK       I    between atoms: C_22  and  N_20 
ROOT
ATOM      1  C   LIG d   1       1.242  88.638 116.871  0.00  0.00     0.161 C 
ATOM      2  C   LIG d   1      -0.137  88.425 117.031  0.00  0.00     0.016 C 
ATOM      3  C   LIG d   1      -1.047  89.449 117.379  0.00  0.00     0.038 C 
ATOM      4  C   LIG d   1      -0.659  90.796 117.442  0.00  0.00     0.028 C 
ATOM      5  C   LIG d   1       0.815  90.986 117.783  0.00  0.00    -0.047 C 
ATOM      6  C   LIG d   1       1.667  90.121 116.827  0.00  0.00     0.091 C 
ENDROOT
BRANCH   1   7
ATOM      7  O   LIG d   1       1.710  87.948 115.695  0.00  0.00    -0.368 OA
BRANCH   7   8
ATOM      8  C   LIG d   1       2.234  86.614 115.906  0.00  0.00     0.119 C 
BRANCH   8   9
ATOM      9  C   LIG d   1       3.772  86.715 115.904  0.00  0.00     0.028 C 
ATOM     10  C   LIG d   1       4.333  87.108 114.527  0.00  0.00     0.006 C 
ENDBRANCH   8   9
BRANCH   8  11
ATOM     11  C   LIG d   1       1.888  85.688 114.736  0.00  0.00     0.028 C 
ATOM     12  C   LIG d   1       0.623  86.127 113.982  0.00  0.00     0.006 C 
ENDBRANCH   8  11
ENDBRANCH   7   8
ENDBRANCH   1   7
BRANCH   6  13
ATOM     13  N   LIG d   1       3.117  90.183 117.146  0.00  0.00    -0.311 N 
ATOM     14  C   LIG d   1       4.057  90.440 116.239  0.00  0.00     0.210 C 
ATOM     15  C   LIG d   1       5.492  90.438 116.775  0.00  0.00     0.109 C 
ATOM     16  O   LIG d   1       3.837  90.701 115.046  0.00  0.00    -0.276 OA
ATOM     17  H   LIG d   1       3.382  90.014 118.097  0.00  0.00     0.149 HD
ENDBRANCH   6  13
BRANCH   5  18
ATOM     18  N   LIG d   1       1.114  92.427 117.680  0.00  0.00     0.381 N 
ATOM     19  H   LIG d   1       0.303  92.960 117.925  0.00  0.00    -0.090 HD
ATOM     20  H   LIG d   1       1.356  92.642 116.729  0.00  0.00    -0.090 HD
ATOM     21  H   LIG d   1       1.870  92.662 118.284  0.00  0.00    -0.090 HD
ENDBRANCH   5  18
BRANCH   3  22
ATOM     22  C   LIG d   1      -2.355  89.125 117.706  0.00  0.00     0.382 C 
ATOM     23  O   LIG d   1      -2.585  88.244 118.570  0.00  0.00    -0.241 OA
ATOM     24  O   LIG d   1      -3.308  89.670 117.118  0.00  0.00    -0.241 OA
ENDBRANCH   3  22
TORSDOF 7
ENDMDL
MODEL 4
REMARK VINA RESULT:      -4.3      7.709     10.697
REMARK  7 active torsions:
REMARK  status: ('A' for Active; 'I' for Inactive)
REMARK    1  A    between atoms: C_2  and  C_3 
REMARK    2  A    between atoms: C_3  and  O_6 
REMARK    3  A    between atoms: C_3  and  C_4 
REMARK    4  A    between atoms: C_7  and  O_6 
REMARK    5  A    between atoms: C_9  and  C_10 
REMARK    6  A    between atoms: N_15  and  C_14 
REMARK    7  A    between atoms: N_20  and  C_19 
REMARK       I    between atoms: C_22  and  N_20 
ROOT
ATOM      1  C   LIG d   1       3.013  88.678 116.156  0.00  0.00     0.161 C 
ATOM      2  C   LIG d   1       3.314  89.786 116.965  0.00  0.00     0.016 C 
ATOM      3  C   LIG d   1       4.334  90.717 116.663  0.00  0.00     0.038 C 
ATOM      4  C   LIG d   1       5.027  90.687 115.443  0.00  0.00     0.028 C 
ATOM      5  C   LIG d   1       5.105  89.295 114.825  0.00  0.00    -0.047 C 
ATOM      6  C   LIG d   1       3.683  88.692 114.766  0.00  0.00     0.091 C 
ENDROOT
BRANCH   1   7
ATOM      7  O   LIG d   1       1.584  88.545 116.021  0.00  0.00    -0.368 OA
BRANCH   7   8
ATOM      8  C   LIG d   1       0.825  88.539 117.256  0.00  0.00     0.119 C 
BRANCH   8   9
ATOM      9  C   LIG d   1       0.285  87.110 117.460  0.00  0.00     0.028 C 
ATOM     10  C   LIG d   1       1.073  86.331 118.526  0.00  0.00     0.006 C 
ENDBRANCH   8   9
BRANCH   8  11
ATOM     11  C   LIG d   1      -0.415  89.431 117.152  0.00  0.00     0.028 C 
ATOM     12  C   LIG d   1      -1.717  88.682 117.476  0.00  0.00     0.006 C 
ENDBRANCH   8  11
ENDBRANCH   7   8
ENDBRANCH   1   7
BRANCH   6  13
ATOM     13  N   LIG d   1       3.680  87.298 114.251  0.00  0.00    -0.311 N 
ATOM     14  C   LIG d   1       3.007  86.918 113.166  0.00  0.00     0.210 C 
ATOM     15  C   LIG d   1       3.123  85.430 112.821  0.00  0.00     0.109 C 
ATOM     16  O   LIG d   1       2.351  87.679 112.439  0.00  0.00    -0.276 OA
ATOM     17  H   LIG d   1       4.212  86.621 114.763  0.00  0.00     0.149 HD
ENDBRANCH   6  13
BRANCH   5  18
ATOM     18  N   LIG d   1       5.731  89.432 113.496  0.00  0.00     0.381 N 
ATOM     19  H   LIG d   1       5.394  90.261 113.047  0.00  0.00    -0.090 HD
ATOM     20  H   LIG d   1       5.474  88.641 112.932  0.00  0.00    -0.090 HD
ATOM     21  H   LIG d   1       6.722  89.476 113.588  0.00  0.00    -0.090 HD
ENDBRANCH   5  18
BRANCH   3  22
ATOM     22  C   LIG d   1       4.698  91.668 117.604  0.00  0.00     0.382 C 
ATOM     23  O   LIG d   1       4.603  92.889 117.330  0.00  0.00    -0.241 OA
ATOM     24  O   LIG d   1       5.161  91.320 118.707  0.00  0.00    -0.241 OA
ENDBRANCH   3  22
TORSDOF 7
ENDMDL
MODEL 5
REMARK VINA RESULT:      -4.3      2.990      6.057
REMARK  7 active torsions:
REMARK  status: ('A' for Active; 'I' for Inactive)
REMARK    1  A    between atoms: C_2  and  C_3 
REMARK    2  A    between atoms: C_3  and  O_6 
REMARK    3  A    between atoms: C_3  and  C_4 
REMARK    4  A    between atoms: C_7  and  O_6 
REMARK    5  A    between atoms: C_9  and  C_10 
REMARK    6  A    between atoms: N_15  and  C_14 
REMARK    7  A    between atoms: N_20  and  C_19 
REMARK       I    between atoms: C_22  and  N_20 
ROOT
ATOM      1  C   LIG d   1      -2.805  92.510 118.865  0.00  0.00     0.161 C 
ATOM      2  C   LIG d   1      -2.664  93.889 118.633  0.00  0.00     0.016 C 
ATOM      3  C   LIG d   1      -1.589  94.449 117.907  0.00  0.00     0.038 C 
ATOM      4  C   LIG d   1      -0.655  93.651 117.229  0.00  0.00     0.028 C 
ATOM      5  C   LIG d   1      -0.470  92.272 117.855  0.00  0.00    -0.047 C 
ATOM      6  C   LIG d   1      -1.857  91.615 118.040  0.00  0.00     0.091 C 
ENDROOT
BRANCH   1   7
ATOM      7  O   LIG d   1      -4.176  92.117 118.654  0.00  0.00    -0.368 OA
BRANCH   7   8
ATOM      8  C   LIG d   1      -4.805  92.621 117.450  0.00  0.00     0.119 C 
BRANCH   8   9
ATOM      9  C   LIG d   1      -6.225  93.085 117.830  0.00  0.00     0.028 C 
ATOM     10  C   LIG d   1      -6.214  94.237 118.848  0.00  0.00     0.006 C 
ENDBRANCH   8   9
BRANCH   8  11
ATOM     11  C   LIG d   1      -5.005  91.508 116.417  0.00  0.00     0.028 C 
ATOM     12  C   LIG d   1      -5.842  91.959 115.210  0.00  0.00     0.006 C 
ENDBRANCH   8  11
ENDBRANCH   7   8
ENDBRANCH   1   7
BRANCH   6  13
ATOM     13  N   LIG d   1      -1.774  90.298 118.723  0.00  0.00    -0.311 N 
ATOM     14  C   LIG d   1      -2.268  89.173 118.209  0.00  0.00     0.210 C 
ATOM     15  C   LIG d   1      -2.093  87.930 119.087  0.00  0.00     0.109 C 
ATOM     16  O   LIG d   1      -2.806  89.081 117.096  0.00  0.00    -0.276 OA
ATOM     17  H   LIG d   1      -1.325  90.276 119.618  0.00  0.00     0.149 HD
ENDBRANCH   6  13
BRANCH   5  18
ATOM     18  N   LIG d   1       0.423  91.499 116.972  0.00  0.00     0.381 N 
ATOM     19  H   LIG d   1       0.734  90.673 117.444  0.00  0.00    -0.090 HD
ATOM     20  H   LIG d   1       1.228  92.059 116.753  0.00  0.00    -0.090 HD
ATOM     21  H   LIG d   1      -0.056  91.250 116.135  0.00  0.00    -0.090 HD
ENDBRANCH   5  18
BRANCH   3  22
ATOM     22  C   LIG d   1      -1.417  95.825 117.886  0.00  0.00     0.382 C 
ATOM     23  O   LIG d   1      -0.277  96.311 117.688  0.00  0.00    -0.241 OA
ATOM     24  O   LIG d   1      -2.378  96.585 118.107  0.00  0.00    -0.241 OA
ENDBRANCH   3  22
TORSDOF 7
ENDMDL
MODEL 6
REMARK VINA RESULT:      -4.2      2.186      4.182
REMARK  7 active torsions:
REMARK  status: ('A' for Active; 'I' for Inactive)
REMARK    1  A    between atoms: C_2  and  C_3 
REMARK    2  A    between atoms: C_3  and  O_6 
REMARK    3  A    between atoms: C_3  and  C_4 
REMARK    4  A    between atoms: C_7  and  O_6 
REMARK    5  A    between atoms: C_9  and  C_10 
REMARK    6  A    between atoms: N_15  and  C_14 
REMARK    7  A    between atoms: N_20  and  C_19 
REMARK       I    between atoms: C_22  and  N_20 
ROOT
ATOM      1  C   LIG d   1      -5.804  93.651 117.993  0.00  0.00     0.161 C 
ATOM      2  C   LIG d   1      -6.368  92.902 116.946  0.00  0.00     0.016 C 
ATOM      3  C   LIG d   1      -5.801  91.705 116.453  0.00  0.00     0.038 C 
ATOM      4  C   LIG d   1      -4.705  91.091 117.078  0.00  0.00     0.028 C 
ATOM      5  C   LIG d   1      -3.804  92.071 117.821  0.00  0.00    -0.047 C 
ATOM      6  C   LIG d   1      -4.672  92.938 118.761  0.00  0.00     0.091 C 
ENDROOT
BRANCH   1   7
ATOM      7  O   LIG d   1      -6.839  94.073 118.903  0.00  0.00    -0.368 OA
BRANCH   7   8
ATOM      8  C   LIG d   1      -6.911  95.495 119.171  0.00  0.00     0.119 C 
BRANCH   8   9
ATOM      9  C   LIG d   1      -8.396  95.904 119.102  0.00  0.00     0.028 C 
ATOM     10  C   LIG d   1      -8.829  96.301 117.681  0.00  0.00     0.006 C 
ENDBRANCH   8   9
BRANCH   8  11
ATOM     11  C   LIG d   1      -6.216  96.305 118.073  0.00  0.00     0.028 C 
ATOM     12  C   LIG d   1      -5.322  97.423 118.632  0.00  0.00     0.006 C 
ENDBRANCH   8  11
ENDBRANCH   7   8
ENDBRANCH   1   7
BRANCH   6  13
ATOM     13  N   LIG d   1      -3.879  93.981 119.463  0.00  0.00    -0.311 N 
ATOM     14  C   LIG d   1      -2.788  94.544 118.946  0.00  0.00     0.210 C 
ATOM     15  C   LIG d   1      -2.109  95.583 119.845  0.00  0.00     0.109 C 
ATOM     16  O   LIG d   1      -2.336  94.305 117.816  0.00  0.00    -0.276 OA
ATOM     17  H   LIG d   1      -4.193  94.257 120.373  0.00  0.00     0.149 HD
ENDBRANCH   6  13
BRANCH   5  18
ATOM     18  N   LIG d   1      -2.784  91.283 118.538  0.00  0.00     0.381 N 
ATOM     19  H   LIG d   1      -3.088  91.109 119.475  0.00  0.00    -0.090 HD
ATOM     20  H   LIG d   1      -1.931  91.813 118.577  0.00  0.00    -0.090 HD
ATOM     21  H   LIG d   1      -2.626  90.420 118.067  0.00  0.00    -0.090 HD
ENDBRANCH   5  18
BRANCH   3  22
ATOM     22  C   LIG d   1      -6.306  91.130 115.296  0.00  0.00     0.382 C 
ATOM     23  O   LIG d   1      -6.053  89.931 115.030  0.00  0.00    -0.241 OA
ATOM     24  O   LIG d   1      -6.975  91.809 114.494  0.00  0.00    -0.241 OA
ENDBRANCH   3  22
TORSDOF 7
ENDMDL
MODEL 7
REMARK VINA RESULT:      -4.1      8.866     11.296
REMARK  7 active torsions:
REMARK  status: ('A' for Active; 'I' for Inactive)
REMARK    1  A    between atoms: C_2  and  C_3 
REMARK    2  A    between atoms: C_3  and  O_6 
REMARK    3  A    between atoms: C_3  and  C_4 
REMARK    4  A    between atoms: C_7  and  O_6 
REMARK    5  A    between atoms: C_9  and  C_10 
REMARK    6  A    between atoms: N_15  and  C_14 
REMARK    7  A    between atoms: N_20  and  C_19 
REMARK       I    between atoms: C_22  and  N_20 
ROOT
ATOM      1  C   LIG d   1       4.743  90.178 115.291  0.00  0.00     0.161 C 
ATOM      2  C   LIG d   1       3.897  89.468 114.422  0.00  0.00     0.016 C 
ATOM      3  C   LIG d   1       4.010  88.078 114.190  0.00  0.00     0.038 C 
ATOM      4  C   LIG d   1       4.886  87.271 114.931  0.00  0.00     0.028 C 
ATOM      5  C   LIG d   1       6.106  88.023 115.454  0.00  0.00    -0.047 C 
ATOM      6  C   LIG d   1       5.632  89.296 116.192  0.00  0.00     0.091 C 
ENDROOT
BRANCH   1   7
ATOM      7  O   LIG d   1       3.965  91.090 116.093  0.00  0.00    -0.368 OA
BRANCH   7   8
ATOM      8  C   LIG d   1       3.354  90.531 117.281  0.00  0.00     0.119 C 
BRANCH   8   9
ATOM      9  C   LIG d   1       1.826  90.609 117.097  0.00  0.00     0.028 C 
ATOM     10  C   LIG d   1       1.164  89.221 117.088  0.00  0.00     0.006 C 
ENDBRANCH   8   9
BRANCH   8  11
ATOM     11  C   LIG d   1       3.658  91.383 118.517  0.00  0.00     0.028 C 
ATOM     12  C   LIG d   1       4.573  92.578 118.207  0.00  0.00     0.006 C 
ENDBRANCH   8  11
ENDBRANCH   7   8
ENDBRANCH   1   7
BRANCH   6  13
ATOM     13  N   LIG d   1       6.766  90.134 116.663  0.00  0.00    -0.311 N 
ATOM     14  C   LIG d   1       7.269  90.062 117.894  0.00  0.00     0.210 C 
ATOM     15  C   LIG d   1       8.423  91.028 118.178  0.00  0.00     0.109 C 
ATOM     16  O   LIG d   1       6.890  89.268 118.767  0.00  0.00    -0.276 OA
ATOM     17  H   LIG d   1       7.155  90.784 116.008  0.00  0.00     0.149 HD
ENDBRANCH   6  13
BRANCH   5  18
ATOM     18  N   LIG d   1       6.861  87.099 116.321  0.00  0.00     0.381 N 
ATOM     19  H   LIG d   1       6.239  86.424 116.720  0.00  0.00    -0.090 HD
ATOM     20  H   LIG d   1       7.278  87.624 117.070  0.00  0.00    -0.090 HD
ATOM     21  H   LIG d   1       7.569  86.638 115.794  0.00  0.00    -0.090 HD
ENDBRANCH   5  18
BRANCH   3  22
ATOM     22  C   LIG d   1       3.268  87.488 113.178  0.00  0.00     0.382 C 
ATOM     23  O   LIG d   1       2.553  88.197 112.430  0.00  0.00    -0.241 OA
ATOM     24  O   LIG d   1       3.271  86.251 113.032  0.00  0.00    -0.241 OA
ENDBRANCH   3  22
TORSDOF 7
ENDMDL
MODEL 8
REMARK VINA RESULT:      -4.1      4.678      7.323
REMARK  7 active torsions:
REMARK  status: ('A' for Active; 'I' for Inactive)
REMARK    1  A    between atoms: C_2  and  C_3 
REMARK    2  A    between atoms: C_3  and  O_6 
REMARK    3  A    between atoms: C_3  and  C_4 
REMARK    4  A    between atoms: C_7  and  O_6 
REMARK    5  A    between atoms: C_9  and  C_10 
REMARK    6  A    between atoms: N_15  and  C_14 
REMARK    7  A    between atoms: N_20  and  C_19 
REMARK       I    between atoms: C_22  and  N_20 
ROOT
ATOM      1  C   LIG d   1       0.444  91.172 116.745  0.00  0.00     0.161 C 
ATOM      2  C   LIG d   1       1.842  91.054 116.668  0.00  0.00     0.016 C 
ATOM      3  C   LIG d   1       2.731  91.795 117.480  0.00  0.00     0.038 C 
ATOM      4  C   LIG d   1       2.275  92.599 118.536  0.00  0.00     0.028 C 
ATOM      5  C   LIG d   1       0.865  93.137 118.322  0.00  0.00    -0.047 C 
ATOM      6  C   LIG d   1      -0.073  91.961 117.966  0.00  0.00     0.091 C 
ENDROOT
BRANCH   1   7
ATOM      7  O   LIG d   1      -0.160  89.864 116.702  0.00  0.00    -0.368 OA
BRANCH   7   8
ATOM      8  C   LIG d   1       0.465  88.846 117.522  0.00  0.00     0.119 C 
BRANCH   8   9
ATOM      9  C   LIG d   1       0.675  87.602 116.637  0.00  0.00     0.028 C 
ATOM     10  C   LIG d   1       1.080  86.363 117.453  0.00  0.00     0.006 C 
ENDBRANCH   8   9
BRANCH   8  11
ATOM     11  C   LIG d   1      -0.467  88.389 118.649  0.00  0.00     0.028 C 
ATOM     12  C   LIG d   1      -1.943  88.353 118.223  0.00  0.00     0.006 C 
ENDBRANCH   8  11
ENDBRANCH   7   8
ENDBRANCH   1   7
BRANCH   6  13
ATOM     13  N   LIG d   1      -1.455  92.411 117.658  0.00  0.00    -0.311 N 
ATOM     14  C   LIG d   1      -2.504  92.141 118.434  0.00  0.00     0.210 C 
ATOM     15  C   LIG d   1      -3.843  92.682 117.923  0.00  0.00     0.109 C 
ATOM     16  O   LIG d   1      -2.447  91.533 119.513  0.00  0.00    -0.276 OA
ATOM     17  H   LIG d   1      -1.587  92.938 116.817  0.00  0.00     0.149 HD
ENDBRANCH   6  13
BRANCH   5  18
ATOM     18  N   LIG d   1       0.465  93.842 119.555  0.00  0.00     0.381 N 
ATOM     19  H   LIG d   1      -0.511  94.060 119.519  0.00  0.00    -0.090 HD
ATOM     20  H   LIG d   1       0.979  94.703 119.618  0.00  0.00    -0.090 HD
ATOM     21  H   LIG d   1       0.657  93.273 120.350  0.00  0.00    -0.090 HD
ENDBRANCH   5  18
BRANCH   3  22
ATOM     22  C   LIG d   1       4.091  91.766 117.213  0.00  0.00     0.382 C 
ATOM     23  O   LIG d   1       4.737  92.839 117.132  0.00  0.00    -0.241 OA
ATOM     24  O   LIG d   1       4.672  90.684 117.009  0.00  0.00    -0.241 OA
ENDBRANCH   3  22
TORSDOF 7
ENDMDL
MODEL 9
REMARK VINA RESULT:      -4.1      2.079      4.883
REMARK  7 active torsions:
REMARK  status: ('A' for Active; 'I' for Inactive)
REMARK    1  A    between atoms: C_2  and  C_3 
REMARK    2  A    between atoms: C_3  and  O_6 
REMARK    3  A    between atoms: C_3  and  C_4 
REMARK    4  A    between atoms: C_7  and  O_6 
REMARK    5  A    between atoms: C_9  and  C_10 
REMARK    6  A    between atoms: N_15  and  C_14 
REMARK    7  A    between atoms: N_20  and  C_19 
REMARK       I    between atoms: C_22  and  N_20 
ROOT
ATOM      1  C   LIG d   1      -4.053  91.872 117.442  0.00  0.00     0.161 C 
ATOM      2  C   LIG d   1      -3.064  92.762 117.894  0.00  0.00     0.016 C 
ATOM      3  C   LIG d   1      -3.350  93.934 118.631  0.00  0.00     0.038 C 
ATOM      4  C   LIG d   1      -4.641  94.220 119.099  0.00  0.00     0.028 C 
ATOM      5  C   LIG d   1      -5.745  93.614 118.239  0.00  0.00    -0.047 C 
ATOM      6  C   LIG d   1      -5.457  92.109 118.039  0.00  0.00     0.091 C 
ENDROOT
BRANCH   1   7
ATOM      7  O   LIG d   1      -3.632  90.514 117.676  0.00  0.00    -0.368 OA
BRANCH   7   8
ATOM      8  C   LIG d   1      -2.310  90.345 118.243  0.00  0.00     0.119 C 
BRANCH   8   9
ATOM      9  C   LIG d   1      -1.445  89.621 117.192  0.00  0.00     0.028 C 
ATOM     10  C   LIG d   1      -0.040  90.235 117.065  0.00  0.00     0.006 C 
ENDBRANCH   8   9
BRANCH   8  11
ATOM     11  C   LIG d   1      -2.339  89.411 119.456  0.00  0.00     0.028 C 
ATOM     12  C   LIG d   1      -2.138  87.935 119.078  0.00  0.00     0.006 C 
ENDBRANCH   8  11
ENDBRANCH   7   8
ENDBRANCH   1   7
BRANCH   6  13
ATOM     13  N   LIG d   1      -6.444  91.457 117.139  0.00  0.00    -0.311 N 
ATOM     14  C   LIG d   1      -6.550  91.739 115.841  0.00  0.00     0.210 C 
ATOM     15  C   LIG d   1      -7.647  90.968 115.100  0.00  0.00     0.109 C 
ATOM     16  O   LIG d   1      -5.819  92.530 115.227  0.00  0.00    -0.276 OA
ATOM     17  H   LIG d   1      -7.056  90.779 117.548  0.00  0.00     0.149 HD
ENDBRANCH   6  13
BRANCH   5  18
ATOM     18  N   LIG d   1      -7.030  93.872 118.916  0.00  0.00     0.381 N 
ATOM     19  H   LIG d   1      -7.230  93.130 119.556  0.00  0.00    -0.090 HD
ATOM     20  H   LIG d   1      -7.760  93.901 118.227  0.00  0.00    -0.090 HD
ATOM     21  H   LIG d   1      -6.989  94.740 119.405  0.00  0.00    -0.090 HD
ENDBRANCH   5  18
BRANCH   3  22
ATOM     22  C   LIG d   1      -2.343  94.856 118.872  0.00  0.00     0.382 C 
ATOM     23  O   LIG d   1      -1.162  94.466 119.038  0.00  0.00    -0.241 OA
ATOM     24  O   LIG d   1      -2.607  96.069 118.971  0.00  0.00    -0.241 OA
ENDBRANCH   3  22
TORSDOF 7
ENDMDL
