MODEL 1
REMARK VINA RESULT:      -4.9      0.000      0.000
REMARK  7 active torsions:
REMARK  status: ('A' for Active; 'I' for Inactive)
REMARK    1  A    between atoms: C_2  and  C_3 
REMARK    2  A    between atoms: C_3  and  O_6 
REMARK    3  A    between atoms: C_3  and  C_4 
REMARK    4  A    between atoms: C_7  and  O_6 
REMARK    5  A    between atoms: C_9  and  C_10 
REMARK    6  A    between atoms: N_15  and  C_14 
REMARK    7  A    between atoms: N_20  and  C_19 
REMARK       I    between atoms: C_22  and  N_20 
ROOT
ATOM      1  C   LIG d   1      -5.461  92.194 117.448  0.00  0.00     0.161 C 
ATOM      2  C   LIG d   1      -6.206  93.375 117.606  0.00  0.00     0.016 C 
ATOM      3  C   LIG d   1      -5.801  94.445 118.438  0.00  0.00     0.038 C 
ATOM      4  C   LIG d   1      -4.541  94.470 119.054  0.00  0.00     0.028 C 
ATOM      5  C   LIG d   1      -3.973  93.081 119.327  0.00  0.00    -0.047 C 
ATOM      6  C   LIG d   1      -4.031  92.250 118.025  0.00  0.00     0.091 C 
ENDROOT
BRANCH   1   7
ATOM      7  O   LIG d   1      -5.426  91.822 116.056  0.00  0.00    -0.368 OA
BRANCH   7   8
ATOM      8  C   LIG d   1      -6.254  90.695 115.677  0.00  0.00     0.119 C 
BRANCH   8   9
ATOM      9  C   LIG d   1      -6.883  91.022 114.309  0.00  0.00     0.028 C 
ATOM     10  C   LIG d   1      -7.387  92.473 114.227  0.00  0.00     0.006 C 
ENDBRANCH   8   9
BRANCH   8  11
ATOM     11  C   LIG d   1      -7.435  90.524 116.636  0.00  0.00     0.028 C 
ATOM     12  C   LIG d   1      -8.488  89.533 116.114  0.00  0.00     0.006 C 
ENDBRANCH   8  11
ENDBRANCH   7   8
ENDBRANCH   1   7
BRANCH   6  13
ATOM     13  N   LIG d   1      -3.572  90.851 118.225  0.00  0.00    -0.311 N 
ATOM     14  C   LIG d   1      -2.301  90.471 118.099  0.00  0.00     0.210 C 
ATOM     15  C   LIG d   1      -2.047  88.978 118.328  0.00  0.00     0.109 C 
ATOM     16  O   LIG d   1      -1.356  91.234 117.850  0.00  0.00    -0.276 OA
ATOM     17  H   LIG d   1      -4.269  90.171 118.459  0.00  0.00     0.149 HD
ENDBRANCH   6  13
BRANCH   5  18
ATOM     18  N   LIG d   1      -2.602  93.254 119.842  0.00  0.00     0.381 N 
ATOM     19  H   LIG d   1      -2.614  93.854 120.643  0.00  0.00    -0.090 HD
ATOM     20  H   LIG d   1      -2.040  93.688 119.131  0.00  0.00    -0.090 HD
ATOM     21  H   LIG d   1      -2.216  92.369 120.088  0.00  0.00    -0.090 HD
ENDBRANCH   5  18
BRANCH   3  22
ATOM     22  C   LIG d   1      -6.679  95.488 118.691  0.00  0.00     0.382 C 
ATOM     23  O   LIG d   1      -7.432  95.909 117.780  0.00  0.00    -0.241 OA
ATOM     24  O   LIG d   1      -6.696  96.042 119.807  0.00  0.00    -0.241 OA
ENDBRANCH   3  22
TORSDOF 7
ENDMDL
MODEL 2
REMARK VINA RESULT:      -4.9      1.780      4.790
REMARK  7 active torsions:
REMARK  status: ('A' for Active; 'I' for Inactive)
REMARK    1  A    between atoms: C_2  and  C_3 
REMARK    2  A    between atoms: C_3  and  O_6 
REMARK    3  A    between atoms: C_3  and  C_4 
REMARK    4  A    between atoms: C_7  and  O_6 
REMARK    5  A    between atoms: C_9  and  C_10 
REMARK    6  A    between atoms: N_15  and  C_14 
REMARK    7  A    between atoms: N_20  and  C_19 
REMARK       I    between atoms: C_22  and  N_20 
ROOT
ATOM      1  C   LIG d   1      -5.443  92.760 117.799  0.00  0.00     0.161 C 
ATOM      2  C   LIG d   1      -4.306  91.955 117.981  0.00  0.00     0.016 C 
ATOM      3  C   LIG d   1      -3.187  92.350 118.748  0.00  0.00     0.038 C 
ATOM      4  C   LIG d   1      -3.191  93.525 119.515  0.00  0.00     0.028 C 
ATOM      5  C   LIG d   1      -4.113  94.607 118.961  0.00  0.00    -0.047 C 
ATOM      6  C   LIG d   1      -5.512  93.998 118.718  0.00  0.00     0.091 C 
ENDROOT
BRANCH   1   7
ATOM      7  O   LIG d   1      -6.635  91.963 117.941  0.00  0.00    -0.368 OA
BRANCH   7   8
ATOM      8  C   LIG d   1      -7.441  91.804 116.748  0.00  0.00     0.119 C 
BRANCH   8   9
ATOM      9  C   LIG d   1      -7.180  90.388 116.198  0.00  0.00     0.028 C 
ATOM     10  C   LIG d   1      -8.463  89.543 116.118  0.00  0.00     0.006 C 
ENDBRANCH   8   9
BRANCH   8  11
ATOM     11  C   LIG d   1      -6.990  92.759 115.639  0.00  0.00     0.028 C 
ATOM     12  C   LIG d   1      -7.030  92.114 114.244  0.00  0.00     0.006 C 
ENDBRANCH   8  11
ENDBRANCH   7   8
ENDBRANCH   1   7
BRANCH   6  13
ATOM     13  N   LIG d   1      -6.452  94.967 118.098  0.00  0.00    -0.311 N 
ATOM     14  C   LIG d   1      -7.639  95.274 118.619  0.00  0.00     0.210 C 
ATOM     15  C   LIG d   1      -8.460  96.282 117.808  0.00  0.00     0.109 C 
ATOM     16  O   LIG d   1      -8.076  94.832 119.692  0.00  0.00    -0.276 OA
ATOM     17  H   LIG d   1      -6.164  95.397 117.240  0.00  0.00     0.149 HD
ENDBRANCH   6  13
BRANCH   5  18
ATOM     18  N   LIG d   1      -4.126  95.719 119.929  0.00  0.00     0.381 N 
ATOM     19  H   LIG d   1      -4.889  95.605 120.566  0.00  0.00    -0.090 HD
ATOM     20  H   LIG d   1      -4.258  96.582 119.431  0.00  0.00    -0.090 HD
ATOM     21  H   LIG d   1      -3.266  95.745 120.431  0.00  0.00    -0.090 HD
ENDBRANCH   5  18
BRANCH   3  22
ATOM     22  C   LIG d   1      -2.030  91.586 118.721  0.00  0.00     0.382 C 
ATOM     23  O   LIG d   1      -1.821  90.798 117.767  0.00  0.00    -0.241 OA
ATOM     24  O   LIG d   1      -1.215  91.641 119.661  0.00  0.00    -0.241 OA
ENDBRANCH   3  22
TORSDOF 7
ENDMDL
MODEL 3
REMARK VINA RESULT:      -4.8      2.328      6.073
REMARK  7 active torsions:
REMARK  status: ('A' for Active; 'I' for Inactive)
REMARK    1  A    between atoms: C_2  and  C_3 
REMARK    2  A    between atoms: C_3  and  O_6 
REMARK    3  A    between atoms: C_3  and  C_4 
REMARK    4  A    between atoms: C_7  and  O_6 
REMARK    5  A    between atoms: C_9  and  C_10 
REMARK    6  A    between atoms: N_15  and  C_14 
REMARK    7  A    between atoms: N_20  and  C_19 
REMARK       I    between atoms: C_22  and  N_20 
ROOT
ATOM      1  C   LIG d   1      -5.256  92.637 117.847  0.00  0.00     0.161 C 
ATOM      2  C   LIG d   1      -5.370  91.494 117.039  0.00  0.00     0.016 C 
ATOM      3  C   LIG d   1      -6.430  91.289 116.126  0.00  0.00     0.038 C 
ATOM      4  C   LIG d   1      -7.373  92.289 115.848  0.00  0.00     0.028 C 
ATOM      5  C   LIG d   1      -7.587  93.258 117.005  0.00  0.00    -0.047 C 
ATOM      6  C   LIG d   1      -6.214  93.789 117.477  0.00  0.00     0.091 C 
ENDROOT
BRANCH   1   7
ATOM      7  O   LIG d   1      -3.891  93.101 117.847  0.00  0.00    -0.368 OA
BRANCH   7   8
ATOM      8  C   LIG d   1      -3.035  92.562 118.883  0.00  0.00     0.119 C 
BRANCH   8   9
ATOM      9  C   LIG d   1      -2.578  93.740 119.766  0.00  0.00     0.028 C 
ATOM     10  C   LIG d   1      -1.050  93.795 119.927  0.00  0.00     0.006 C 
ENDBRANCH   8   9
BRANCH   8  11
ATOM     11  C   LIG d   1      -1.749  91.975 118.294  0.00  0.00     0.028 C 
ATOM     12  C   LIG d   1      -1.754  90.438 118.265  0.00  0.00     0.006 C 
ENDBRANCH   8  11
ENDBRANCH   7   8
ENDBRANCH   1   7
BRANCH   6  13
ATOM     13  N   LIG d   1      -6.326  94.679 118.661  0.00  0.00    -0.311 N 
ATOM     14  C   LIG d   1      -6.720  95.950 118.589  0.00  0.00     0.210 C 
ATOM     15  C   LIG d   1      -6.747  96.695 119.927  0.00  0.00     0.109 C 
ATOM     16  O   LIG d   1      -7.080  96.520 117.549  0.00  0.00    -0.276 OA
ATOM     17  H   LIG d   1      -6.084  94.288 119.550  0.00  0.00     0.149 HD
ENDBRANCH   6  13
BRANCH   5  18
ATOM     18  N   LIG d   1      -8.488  94.326 116.531  0.00  0.00     0.381 N 
ATOM     19  H   LIG d   1      -8.499  95.078 117.191  0.00  0.00    -0.090 HD
ATOM     20  H   LIG d   1      -9.420  93.957 116.458  0.00  0.00    -0.090 HD
ATOM     21  H   LIG d   1      -8.184  94.659 115.643  0.00  0.00    -0.090 HD
ENDBRANCH   5  18
BRANCH   3  22
ATOM     22  C   LIG d   1      -6.577  90.055 115.510  0.00  0.00     0.382 C 
ATOM     23  O   LIG d   1      -5.587  89.501 114.973  0.00  0.00    -0.241 OA
ATOM     24  O   LIG d   1      -7.695  89.511 115.445  0.00  0.00    -0.241 OA
ENDBRANCH   3  22
TORSDOF 7
ENDMDL
MODEL 4
REMARK VINA RESULT:      -4.8      7.368     10.231
REMARK  7 active torsions:
REMARK  status: ('A' for Active; 'I' for Inactive)
REMARK    1  A    between atoms: C_2  and  C_3 
REMARK    2  A    between atoms: C_3  and  O_6 
REMARK    3  A    between atoms: C_3  and  C_4 
REMARK    4  A    between atoms: C_7  and  O_6 
REMARK    5  A    between atoms: C_9  and  C_10 
REMARK    6  A    between atoms: N_15  and  C_14 
REMARK    7  A    between atoms: N_20  and  C_19 
REMARK       I    between atoms: C_22  and  N_20 
ROOT
ATOM      1  C   LIG d   1       3.097  89.510 116.615  0.00  0.00     0.161 C 
ATOM      2  C   LIG d   1       3.085  89.019 115.299  0.00  0.00     0.016 C 
ATOM      3  C   LIG d   1       4.257  88.681 114.583  0.00  0.00     0.038 C 
ATOM      4  C   LIG d   1       5.520  88.670 115.193  0.00  0.00     0.028 C 
ATOM      5  C   LIG d   1       5.636  89.641 116.363  0.00  0.00    -0.047 C 
ATOM      6  C   LIG d   1       4.458  89.400 117.334  0.00  0.00     0.091 C 
ENDROOT
BRANCH   1   7
ATOM      7  O   LIG d   1       2.068  88.862 117.388  0.00  0.00    -0.368 OA
BRANCH   7   8
ATOM      8  C   LIG d   1       1.108  89.737 118.032  0.00  0.00     0.119 C 
BRANCH   8   9
ATOM      9  C   LIG d   1      -0.252  89.012 118.031  0.00  0.00     0.028 C 
ATOM     10  C   LIG d   1      -0.126  87.529 117.644  0.00  0.00     0.006 C 
ENDBRANCH   8   9
BRANCH   8  11
ATOM     11  C   LIG d   1       0.887  91.016 117.218  0.00  0.00     0.028 C 
ATOM     12  C   LIG d   1       0.742  92.265 118.101  0.00  0.00     0.006 C 
ENDBRANCH   8  11
ENDBRANCH   7   8
ENDBRANCH   1   7
BRANCH   6  13
ATOM     13  N   LIG d   1       4.448  90.364 118.465  0.00  0.00    -0.311 N 
ATOM     14  C   LIG d   1       4.400  91.685 118.301  0.00  0.00     0.210 C 
ATOM     15  C   LIG d   1       4.420  92.498 119.600  0.00  0.00     0.109 C 
ATOM     16  O   LIG d   1       4.311  92.259 117.206  0.00  0.00    -0.276 OA
ATOM     17  H   LIG d   1       4.487  89.983 119.390  0.00  0.00     0.149 HD
ENDBRANCH   6  13
BRANCH   5  18
ATOM     18  N   LIG d   1       6.955  89.427 116.990  0.00  0.00     0.381 N 
ATOM     19  H   LIG d   1       7.623  90.059 116.597  0.00  0.00    -0.090 HD
ATOM     20  H   LIG d   1       7.257  88.488 116.798  0.00  0.00    -0.090 HD
ATOM     21  H   LIG d   1       6.891  89.569 117.974  0.00  0.00    -0.090 HD
ENDBRANCH   5  18
BRANCH   3  22
ATOM     22  C   LIG d   1       4.175  88.388 113.230  0.00  0.00     0.382 C 
ATOM     23  O   LIG d   1       5.208  88.424 112.518  0.00  0.00    -0.241 OA
ATOM     24  O   LIG d   1       3.076  88.133 112.704  0.00  0.00    -0.241 OA
ENDBRANCH   3  22
TORSDOF 7
ENDMDL
MODEL 5
REMARK VINA RESULT:      -4.7      6.817      9.543
REMARK  7 active torsions:
REMARK  status: ('A' for Active; 'I' for Inactive)
REMARK    1  A    between atoms: C_2  and  C_3 
REMARK    2  A    between atoms: C_3  and  O_6 
REMARK    3  A    between atoms: C_3  and  C_4 
REMARK    4  A    between atoms: C_7  and  O_6 
REMARK    5  A    between atoms: C_9  and  C_10 
REMARK    6  A    between atoms: N_15  and  C_14 
REMARK    7  A    between atoms: N_20  and  C_19 
REMARK       I    between atoms: C_22  and  N_20 
ROOT
ATOM      1  C   LIG d   1       2.659  88.959 116.879  0.00  0.00     0.161 C 
ATOM      2  C   LIG d   1       3.223  89.827 117.828  0.00  0.00     0.016 C 
ATOM      3  C   LIG d   1       4.509  90.398 117.694  0.00  0.00     0.038 C 
ATOM      4  C   LIG d   1       5.264  90.257 116.520  0.00  0.00     0.028 C 
ATOM      5  C   LIG d   1       4.950  88.979 115.748  0.00  0.00    -0.047 C 
ATOM      6  C   LIG d   1       3.421  88.881 115.540  0.00  0.00     0.091 C 
ENDROOT
BRANCH   1   7
ATOM      7  O   LIG d   1       1.280  89.313 116.651  0.00  0.00    -0.368 OA
BRANCH   7   8
ATOM      8  C   LIG d   1       0.439  89.392 117.828  0.00  0.00     0.119 C 
BRANCH   8   9
ATOM      9  C   LIG d   1      -0.456  88.138 117.843  0.00  0.00     0.028 C 
ATOM     10  C   LIG d   1      -1.887  88.444 118.316  0.00  0.00     0.006 C 
ENDBRANCH   8   9
BRANCH   8  11
ATOM     11  C   LIG d   1      -0.526  90.578 117.744  0.00  0.00     0.028 C 
ATOM     12  C   LIG d   1       0.169  91.883 117.324  0.00  0.00     0.006 C 
ENDBRANCH   8  11
ENDBRANCH   7   8
ENDBRANCH   1   7
BRANCH   6  13
ATOM     13  N   LIG d   1       3.021  87.619 114.866  0.00  0.00    -0.311 N 
ATOM     14  C   LIG d   1       2.894  87.500 113.546  0.00  0.00     0.210 C 
ATOM     15  C   LIG d   1       2.452  86.117 113.060  0.00  0.00     0.109 C 
ATOM     16  O   LIG d   1       3.138  88.401 112.728  0.00  0.00    -0.276 OA
ATOM     17  H   LIG d   1       2.834  86.829 115.452  0.00  0.00     0.149 HD
ENDBRANCH   6  13
BRANCH   5  18
ATOM     18  N   LIG d   1       5.704  89.027 114.481  0.00  0.00     0.381 N 
ATOM     19  H   LIG d   1       5.648  88.141 114.020  0.00  0.00    -0.090 HD
ATOM     20  H   LIG d   1       6.670  89.216 114.685  0.00  0.00    -0.090 HD
ATOM     21  H   LIG d   1       5.336  89.741 113.892  0.00  0.00    -0.090 HD
ENDBRANCH   5  18
BRANCH   3  22
ATOM     22  C   LIG d   1       5.070  91.087 118.758  0.00  0.00     0.382 C 
ATOM     23  O   LIG d   1       5.348  92.304 118.640  0.00  0.00    -0.241 OA
ATOM     24  O   LIG d   1       5.343  90.495 119.820  0.00  0.00    -0.241 OA
ENDBRANCH   3  22
TORSDOF 7
ENDMDL
MODEL 6
REMARK VINA RESULT:      -4.5      4.538      7.483
REMARK  7 active torsions:
REMARK  status: ('A' for Active; 'I' for Inactive)
REMARK    1  A    between atoms: C_2  and  C_3 
REMARK    2  A    between atoms: C_3  and  O_6 
REMARK    3  A    between atoms: C_3  and  C_4 
REMARK    4  A    between atoms: C_7  and  O_6 
REMARK    5  A    between atoms: C_9  and  C_10 
REMARK    6  A    between atoms: N_15  and  C_14 
REMARK    7  A    between atoms: N_20  and  C_19 
REMARK       I    between atoms: C_22  and  N_20 
ROOT
ATOM      1  C   LIG d   1       0.944  89.961 117.927  0.00  0.00     0.161 C 
ATOM      2  C   LIG d   1      -0.424  89.704 117.739  0.00  0.00     0.016 C 
ATOM      3  C   LIG d   1      -1.440  90.638 118.045  0.00  0.00     0.038 C 
ATOM      4  C   LIG d   1      -1.146  91.957 118.422  0.00  0.00     0.028 C 
ATOM      5  C   LIG d   1       0.208  92.103 119.109  0.00  0.00    -0.047 C 
ATOM      6  C   LIG d   1       1.290  91.433 118.232  0.00  0.00     0.091 C 
ENDROOT
BRANCH   1   7
ATOM      7  O   LIG d   1       1.690  89.497 116.784  0.00  0.00    -0.368 OA
BRANCH   7   8
ATOM      8  C   LIG d   1       2.511  88.321 116.993  0.00  0.00     0.119 C 
BRANCH   8   9
ATOM      9  C   LIG d   1       3.860  88.567 116.290  0.00  0.00     0.028 C 
ATOM     10  C   LIG d   1       3.731  88.572 114.758  0.00  0.00     0.006 C 
ENDBRANCH   8   9
BRANCH   8  11
ATOM     11  C   LIG d   1       1.911  87.093 116.301  0.00  0.00     0.028 C 
ATOM     12  C   LIG d   1       1.005  86.270 117.230  0.00  0.00     0.006 C 
ENDBRANCH   8  11
ENDBRANCH   7   8
ENDBRANCH   1   7
BRANCH   6  13
ATOM     13  N   LIG d   1       2.632  91.457 118.871  0.00  0.00    -0.311 N 
ATOM     14  C   LIG d   1       3.754  91.734 118.209  0.00  0.00     0.210 C 
ATOM     15  C   LIG d   1       5.031  91.685 119.054  0.00  0.00     0.109 C 
ATOM     16  O   LIG d   1       3.809  92.047 117.011  0.00  0.00    -0.276 OA
ATOM     17  H   LIG d   1       2.675  91.245 119.848  0.00  0.00     0.149 HD
ENDBRANCH   6  13
BRANCH   5  18
ATOM     18  N   LIG d   1       0.446  93.543 119.322  0.00  0.00     0.381 N 
ATOM     19  H   LIG d   1       0.317  94.039 118.462  0.00  0.00    -0.090 HD
ATOM     20  H   LIG d   1       1.396  93.675 119.622  0.00  0.00    -0.090 HD
ATOM     21  H   LIG d   1      -0.180  93.894 120.013  0.00  0.00    -0.090 HD
ENDBRANCH   5  18
BRANCH   3  22
ATOM     22  C   LIG d   1      -2.769  90.243 118.015  0.00  0.00     0.382 C 
ATOM     23  O   LIG d   1      -3.068  89.035 118.177  0.00  0.00    -0.241 OA
ATOM     24  O   LIG d   1      -3.669  91.072 117.783  0.00  0.00    -0.241 OA
ENDBRANCH   3  22
TORSDOF 7
ENDMDL
MODEL 7
REMARK VINA RESULT:      -4.5      8.636     10.682
REMARK  7 active torsions:
REMARK  status: ('A' for Active; 'I' for Inactive)
REMARK    1  A    between atoms: C_2  and  C_3 
REMARK    2  A    between atoms: C_3  and  O_6 
REMARK    3  A    between atoms: C_3  and  C_4 
REMARK    4  A    between atoms: C_7  and  O_6 
REMARK    5  A    between atoms: C_9  and  C_10 
REMARK    6  A    between atoms: N_15  and  C_14 
REMARK    7  A    between atoms: N_20  and  C_19 
REMARK       I    between atoms: C_22  and  N_20 
ROOT
ATOM      1  C   LIG d   1       3.107  89.356 116.626  0.00  0.00     0.161 C 
ATOM      2  C   LIG d   1       3.116  88.883 115.303  0.00  0.00     0.016 C 
ATOM      3  C   LIG d   1       4.299  88.685 114.555  0.00  0.00     0.038 C 
ATOM      4  C   LIG d   1       5.571  88.805 115.134  0.00  0.00     0.028 C 
ATOM      5  C   LIG d   1       5.610  89.767 116.316  0.00  0.00    -0.047 C 
ATOM      6  C   LIG d   1       4.490  89.386 117.311  0.00  0.00     0.091 C 
ENDROOT
BRANCH   1   7
ATOM      7  O   LIG d   1       2.175  88.589 117.414  0.00  0.00    -0.368 OA
BRANCH   7   8
ATOM      8  C   LIG d   1       1.899  87.246 116.946  0.00  0.00     0.119 C 
BRANCH   8   9
ATOM      9  C   LIG d   1       0.415  86.950 117.238  0.00  0.00     0.028 C 
ATOM     10  C   LIG d   1       0.223  86.133 118.527  0.00  0.00     0.006 C 
ENDBRANCH   8   9
BRANCH   8  11
ATOM     11  C   LIG d   1       2.686  86.205 117.747  0.00  0.00     0.028 C 
ATOM     12  C   LIG d   1       3.823  85.563 116.935  0.00  0.00     0.006 C 
ENDBRANCH   8  11
ENDBRANCH   7   8
ENDBRANCH   1   7
BRANCH   6  13
ATOM     13  N   LIG d   1       4.404  90.329 118.456  0.00  0.00    -0.311 N 
ATOM     14  C   LIG d   1       4.271  91.646 118.313  0.00  0.00     0.210 C 
ATOM     15  C   LIG d   1       4.222  92.437 119.624  0.00  0.00     0.109 C 
ATOM     16  O   LIG d   1       4.156  92.231 117.226  0.00  0.00    -0.276 OA
ATOM     17  H   LIG d   1       4.458  89.936 119.376  0.00  0.00     0.149 HD
ENDBRANCH   6  13
BRANCH   5  18
ATOM     18  N   LIG d   1       6.959  89.691 116.908  0.00  0.00     0.381 N 
ATOM     19  H   LIG d   1       7.541  89.098 116.350  0.00  0.00    -0.090 HD
ATOM     20  H   LIG d   1       6.889  89.290 117.827  0.00  0.00    -0.090 HD
ATOM     21  H   LIG d   1       7.359  90.602 116.965  0.00  0.00    -0.090 HD
ENDBRANCH   5  18
BRANCH   3  22
ATOM     22  C   LIG d   1       4.215  88.402 113.200  0.00  0.00     0.382 C 
ATOM     23  O   LIG d   1       5.249  88.431 112.489  0.00  0.00    -0.241 OA
ATOM     24  O   LIG d   1       3.113  88.163 112.671  0.00  0.00    -0.241 OA
ENDBRANCH   3  22
TORSDOF 7
ENDMDL
MODEL 8
REMARK VINA RESULT:      -4.3      7.315     10.214
REMARK  7 active torsions:
REMARK  status: ('A' for Active; 'I' for Inactive)
REMARK    1  A    between atoms: C_2  and  C_3 
REMARK    2  A    between atoms: C_3  and  O_6 
REMARK    3  A    between atoms: C_3  and  C_4 
REMARK    4  A    between atoms: C_7  and  O_6 
REMARK    5  A    between atoms: C_9  and  C_10 
REMARK    6  A    between atoms: N_15  and  C_14 
REMARK    7  A    between atoms: N_20  and  C_19 
REMARK       I    between atoms: C_22  and  N_20 
ROOT
ATOM      1  C   LIG d   1       4.222  89.846 116.599  0.00  0.00     0.161 C 
ATOM      2  C   LIG d   1       2.910  90.345 116.538  0.00  0.00     0.016 C 
ATOM      3  C   LIG d   1       2.371  91.236 117.495  0.00  0.00     0.038 C 
ATOM      4  C   LIG d   1       3.162  91.810 118.501  0.00  0.00     0.028 C 
ATOM      5  C   LIG d   1       4.354  90.947 118.901  0.00  0.00    -0.047 C 
ATOM      6  C   LIG d   1       5.134  90.547 117.627  0.00  0.00     0.091 C 
ENDROOT
BRANCH   1   7
ATOM      7  O   LIG d   1       4.821  89.886 115.288  0.00  0.00    -0.368 OA
BRANCH   7   8
ATOM      8  C   LIG d   1       5.270  88.616 114.754  0.00  0.00     0.119 C 
BRANCH   8   9
ATOM      9  C   LIG d   1       5.005  88.633 113.236  0.00  0.00     0.028 C 
ATOM     10  C   LIG d   1       3.883  87.664 112.826  0.00  0.00     0.006 C 
ENDBRANCH   8   9
BRANCH   8  11
ATOM     11  C   LIG d   1       4.434  87.455 115.299  0.00  0.00     0.028 C 
ATOM     12  C   LIG d   1       5.247  86.502 116.190  0.00  0.00     0.006 C 
ENDBRANCH   8  11
ENDBRANCH   7   8
ENDBRANCH   1   7
BRANCH   6  13
ATOM     13  N   LIG d   1       6.268  89.633 117.920  0.00  0.00    -0.311 N 
ATOM     14  C   LIG d   1       7.519  90.051 118.103  0.00  0.00     0.210 C 
ATOM     15  C   LIG d   1       8.539  88.941 118.374  0.00  0.00     0.109 C 
ATOM     16  O   LIG d   1       7.875  91.239 118.098  0.00  0.00    -0.276 OA
ATOM     17  H   LIG d   1       6.063  88.654 117.972  0.00  0.00     0.149 HD
ENDBRANCH   6  13
BRANCH   5  18
ATOM     18  N   LIG d   1       5.167  91.724 119.856  0.00  0.00     0.381 N 
ATOM     19  H   LIG d   1       6.109  91.387 119.851  0.00  0.00    -0.090 HD
ATOM     20  H   LIG d   1       4.791  91.598 120.779  0.00  0.00    -0.090 HD
ATOM     21  H   LIG d   1       5.150  92.689 119.611  0.00  0.00    -0.090 HD
ENDBRANCH   5  18
BRANCH   3  22
ATOM     22  C   LIG d   1       1.016  91.530 117.474  0.00  0.00     0.382 C 
ATOM     23  O   LIG d   1       0.623  92.692 117.733  0.00  0.00    -0.241 OA
ATOM     24  O   LIG d   1       0.180  90.636 117.242  0.00  0.00    -0.241 OA
ENDBRANCH   3  22
TORSDOF 7
ENDMDL
MODEL 9
REMARK VINA RESULT:      -4.2      1.516      2.205
REMARK  7 active torsions:
REMARK  status: ('A' for Active; 'I' for Inactive)
REMARK    1  A    between atoms: C_2  and  C_3 
REMARK    2  A    between atoms: C_3  and  O_6 
REMARK    3  A    between atoms: C_3  and  C_4 
REMARK    4  A    between atoms: C_7  and  O_6 
REMARK    5  A    between atoms: C_9  and  C_10 
REMARK    6  A    between atoms: N_15  and  C_14 
REMARK    7  A    between atoms: N_20  and  C_19 
REMARK       I    between atoms: C_22  and  N_20 
ROOT
ATOM      1  C   LIG d   1      -6.103  92.443 118.430  0.00  0.00     0.161 C 
ATOM      2  C   LIG d   1      -7.246  93.224 118.192  0.00  0.00     0.016 C 
ATOM      3  C   LIG d   1      -7.299  94.618 118.425  0.00  0.00     0.038 C 
ATOM      4  C   LIG d   1      -6.157  95.355 118.772  0.00  0.00     0.028 C 
ATOM      5  C   LIG d   1      -5.107  94.533 119.511  0.00  0.00    -0.047 C 
ATOM      6  C   LIG d   1      -4.815  93.248 118.703  0.00  0.00     0.091 C 
ENDROOT
BRANCH   1   7
ATOM      7  O   LIG d   1      -5.900  91.528 117.336  0.00  0.00    -0.368 OA
BRANCH   7   8
ATOM      8  C   LIG d   1      -6.959  91.470 116.348  0.00  0.00     0.119 C 
BRANCH   8   9
ATOM      9  C   LIG d   1      -7.130  89.994 115.940  0.00  0.00     0.028 C 
ATOM     10  C   LIG d   1      -8.590  89.521 116.049  0.00  0.00     0.006 C 
ENDBRANCH   8   9
BRANCH   8  11
ATOM     11  C   LIG d   1      -6.563  92.203 115.063  0.00  0.00     0.028 C 
ATOM     12  C   LIG d   1      -7.650  92.134 113.979  0.00  0.00     0.006 C 
ENDBRANCH   8  11
ENDBRANCH   7   8
ENDBRANCH   1   7
BRANCH   6  13
ATOM     13  N   LIG d   1      -3.860  92.346 119.398  0.00  0.00    -0.311 N 
ATOM     14  C   LIG d   1      -2.562  92.290 119.108  0.00  0.00     0.210 C 
ATOM     15  C   LIG d   1      -1.758  91.277 119.930  0.00  0.00     0.109 C 
ATOM     16  O   LIG d   1      -1.993  93.005 118.270  0.00  0.00    -0.276 OA
ATOM     17  H   LIG d   1      -4.232  91.753 120.114  0.00  0.00     0.149 HD
ENDBRANCH   6  13
BRANCH   5  18
ATOM     18  N   LIG d   1      -3.917  95.386 119.689  0.00  0.00     0.381 N 
ATOM     19  H   LIG d   1      -4.192  96.348 119.725  0.00  0.00    -0.090 HD
ATOM     20  H   LIG d   1      -3.307  95.262 118.900  0.00  0.00    -0.090 HD
ATOM     21  H   LIG d   1      -3.441  95.138 120.528  0.00  0.00    -0.090 HD
ENDBRANCH   5  18
BRANCH   3  22
ATOM     22  C   LIG d   1      -8.514  95.282 118.350  0.00  0.00     0.382 C 
ATOM     23  O   LIG d   1      -9.551  94.745 118.808  0.00  0.00    -0.241 OA
ATOM     24  O   LIG d   1      -8.594  96.392 117.790  0.00  0.00    -0.241 OA
ENDBRANCH   3  22
TORSDOF 7
ENDMDL
