MODEL 1
REMARK VINA RESULT:      -5.1      0.000      0.000
REMARK  7 active torsions:
REMARK  status: ('A' for Active; 'I' for Inactive)
REMARK    1  A    between atoms: C_2  and  C_3 
REMARK    2  A    between atoms: C_3  and  O_6 
REMARK    3  A    between atoms: C_3  and  C_4 
REMARK    4  A    between atoms: C_7  and  O_6 
REMARK    5  A    between atoms: C_9  and  C_10 
REMARK    6  A    between atoms: N_15  and  C_14 
REMARK    7  A    between atoms: N_20  and  C_19 
REMARK       I    between atoms: C_22  and  N_20 
ROOT
ATOM      1  C   LIG d   1      -5.879  93.439 118.436  0.00  0.00     0.161 C 
ATOM      2  C   LIG d   1      -6.556  92.790 117.390  0.00  0.00     0.016 C 
ATOM      3  C   LIG d   1      -5.976  91.767 116.605  0.00  0.00     0.038 C 
ATOM      4  C   LIG d   1      -4.723  91.217 116.912  0.00  0.00     0.028 C 
ATOM      5  C   LIG d   1      -3.799  92.184 117.643  0.00  0.00    -0.047 C 
ATOM      6  C   LIG d   1      -4.552  92.775 118.857  0.00  0.00     0.091 C 
ENDROOT
BRANCH   1   7
ATOM      7  O   LIG d   1      -6.754  93.576 119.573  0.00  0.00    -0.368 OA
BRANCH   7   8
ATOM      8  C   LIG d   1      -7.236  94.915 119.849  0.00  0.00     0.119 C 
BRANCH   8   9
ATOM      9  C   LIG d   1      -8.689  94.997 119.341  0.00  0.00     0.028 C 
ATOM     10  C   LIG d   1      -8.821  95.863 118.078  0.00  0.00     0.006 C 
ENDBRANCH   8   9
BRANCH   8  11
ATOM     11  C   LIG d   1      -6.465  95.962 119.041  0.00  0.00     0.028 C 
ATOM     12  C   LIG d   1      -5.729  96.977 119.930  0.00  0.00     0.006 C 
ENDBRANCH   8  11
ENDBRANCH   7   8
ENDBRANCH   1   7
BRANCH   6  13
ATOM     13  N   LIG d   1      -3.748  93.796 119.580  0.00  0.00    -0.311 N 
ATOM     14  C   LIG d   1      -2.799  94.528 118.999  0.00  0.00     0.210 C 
ATOM     15  C   LIG d   1      -2.078  95.508 119.930  0.00  0.00     0.109 C 
ATOM     16  O   LIG d   1      -2.509  94.482 117.794  0.00  0.00    -0.276 OA
ATOM     17  H   LIG d   1      -3.940  93.920 120.555  0.00  0.00     0.149 HD
ENDBRANCH   6  13
BRANCH   5  18
ATOM     18  N   LIG d   1      -2.584  91.439 118.023  0.00  0.00     0.381 N 
ATOM     19  H   LIG d   1      -1.772  91.941 117.724  0.00  0.00    -0.090 HD
ATOM     20  H   LIG d   1      -2.592  90.547 117.560  0.00  0.00    -0.090 HD
ATOM     21  H   LIG d   1      -2.558  91.309 119.010  0.00  0.00    -0.090 HD
ENDBRANCH   5  18
BRANCH   3  22
ATOM     22  C   LIG d   1      -6.636  91.313 115.473  0.00  0.00     0.382 C 
ATOM     23  O   LIG d   1      -7.100  90.147 115.443  0.00  0.00    -0.241 OA
ATOM     24  O   LIG d   1      -6.734  92.038 114.465  0.00  0.00    -0.241 OA
ENDBRANCH   3  22
TORSDOF 7
ENDMDL
MODEL 2
REMARK VINA RESULT:      -4.9      8.463     11.269
REMARK  7 active torsions:
REMARK  status: ('A' for Active; 'I' for Inactive)
REMARK    1  A    between atoms: C_2  and  C_3 
REMARK    2  A    between atoms: C_3  and  O_6 
REMARK    3  A    between atoms: C_3  and  C_4 
REMARK    4  A    between atoms: C_7  and  O_6 
REMARK    5  A    between atoms: C_9  and  C_10 
REMARK    6  A    between atoms: N_15  and  C_14 
REMARK    7  A    between atoms: N_20  and  C_19 
REMARK       I    between atoms: C_22  and  N_20 
ROOT
ATOM      1  C   LIG d   1       2.495  87.796 115.658  0.00  0.00     0.161 C 
ATOM      2  C   LIG d   1       1.446  87.910 116.585  0.00  0.00     0.016 C 
ATOM      3  C   LIG d   1       1.382  88.926 117.567  0.00  0.00     0.038 C 
ATOM      4  C   LIG d   1       2.293  89.992 117.591  0.00  0.00     0.028 C 
ATOM      5  C   LIG d   1       3.652  89.642 116.994  0.00  0.00    -0.047 C 
ATOM      6  C   LIG d   1       3.440  89.014 115.598  0.00  0.00     0.091 C 
ENDROOT
BRANCH   1   7
ATOM      7  O   LIG d   1       1.962  87.509 114.350  0.00  0.00    -0.368 OA
BRANCH   7   8
ATOM      8  C   LIG d   1       1.776  86.108 114.031  0.00  0.00     0.119 C 
BRANCH   8   9
ATOM      9  C   LIG d   1       3.162  85.436 114.069  0.00  0.00     0.028 C 
ATOM     10  C   LIG d   1       3.862  85.457 112.700  0.00  0.00     0.006 C 
ENDBRANCH   8   9
BRANCH   8  11
ATOM     11  C   LIG d   1       1.276  85.926 112.595  0.00  0.00     0.028 C 
ATOM     12  C   LIG d   1      -0.179  85.435 112.528  0.00  0.00     0.006 C 
ENDBRANCH   8  11
ENDBRANCH   7   8
ENDBRANCH   1   7
BRANCH   6  13
ATOM     13  N   LIG d   1       4.714  88.565 114.979  0.00  0.00    -0.311 N 
ATOM     14  C   LIG d   1       5.008  88.744 113.692  0.00  0.00     0.210 C 
ATOM     15  C   LIG d   1       6.366  88.187 113.255  0.00  0.00     0.109 C 
ATOM     16  O   LIG d   1       4.286  89.341 112.879  0.00  0.00    -0.276 OA
ATOM     17  H   LIG d   1       5.371  88.099 115.574  0.00  0.00     0.149 HD
ENDBRANCH   6  13
BRANCH   5  18
ATOM     18  N   LIG d   1       4.455  90.878 116.957  0.00  0.00     0.381 N 
ATOM     19  H   LIG d   1       5.326  90.731 117.426  0.00  0.00    -0.090 HD
ATOM     20  H   LIG d   1       3.956  91.605 117.440  0.00  0.00    -0.090 HD
ATOM     21  H   LIG d   1       4.619  91.150 116.013  0.00  0.00    -0.090 HD
ENDBRANCH   5  18
BRANCH   3  22
ATOM     22  C   LIG d   1       0.421  88.858 118.564  0.00  0.00     0.382 C 
ATOM     23  O   LIG d   1      -0.440  87.945 118.544  0.00  0.00    -0.241 OA
ATOM     24  O   LIG d   1       0.376  89.725 119.458  0.00  0.00    -0.241 OA
ENDBRANCH   3  22
TORSDOF 7
ENDMDL
MODEL 3
REMARK VINA RESULT:      -4.8      6.735      9.397
REMARK  7 active torsions:
REMARK  status: ('A' for Active; 'I' for Inactive)
REMARK    1  A    between atoms: C_2  and  C_3 
REMARK    2  A    between atoms: C_3  and  O_6 
REMARK    3  A    between atoms: C_3  and  C_4 
REMARK    4  A    between atoms: C_7  and  O_6 
REMARK    5  A    between atoms: C_9  and  C_10 
REMARK    6  A    between atoms: N_15  and  C_14 
REMARK    7  A    between atoms: N_20  and  C_19 
REMARK       I    between atoms: C_22  and  N_20 
ROOT
ATOM      1  C   LIG d   1       1.006  88.556 116.881  0.00  0.00     0.161 C 
ATOM      2  C   LIG d   1      -0.392  88.462 116.991  0.00  0.00     0.016 C 
ATOM      3  C   LIG d   1      -1.180  89.392 117.707  0.00  0.00     0.038 C 
ATOM      4  C   LIG d   1      -0.636  90.571 118.238  0.00  0.00     0.028 C 
ATOM      5  C   LIG d   1       0.844  90.452 118.586  0.00  0.00    -0.047 C 
ATOM      6  C   LIG d   1       1.604  89.895 117.361  0.00  0.00     0.091 C 
ENDROOT
BRANCH   1   7
ATOM      7  O   LIG d   1       1.409  88.284 115.524  0.00  0.00    -0.368 OA
BRANCH   7   8
ATOM      8  C   LIG d   1       2.212  87.096 115.324  0.00  0.00     0.119 C 
BRANCH   8   9
ATOM      9  C   LIG d   1       3.107  87.344 114.094  0.00  0.00     0.028 C 
ATOM     10  C   LIG d   1       4.094  88.503 114.311  0.00  0.00     0.006 C 
ENDBRANCH   8   9
BRANCH   8  11
ATOM     11  C   LIG d   1       1.342  85.890 114.955  0.00  0.00     0.028 C 
ATOM     12  C   LIG d   1       1.308  85.620 113.443  0.00  0.00     0.006 C 
ENDBRANCH   8  11
ENDBRANCH   7   8
ENDBRANCH   1   7
BRANCH   6  13
ATOM     13  N   LIG d   1       3.045  89.668 117.643  0.00  0.00    -0.311 N 
ATOM     14  C   LIG d   1       3.992  90.571 117.391  0.00  0.00     0.210 C 
ATOM     15  C   LIG d   1       5.417  90.127 117.739  0.00  0.00     0.109 C 
ATOM     16  O   LIG d   1       3.784  91.708 116.943  0.00  0.00    -0.276 OA
ATOM     17  H   LIG d   1       3.299  88.784 118.037  0.00  0.00     0.149 HD
ENDBRANCH   6  13
BRANCH   5  18
ATOM     18  N   LIG d   1       1.313  91.788 118.999  0.00  0.00     0.381 N 
ATOM     19  H   LIG d   1       1.060  91.957 119.952  0.00  0.00    -0.090 HD
ATOM     20  H   LIG d   1       0.865  92.482 118.426  0.00  0.00    -0.090 HD
ATOM     21  H   LIG d   1       2.302  91.850 118.894  0.00  0.00    -0.090 HD
ENDBRANCH   5  18
BRANCH   3  22
ATOM     22  C   LIG d   1      -2.522  89.127 117.931  0.00  0.00     0.382 C 
ATOM     23  O   LIG d   1      -2.876  88.517 118.969  0.00  0.00    -0.241 OA
ATOM     24  O   LIG d   1      -3.380  89.450 117.087  0.00  0.00    -0.241 OA
ENDBRANCH   3  22
TORSDOF 7
ENDMDL
MODEL 4
REMARK VINA RESULT:      -4.8      8.566     10.649
REMARK  7 active torsions:
REMARK  status: ('A' for Active; 'I' for Inactive)
REMARK    1  A    between atoms: C_2  and  C_3 
REMARK    2  A    between atoms: C_3  and  O_6 
REMARK    3  A    between atoms: C_3  and  C_4 
REMARK    4  A    between atoms: C_7  and  O_6 
REMARK    5  A    between atoms: C_9  and  C_10 
REMARK    6  A    between atoms: N_15  and  C_14 
REMARK    7  A    between atoms: N_20  and  C_19 
REMARK       I    between atoms: C_22  and  N_20 
ROOT
ATOM      1  C   LIG d   1       3.609  89.330 116.446  0.00  0.00     0.161 C 
ATOM      2  C   LIG d   1       3.647  88.902 115.109  0.00  0.00     0.016 C 
ATOM      3  C   LIG d   1       4.848  88.627 114.414  0.00  0.00     0.038 C 
ATOM      4  C   LIG d   1       6.093  88.617 115.060  0.00  0.00     0.028 C 
ATOM      5  C   LIG d   1       6.151  89.533 116.277  0.00  0.00    -0.047 C 
ATOM      6  C   LIG d   1       4.951  89.218 117.200  0.00  0.00     0.091 C 
ENDROOT
BRANCH   1   7
ATOM      7  O   LIG d   1       2.575  88.622 117.157  0.00  0.00    -0.368 OA
BRANCH   7   8
ATOM      8  C   LIG d   1       1.214  89.043 116.889  0.00  0.00     0.119 C 
BRANCH   8   9
ATOM      9  C   LIG d   1       0.784  89.975 118.039  0.00  0.00     0.028 C 
ATOM     10  C   LIG d   1       0.756  91.453 117.617  0.00  0.00     0.006 C 
ENDBRANCH   8   9
BRANCH   8  11
ATOM     11  C   LIG d   1       0.244  87.859 116.942  0.00  0.00     0.028 C 
ATOM     12  C   LIG d   1       0.947  86.504 116.762  0.00  0.00     0.006 C 
ENDBRANCH   8  11
ENDBRANCH   7   8
ENDBRANCH   1   7
BRANCH   6  13
ATOM     13  N   LIG d   1       4.885  90.127 118.374  0.00  0.00    -0.311 N 
ATOM     14  C   LIG d   1       4.566  91.417 118.285  0.00  0.00     0.210 C 
ATOM     15  C   LIG d   1       4.576  92.179 119.614  0.00  0.00     0.109 C 
ATOM     16  O   LIG d   1       4.245  91.996 117.236  0.00  0.00    -0.276 OA
ATOM     17  H   LIG d   1       5.100  89.733 119.269  0.00  0.00     0.149 HD
ENDBRANCH   6  13
BRANCH   5  18
ATOM     18  N   LIG d   1       7.455  89.321 116.933  0.00  0.00     0.381 N 
ATOM     19  H   LIG d   1       7.348  88.695 117.706  0.00  0.00    -0.090 HD
ATOM     20  H   LIG d   1       7.789  90.202 117.284  0.00  0.00    -0.090 HD
ATOM     21  H   LIG d   1       8.108  88.946 116.280  0.00  0.00    -0.090 HD
ENDBRANCH   5  18
BRANCH   3  22
ATOM     22  C   LIG d   1       4.813  88.397 113.047  0.00  0.00     0.382 C 
ATOM     23  O   LIG d   1       3.721  88.448 112.430  0.00  0.00    -0.241 OA
ATOM     24  O   LIG d   1       5.852  88.095 112.430  0.00  0.00    -0.241 OA
ENDBRANCH   3  22
TORSDOF 7
ENDMDL
MODEL 5
REMARK VINA RESULT:      -4.7      8.784     11.514
REMARK  7 active torsions:
REMARK  status: ('A' for Active; 'I' for Inactive)
REMARK    1  A    between atoms: C_2  and  C_3 
REMARK    2  A    between atoms: C_3  and  O_6 
REMARK    3  A    between atoms: C_3  and  C_4 
REMARK    4  A    between atoms: C_7  and  O_6 
REMARK    5  A    between atoms: C_9  and  C_10 
REMARK    6  A    between atoms: N_15  and  C_14 
REMARK    7  A    between atoms: N_20  and  C_19 
REMARK       I    between atoms: C_22  and  N_20 
ROOT
ATOM      1  C   LIG d   1       3.483  88.431 115.987  0.00  0.00     0.161 C 
ATOM      2  C   LIG d   1       4.106  89.284 116.913  0.00  0.00     0.016 C 
ATOM      3  C   LIG d   1       5.433  89.751 116.770  0.00  0.00     0.038 C 
ATOM      4  C   LIG d   1       6.180  89.516 115.607  0.00  0.00     0.028 C 
ATOM      5  C   LIG d   1       5.775  88.242 114.873  0.00  0.00    -0.047 C 
ATOM      6  C   LIG d   1       4.244  88.253 114.657  0.00  0.00     0.091 C 
ENDROOT
BRANCH   1   7
ATOM      7  O   LIG d   1       2.136  88.880 115.737  0.00  0.00    -0.368 OA
BRANCH   7   8
ATOM      8  C   LIG d   1       1.185  88.672 116.810  0.00  0.00     0.119 C 
BRANCH   8   9
ATOM      9  C   LIG d   1       0.418  87.371 116.503  0.00  0.00     0.028 C 
ATOM     10  C   LIG d   1       0.629  86.297 117.584  0.00  0.00     0.006 C 
ENDBRANCH   8   9
BRANCH   8  11
ATOM     11  C   LIG d   1       0.122  89.774 116.834  0.00  0.00     0.028 C 
ATOM     12  C   LIG d   1       0.697  91.149 117.210  0.00  0.00     0.006 C 
ENDBRANCH   8  11
ENDBRANCH   7   8
ENDBRANCH   1   7
BRANCH   6  13
ATOM     13  N   LIG d   1       3.753  87.003 114.020  0.00  0.00    -0.311 N 
ATOM     14  C   LIG d   1       2.900  86.988 112.997  0.00  0.00     0.210 C 
ATOM     15  C   LIG d   1       2.506  85.592 112.505  0.00  0.00     0.109 C 
ATOM     16  O   LIG d   1       2.457  87.998 112.431  0.00  0.00    -0.276 OA
ATOM     17  H   LIG d   1       4.086  86.138 114.398  0.00  0.00     0.149 HD
ENDBRANCH   6  13
BRANCH   5  18
ATOM     18  N   LIG d   1       6.537  88.192 113.611  0.00  0.00     0.381 N 
ATOM     19  H   LIG d   1       7.518  88.217 113.807  0.00  0.00    -0.090 HD
ATOM     20  H   LIG d   1       6.305  88.999 113.059  0.00  0.00    -0.090 HD
ATOM     21  H   LIG d   1       6.312  87.361 113.110  0.00  0.00    -0.090 HD
ENDBRANCH   5  18
BRANCH   3  22
ATOM     22  C   LIG d   1       6.039  90.430 117.816  0.00  0.00     0.382 C 
ATOM     23  O   LIG d   1       7.128  90.018 118.283  0.00  0.00    -0.241 OA
ATOM     24  O   LIG d   1       5.488  91.422 118.329  0.00  0.00    -0.241 OA
ENDBRANCH   3  22
TORSDOF 7
ENDMDL
MODEL 6
REMARK VINA RESULT:      -4.7      2.123      4.918
REMARK  7 active torsions:
REMARK  status: ('A' for Active; 'I' for Inactive)
REMARK    1  A    between atoms: C_2  and  C_3 
REMARK    2  A    between atoms: C_3  and  O_6 
REMARK    3  A    between atoms: C_3  and  C_4 
REMARK    4  A    between atoms: C_7  and  O_6 
REMARK    5  A    between atoms: C_9  and  C_10 
REMARK    6  A    between atoms: N_15  and  C_14 
REMARK    7  A    between atoms: N_20  and  C_19 
REMARK       I    between atoms: C_22  and  N_20 
ROOT
ATOM      1  C   LIG d   1      -3.529  93.080 119.571  0.00  0.00     0.161 C 
ATOM      2  C   LIG d   1      -3.528  94.483 119.641  0.00  0.00     0.016 C 
ATOM      3  C   LIG d   1      -2.598  95.295 118.953  0.00  0.00     0.038 C 
ATOM      4  C   LIG d   1      -1.695  94.762 118.021  0.00  0.00     0.028 C 
ATOM      5  C   LIG d   1      -1.326  93.309 118.298  0.00  0.00    -0.047 C 
ATOM      6  C   LIG d   1      -2.623  92.486 118.473  0.00  0.00     0.091 C 
ENDROOT
BRANCH   1   7
ATOM      7  O   LIG d   1      -4.880  92.600 119.419  0.00  0.00    -0.368 OA
BRANCH   7   8
ATOM      8  C   LIG d   1      -5.682  93.262 118.411  0.00  0.00     0.119 C 
BRANCH   8   9
ATOM      9  C   LIG d   1      -6.986  93.726 119.087  0.00  0.00     0.028 C 
ATOM     10  C   LIG d   1      -7.034  95.251 119.284  0.00  0.00     0.006 C 
ENDBRANCH   8   9
BRANCH   8  11
ATOM     11  C   LIG d   1      -6.119  92.284 117.316  0.00  0.00     0.028 C 
ATOM     12  C   LIG d   1      -7.421  92.712 116.620  0.00  0.00     0.006 C 
ENDBRANCH   8  11
ENDBRANCH   7   8
ENDBRANCH   1   7
BRANCH   6  13
ATOM     13  N   LIG d   1      -2.351  91.069 118.831  0.00  0.00    -0.311 N 
ATOM     14  C   LIG d   1      -2.872  90.035 118.173  0.00  0.00     0.210 C 
ATOM     15  C   LIG d   1      -2.479  88.658 118.719  0.00  0.00     0.109 C 
ATOM     16  O   LIG d   1      -3.596  90.126 117.170  0.00  0.00    -0.276 OA
ATOM     17  H   LIG d   1      -1.749  90.904 119.613  0.00  0.00     0.149 HD
ENDBRANCH   6  13
BRANCH   5  18
ATOM     18  N   LIG d   1      -0.490  92.840 117.177  0.00  0.00     0.381 N 
ATOM     19  H   LIG d   1      -0.942  93.044 116.309  0.00  0.00    -0.090 HD
ATOM     20  H   LIG d   1      -0.379  91.844 117.249  0.00  0.00    -0.090 HD
ATOM     21  H   LIG d   1       0.402  93.283 117.208  0.00  0.00    -0.090 HD
ENDBRANCH   5  18
BRANCH   3  22
ATOM     22  C   LIG d   1      -2.539  96.654 119.224  0.00  0.00     0.382 C 
ATOM     23  O   LIG d   1      -3.395  97.429 118.732  0.00  0.00    -0.241 OA
ATOM     24  O   LIG d   1      -1.616  97.120 119.918  0.00  0.00    -0.241 OA
ENDBRANCH   3  22
TORSDOF 7
ENDMDL
MODEL 7
REMARK VINA RESULT:      -4.5      5.780      8.978
REMARK  7 active torsions:
REMARK  status: ('A' for Active; 'I' for Inactive)
REMARK    1  A    between atoms: C_2  and  C_3 
REMARK    2  A    between atoms: C_3  and  O_6 
REMARK    3  A    between atoms: C_3  and  C_4 
REMARK    4  A    between atoms: C_7  and  O_6 
REMARK    5  A    between atoms: C_9  and  C_10 
REMARK    6  A    between atoms: N_15  and  C_14 
REMARK    7  A    between atoms: N_20  and  C_19 
REMARK       I    between atoms: C_22  and  N_20 
ROOT
ATOM      1  C   LIG d   1       0.212  89.803 116.693  0.00  0.00     0.161 C 
ATOM      2  C   LIG d   1       1.615  89.828 116.753  0.00  0.00     0.016 C 
ATOM      3  C   LIG d   1       2.342  90.679 117.618  0.00  0.00     0.038 C 
ATOM      4  C   LIG d   1       1.707  91.458 118.596  0.00  0.00     0.028 C 
ATOM      5  C   LIG d   1       0.277  91.842 118.232  0.00  0.00    -0.047 C 
ATOM      6  C   LIG d   1      -0.498  90.566 117.831  0.00  0.00     0.091 C 
ENDROOT
BRANCH   1   7
ATOM      7  O   LIG d   1      -0.250  88.438 116.641  0.00  0.00    -0.368 OA
BRANCH   7   8
ATOM      8  C   LIG d   1       0.743  87.418 116.912  0.00  0.00     0.119 C 
BRANCH   8   9
ATOM      9  C   LIG d   1       0.823  86.509 115.671  0.00  0.00     0.028 C 
ATOM     10  C   LIG d   1       2.177  86.620 114.949  0.00  0.00     0.006 C 
ENDBRANCH   8   9
BRANCH   8  11
ATOM     11  C   LIG d   1       0.302  86.503 118.058  0.00  0.00     0.028 C 
ATOM     12  C   LIG d   1      -0.882  87.074 118.855  0.00  0.00     0.006 C 
ENDBRANCH   8  11
ENDBRANCH   7   8
ENDBRANCH   1   7
BRANCH   6  13
ATOM     13  N   LIG d   1      -1.882  90.861 117.379  0.00  0.00    -0.311 N 
ATOM     14  C   LIG d   1      -2.929  90.908 118.202  0.00  0.00     0.210 C 
ATOM     15  C   LIG d   1      -4.270  91.210 117.527  0.00  0.00     0.109 C 
ATOM     16  O   LIG d   1      -2.868  90.759 119.432  0.00  0.00    -0.276 OA
ATOM     17  H   LIG d   1      -2.017  91.026 116.400  0.00  0.00     0.149 HD
ENDBRANCH   6  13
BRANCH   5  18
ATOM     18  N   LIG d   1      -0.310  92.533 119.395  0.00  0.00     0.381 N 
ATOM     19  H   LIG d   1       0.210  93.365 119.592  0.00  0.00    -0.090 HD
ATOM     20  H   LIG d   1      -0.252  91.928 120.196  0.00  0.00    -0.090 HD
ATOM     21  H   LIG d   1      -1.262  92.763 119.211  0.00  0.00    -0.090 HD
ENDBRANCH   5  18
BRANCH   3  22
ATOM     22  C   LIG d   1       3.717  90.785 117.482  0.00  0.00     0.382 C 
ATOM     23  O   LIG d   1       4.231  91.874 117.131  0.00  0.00    -0.241 OA
ATOM     24  O   LIG d   1       4.448  89.792 117.662  0.00  0.00    -0.241 OA
ENDBRANCH   3  22
TORSDOF 7
ENDMDL
MODEL 8
REMARK VINA RESULT:      -4.5      8.926     11.441
REMARK  7 active torsions:
REMARK  status: ('A' for Active; 'I' for Inactive)
REMARK    1  A    between atoms: C_2  and  C_3 
REMARK    2  A    between atoms: C_3  and  O_6 
REMARK    3  A    between atoms: C_3  and  C_4 
REMARK    4  A    between atoms: C_7  and  O_6 
REMARK    5  A    between atoms: C_9  and  C_10 
REMARK    6  A    between atoms: N_15  and  C_14 
REMARK    7  A    between atoms: N_20  and  C_19 
REMARK       I    between atoms: C_22  and  N_20 
ROOT
ATOM      1  C   LIG d   1       3.684  88.230 116.482  0.00  0.00     0.161 C 
ATOM      2  C   LIG d   1       2.370  88.722 116.414  0.00  0.00     0.016 C 
ATOM      3  C   LIG d   1       1.994  90.003 116.879  0.00  0.00     0.038 C 
ATOM      4  C   LIG d   1       2.941  90.943 117.310  0.00  0.00     0.028 C 
ATOM      5  C   LIG d   1       4.212  90.311 117.867  0.00  0.00    -0.047 C 
ATOM      6  C   LIG d   1       4.751  89.283 116.846  0.00  0.00     0.091 C 
ENDROOT
BRANCH   1   7
ATOM      7  O   LIG d   1       4.026  87.577 115.243  0.00  0.00    -0.368 OA
BRANCH   7   8
ATOM      8  C   LIG d   1       3.701  88.301 114.031  0.00  0.00     0.119 C 
BRANCH   8   9
ATOM      9  C   LIG d   1       3.122  87.286 113.027  0.00  0.00     0.028 C 
ATOM     10  C   LIG d   1       2.435  86.099 113.723  0.00  0.00     0.006 C 
ENDBRANCH   8   9
BRANCH   8  11
ATOM     11  C   LIG d   1       4.960  88.861 113.361  0.00  0.00     0.028 C 
ATOM     12  C   LIG d   1       6.162  87.908 113.462  0.00  0.00     0.006 C 
ENDBRANCH   8  11
ENDBRANCH   7   8
ENDBRANCH   1   7
BRANCH   6  13
ATOM     13  N   LIG d   1       5.946  88.558 117.349  0.00  0.00    -0.311 N 
ATOM     14  C   LIG d   1       7.197  88.945 117.102  0.00  0.00     0.210 C 
ATOM     15  C   LIG d   1       8.282  88.043 117.698  0.00  0.00     0.109 C 
ATOM     16  O   LIG d   1       7.510  89.968 116.474  0.00  0.00    -0.276 OA
ATOM     17  H   LIG d   1       5.784  87.734 117.894  0.00  0.00     0.149 HD
ENDBRANCH   6  13
BRANCH   5  18
ATOM     18  N   LIG d   1       5.166  91.401 118.148  0.00  0.00     0.381 N 
ATOM     19  H   LIG d   1       5.054  92.132 117.474  0.00  0.00    -0.090 HD
ATOM     20  H   LIG d   1       6.101  91.042 118.072  0.00  0.00    -0.090 HD
ATOM     21  H   LIG d   1       5.013  91.759 119.065  0.00  0.00    -0.090 HD
ENDBRANCH   5  18
BRANCH   3  22
ATOM     22  C   LIG d   1       0.651  90.339 116.955  0.00  0.00     0.382 C 
ATOM     23  O   LIG d   1      -0.221  89.538 116.540  0.00  0.00    -0.241 OA
ATOM     24  O   LIG d   1       0.302  91.452 117.392  0.00  0.00    -0.241 OA
ENDBRANCH   3  22
TORSDOF 7
ENDMDL
MODEL 9
REMARK VINA RESULT:      -4.4      6.839      9.113
REMARK  7 active torsions:
REMARK  status: ('A' for Active; 'I' for Inactive)
REMARK    1  A    between atoms: C_2  and  C_3 
REMARK    2  A    between atoms: C_3  and  O_6 
REMARK    3  A    between atoms: C_3  and  C_4 
REMARK    4  A    between atoms: C_7  and  O_6 
REMARK    5  A    between atoms: C_9  and  C_10 
REMARK    6  A    between atoms: N_15  and  C_14 
REMARK    7  A    between atoms: N_20  and  C_19 
REMARK       I    between atoms: C_22  and  N_20 
ROOT
ATOM      1  C   LIG d   1       1.612  89.081 117.235  0.00  0.00     0.161 C 
ATOM      2  C   LIG d   1       2.303  88.543 116.137  0.00  0.00     0.016 C 
ATOM      3  C   LIG d   1       3.556  89.026 115.693  0.00  0.00     0.038 C 
ATOM      4  C   LIG d   1       4.278  89.987 116.416  0.00  0.00     0.028 C 
ATOM      5  C   LIG d   1       3.393  90.913 117.243  0.00  0.00    -0.047 C 
ATOM      6  C   LIG d   1       2.435  90.057 118.102  0.00  0.00     0.091 C 
ENDROOT
BRANCH   1   7
ATOM      7  O   LIG d   1       1.079  88.016 118.047  0.00  0.00    -0.368 OA
BRANCH   7   8
ATOM      8  C   LIG d   1      -0.309  88.147 118.440  0.00  0.00     0.119 C 
BRANCH   8   9
ATOM      9  C   LIG d   1      -0.792  86.759 118.903  0.00  0.00     0.028 C 
ATOM     10  C   LIG d   1       0.164  85.632 118.477  0.00  0.00     0.006 C 
ENDBRANCH   8   9
BRANCH   8  11
ATOM     11  C   LIG d   1      -1.195  88.506 117.243  0.00  0.00     0.028 C 
ATOM     12  C   LIG d   1      -2.463  89.273 117.650  0.00  0.00     0.006 C 
ENDBRANCH   8  11
ENDBRANCH   7   8
ENDBRANCH   1   7
BRANCH   6  13
ATOM     13  N   LIG d   1       1.477  90.885 118.880  0.00  0.00    -0.311 N 
ATOM     14  C   LIG d   1       0.654  91.772 118.323  0.00  0.00     0.210 C 
ATOM     15  C   LIG d   1      -0.238  92.534 119.308  0.00  0.00     0.109 C 
ATOM     16  O   LIG d   1       0.555  91.976 117.104  0.00  0.00    -0.276 OA
ATOM     17  H   LIG d   1       1.468  90.760 119.873  0.00  0.00     0.149 HD
ENDBRANCH   6  13
BRANCH   5  18
ATOM     18  N   LIG d   1       4.279  91.774 118.050  0.00  0.00     0.381 N 
ATOM     19  H   LIG d   1       3.804  92.066 118.880  0.00  0.00    -0.090 HD
ATOM     20  H   LIG d   1       4.512  92.592 117.515  0.00  0.00    -0.090 HD
ATOM     21  H   LIG d   1       5.109  91.278 118.290  0.00  0.00    -0.090 HD
ENDBRANCH   5  18
BRANCH   3  22
ATOM     22  C   LIG d   1       4.081  88.573 114.492  0.00  0.00     0.382 C 
ATOM     23  O   LIG d   1       4.332  87.354 114.337  0.00  0.00    -0.241 OA
ATOM     24  O   LIG d   1       4.348  89.375 113.577  0.00  0.00    -0.241 OA
ENDBRANCH   3  22
TORSDOF 7
ENDMDL
