MODEL 1
REMARK VINA RESULT:      -5.3      0.000      0.000
REMARK  7 active torsions:
REMARK  status: ('A' for Active; 'I' for Inactive)
REMARK    1  A    between atoms: C_2  and  C_3 
REMARK    2  A    between atoms: C_3  and  O_6 
REMARK    3  A    between atoms: C_3  and  C_4 
REMARK    4  A    between atoms: C_7  and  O_6 
REMARK    5  A    between atoms: C_9  and  C_10 
REMARK    6  A    between atoms: N_15  and  C_14 
REMARK    7  A    between atoms: N_20  and  C_19 
REMARK       I    between atoms: C_22  and  N_20 
ROOT
ATOM      1  C   LIG d   1      -6.591  92.614 117.123  0.00  0.00     0.161 C 
ATOM      2  C   LIG d   1      -7.440  93.732 117.066  0.00  0.00     0.016 C 
ATOM      3  C   LIG d   1      -7.281  94.872 117.887  0.00  0.00     0.038 C 
ATOM      4  C   LIG d   1      -6.165  95.035 118.722  0.00  0.00     0.028 C 
ATOM      5  C   LIG d   1      -5.556  93.715 119.183  0.00  0.00    -0.047 C 
ATOM      6  C   LIG d   1      -5.304  92.820 117.948  0.00  0.00     0.091 C 
ENDROOT
BRANCH   1   7
ATOM      7  O   LIG d   1      -6.266  92.179 115.788  0.00  0.00    -0.368 OA
BRANCH   7   8
ATOM      8  C   LIG d   1      -7.069  91.095 115.257  0.00  0.00     0.119 C 
BRANCH   8   9
ATOM      9  C   LIG d   1      -7.676  90.340 116.455  0.00  0.00     0.028 C 
ATOM     10  C   LIG d   1      -8.793  89.370 116.032  0.00  0.00     0.006 C 
ENDBRANCH   8   9
BRANCH   8  11
ATOM     11  C   LIG d   1      -6.203  90.066 114.525  0.00  0.00     0.028 C 
ATOM     12  C   LIG d   1      -5.134  89.435 115.431  0.00  0.00     0.006 C 
ENDBRANCH   8  11
ENDBRANCH   7   8
ENDBRANCH   1   7
BRANCH   6  13
ATOM     13  N   LIG d   1      -4.786  91.477 118.317  0.00  0.00    -0.311 N 
ATOM     14  C   LIG d   1      -3.489  91.177 118.359  0.00  0.00     0.210 C 
ATOM     15  C   LIG d   1      -3.172  89.729 118.745  0.00  0.00     0.109 C 
ATOM     16  O   LIG d   1      -2.570  91.982 118.146  0.00  0.00    -0.276 OA
ATOM     17  H   LIG d   1      -5.462  90.772 118.537  0.00  0.00     0.149 HD
ENDBRANCH   6  13
BRANCH   5  18
ATOM     18  N   LIG d   1      -4.323  94.031 119.929  0.00  0.00     0.381 N 
ATOM     19  H   LIG d   1      -4.042  93.237 120.469  0.00  0.00    -0.090 HD
ATOM     20  H   LIG d   1      -4.510  94.791 120.559  0.00  0.00    -0.090 HD
ATOM     21  H   LIG d   1      -3.597  94.285 119.297  0.00  0.00    -0.090 HD
ENDBRANCH   5  18
BRANCH   3  22
ATOM     22  C   LIG d   1      -8.267  95.846 117.908  0.00  0.00     0.382 C 
ATOM     23  O   LIG d   1      -9.403  95.579 118.372  0.00  0.00    -0.241 OA
ATOM     24  O   LIG d   1      -8.050  96.975 117.430  0.00  0.00    -0.241 OA
ENDBRANCH   3  22
TORSDOF 7
ENDMDL
MODEL 2
REMARK VINA RESULT:      -4.8      2.225      6.009
REMARK  7 active torsions:
REMARK  status: ('A' for Active; 'I' for Inactive)
REMARK    1  A    between atoms: C_2  and  C_3 
REMARK    2  A    between atoms: C_3  and  O_6 
REMARK    3  A    between atoms: C_3  and  C_4 
REMARK    4  A    between atoms: C_7  and  O_6 
REMARK    5  A    between atoms: C_9  and  C_10 
REMARK    6  A    between atoms: N_15  and  C_14 
REMARK    7  A    between atoms: N_20  and  C_19 
REMARK       I    between atoms: C_22  and  N_20 
ROOT
ATOM      1  C   LIG d   1      -6.024  91.838 118.676  0.00  0.00     0.161 C 
ATOM      2  C   LIG d   1      -5.312  90.825 118.013  0.00  0.00     0.016 C 
ATOM      3  C   LIG d   1      -5.349  90.638 116.612  0.00  0.00     0.038 C 
ATOM      4  C   LIG d   1      -5.986  91.551 115.758  0.00  0.00     0.028 C 
ATOM      5  C   LIG d   1      -7.136  92.301 116.423  0.00  0.00    -0.047 C 
ATOM      6  C   LIG d   1      -6.635  92.912 117.752  0.00  0.00     0.091 C 
ENDROOT
BRANCH   1   7
ATOM      7  O   LIG d   1      -5.183  92.455 119.672  0.00  0.00    -0.368 OA
BRANCH   7   8
ATOM      8  C   LIG d   1      -4.244  93.446 119.187  0.00  0.00     0.119 C 
BRANCH   8   9
ATOM      9  C   LIG d   1      -2.828  92.960 119.551  0.00  0.00     0.028 C 
ATOM     10  C   LIG d   1      -2.349  91.816 118.642  0.00  0.00     0.006 C 
ENDBRANCH   8   9
BRANCH   8  11
ATOM     11  C   LIG d   1      -4.415  94.780 119.920  0.00  0.00     0.028 C 
ATOM     12  C   LIG d   1      -4.714  95.949 118.968  0.00  0.00     0.006 C 
ENDBRANCH   8  11
ENDBRANCH   7   8
ENDBRANCH   1   7
BRANCH   6  13
ATOM     13  N   LIG d   1      -7.719  93.592 118.507  0.00  0.00    -0.311 N 
ATOM     14  C   LIG d   1      -8.093  94.850 118.280  0.00  0.00     0.210 C 
ATOM     15  C   LIG d   1      -9.217  95.363 119.185  0.00  0.00     0.109 C 
ATOM     16  O   LIG d   1      -7.623  95.579 117.394  0.00  0.00    -0.276 OA
ATOM     17  H   LIG d   1      -8.176  93.063 119.224  0.00  0.00     0.149 HD
ENDBRANCH   6  13
BRANCH   5  18
ATOM     18  N   LIG d   1      -7.619  93.314 115.466  0.00  0.00     0.381 N 
ATOM     19  H   LIG d   1      -8.303  93.897 115.907  0.00  0.00    -0.090 HD
ATOM     20  H   LIG d   1      -8.055  92.848 114.691  0.00  0.00    -0.090 HD
ATOM     21  H   LIG d   1      -6.857  93.869 115.144  0.00  0.00    -0.090 HD
ENDBRANCH   5  18
BRANCH   3  22
ATOM     22  C   LIG d   1      -4.778  89.504 116.055  0.00  0.00     0.382 C 
ATOM     23  O   LIG d   1      -3.813  88.943 116.627  0.00  0.00    -0.241 OA
ATOM     24  O   LIG d   1      -5.186  89.061 114.964  0.00  0.00    -0.241 OA
ENDBRANCH   3  22
TORSDOF 7
ENDMDL
MODEL 3
REMARK VINA RESULT:      -4.6      1.737      2.153
REMARK  7 active torsions:
REMARK  status: ('A' for Active; 'I' for Inactive)
REMARK    1  A    between atoms: C_2  and  C_3 
REMARK    2  A    between atoms: C_3  and  O_6 
REMARK    3  A    between atoms: C_3  and  C_4 
REMARK    4  A    between atoms: C_7  and  O_6 
REMARK    5  A    between atoms: C_9  and  C_10 
REMARK    6  A    between atoms: N_15  and  C_14 
REMARK    7  A    between atoms: N_20  and  C_19 
REMARK       I    between atoms: C_22  and  N_20 
ROOT
ATOM      1  C   LIG d   1      -5.687  90.965 118.326  0.00  0.00     0.161 C 
ATOM      2  C   LIG d   1      -6.369  92.179 118.137  0.00  0.00     0.016 C 
ATOM      3  C   LIG d   1      -5.746  93.445 118.231  0.00  0.00     0.038 C 
ATOM      4  C   LIG d   1      -4.356  93.578 118.373  0.00  0.00     0.028 C 
ATOM      5  C   LIG d   1      -3.702  92.391 119.072  0.00  0.00    -0.047 C 
ATOM      6  C   LIG d   1      -4.150  91.088 118.372  0.00  0.00     0.091 C 
ENDROOT
BRANCH   1   7
ATOM      7  O   LIG d   1      -6.085  90.019 117.315  0.00  0.00    -0.368 OA
BRANCH   7   8
ATOM      8  C   LIG d   1      -7.117  90.460 116.399  0.00  0.00     0.119 C 
BRANCH   8   9
ATOM      9  C   LIG d   1      -8.330  89.528 116.584  0.00  0.00     0.028 C 
ATOM     10  C   LIG d   1      -9.171  89.398 115.303  0.00  0.00     0.006 C 
ENDBRANCH   8   9
BRANCH   8  11
ATOM     11  C   LIG d   1      -6.684  90.278 114.942  0.00  0.00     0.028 C 
ATOM     12  C   LIG d   1      -5.413  89.425 114.800  0.00  0.00     0.006 C 
ENDBRANCH   8  11
ENDBRANCH   7   8
ENDBRANCH   1   7
BRANCH   6  13
ATOM     13  N   LIG d   1      -3.622  89.873 119.045  0.00  0.00    -0.311 N 
ATOM     14  C   LIG d   1      -2.934  88.924 118.412  0.00  0.00     0.210 C 
ATOM     15  C   LIG d   1      -2.500  87.745 119.290  0.00  0.00     0.109 C 
ATOM     16  O   LIG d   1      -2.616  88.961 117.214  0.00  0.00    -0.276 OA
ATOM     17  H   LIG d   1      -3.808  89.777 120.025  0.00  0.00     0.149 HD
ENDBRANCH   6  13
BRANCH   5  18
ATOM     18  N   LIG d   1      -2.242  92.598 119.029  0.00  0.00     0.381 N 
ATOM     19  H   LIG d   1      -1.815  92.166 119.824  0.00  0.00    -0.090 HD
ATOM     20  H   LIG d   1      -2.052  93.584 119.067  0.00  0.00    -0.090 HD
ATOM     21  H   LIG d   1      -1.867  92.213 118.191  0.00  0.00    -0.090 HD
ENDBRANCH   5  18
BRANCH   3  22
ATOM     22  C   LIG d   1      -6.520  94.595 118.223  0.00  0.00     0.382 C 
ATOM     23  O   LIG d   1      -6.321  95.491 119.078  0.00  0.00    -0.241 OA
ATOM     24  O   LIG d   1      -7.445  94.728 117.399  0.00  0.00    -0.241 OA
ENDBRANCH   3  22
TORSDOF 7
ENDMDL
MODEL 4
REMARK VINA RESULT:      -4.6      6.167      8.797
REMARK  7 active torsions:
REMARK  status: ('A' for Active; 'I' for Inactive)
REMARK    1  A    between atoms: C_2  and  C_3 
REMARK    2  A    between atoms: C_3  and  O_6 
REMARK    3  A    between atoms: C_3  and  C_4 
REMARK    4  A    between atoms: C_7  and  O_6 
REMARK    5  A    between atoms: C_9  and  C_10 
REMARK    6  A    between atoms: N_15  and  C_14 
REMARK    7  A    between atoms: N_20  and  C_19 
REMARK       I    between atoms: C_22  and  N_20 
ROOT
ATOM      1  C   LIG d   1       0.946  88.091 116.858  0.00  0.00     0.161 C 
ATOM      2  C   LIG d   1      -0.454  87.971 116.882  0.00  0.00     0.016 C 
ATOM      3  C   LIG d   1      -1.305  88.913 117.504  0.00  0.00     0.038 C 
ATOM      4  C   LIG d   1      -0.820  90.125 118.017  0.00  0.00     0.028 C 
ATOM      5  C   LIG d   1       0.637  90.055 118.463  0.00  0.00    -0.047 C 
ATOM      6  C   LIG d   1       1.485  89.462 117.315  0.00  0.00     0.091 C 
ENDROOT
BRANCH   1   7
ATOM      7  O   LIG d   1       1.441  87.771 115.543  0.00  0.00    -0.368 OA
BRANCH   7   8
ATOM      8  C   LIG d   1       2.232  86.561 115.436  0.00  0.00     0.119 C 
BRANCH   8   9
ATOM      9  C   LIG d   1       3.396  86.853 114.471  0.00  0.00     0.028 C 
ATOM     10  C   LIG d   1       3.566  88.356 114.193  0.00  0.00     0.006 C 
ENDBRANCH   8   9
BRANCH   8  11
ATOM     11  C   LIG d   1       1.434  85.430 114.780  0.00  0.00     0.028 C 
ATOM     12  C   LIG d   1       0.748  85.865 113.475  0.00  0.00     0.006 C 
ENDBRANCH   8  11
ENDBRANCH   7   8
ENDBRANCH   1   7
BRANCH   6  13
ATOM     13  N   LIG d   1       2.910  89.281 117.698  0.00  0.00    -0.311 N 
ATOM     14  C   LIG d   1       3.860  90.175 117.433  0.00  0.00     0.210 C 
ATOM     15  C   LIG d   1       5.266  89.782 117.898  0.00  0.00     0.109 C 
ATOM     16  O   LIG d   1       3.667  91.271 116.885  0.00  0.00    -0.276 OA
ATOM     17  H   LIG d   1       3.149  88.433 118.175  0.00  0.00     0.149 HD
ENDBRANCH   6  13
BRANCH   5  18
ATOM     18  N   LIG d   1       1.052  91.417 118.846  0.00  0.00     0.381 N 
ATOM     19  H   LIG d   1       0.932  92.038 118.070  0.00  0.00    -0.090 HD
ATOM     20  H   LIG d   1       2.026  91.403 119.091  0.00  0.00    -0.090 HD
ATOM     21  H   LIG d   1       0.511  91.734 119.620  0.00  0.00    -0.090 HD
ENDBRANCH   5  18
BRANCH   3  22
ATOM     22  C   LIG d   1      -2.653  88.627 117.653  0.00  0.00     0.382 C 
ATOM     23  O   LIG d   1      -3.458  88.898 116.729  0.00  0.00    -0.241 OA
ATOM     24  O   LIG d   1      -3.083  88.142 118.717  0.00  0.00    -0.241 OA
ENDBRANCH   3  22
TORSDOF 7
ENDMDL
MODEL 5
REMARK VINA RESULT:      -4.6      1.907      5.287
REMARK  7 active torsions:
REMARK  status: ('A' for Active; 'I' for Inactive)
REMARK    1  A    between atoms: C_2  and  C_3 
REMARK    2  A    between atoms: C_3  and  O_6 
REMARK    3  A    between atoms: C_3  and  C_4 
REMARK    4  A    between atoms: C_7  and  O_6 
REMARK    5  A    between atoms: C_9  and  C_10 
REMARK    6  A    between atoms: N_15  and  C_14 
REMARK    7  A    between atoms: N_20  and  C_19 
REMARK       I    between atoms: C_22  and  N_20 
ROOT
ATOM      1  C   LIG d   1      -4.853  90.912 117.388  0.00  0.00     0.161 C 
ATOM      2  C   LIG d   1      -3.784  90.036 117.637  0.00  0.00     0.016 C 
ATOM      3  C   LIG d   1      -2.681  90.367 118.458  0.00  0.00     0.038 C 
ATOM      4  C   LIG d   1      -2.646  91.550 119.211  0.00  0.00     0.028 C 
ATOM      5  C   LIG d   1      -3.463  92.682 118.598  0.00  0.00    -0.047 C 
ATOM      6  C   LIG d   1      -4.886  92.164 118.289  0.00  0.00     0.091 C 
ENDROOT
BRANCH   1   7
ATOM      7  O   LIG d   1      -6.101  90.198 117.476  0.00  0.00    -0.368 OA
BRANCH   7   8
ATOM      8  C   LIG d   1      -6.745  89.880 116.217  0.00  0.00     0.119 C 
BRANCH   8   9
ATOM      9  C   LIG d   1      -6.091  90.756 115.130  0.00  0.00     0.028 C 
ATOM     10  C   LIG d   1      -7.068  91.789 114.544  0.00  0.00     0.006 C 
ENDBRANCH   8   9
BRANCH   8  11
ATOM     11  C   LIG d   1      -8.222  90.284 116.229  0.00  0.00     0.028 C 
ATOM     12  C   LIG d   1      -9.163  89.111 115.910  0.00  0.00     0.006 C 
ENDBRANCH   8  11
ENDBRANCH   7   8
ENDBRANCH   1   7
BRANCH   6  13
ATOM     13  N   LIG d   1      -5.726  93.185 117.610  0.00  0.00    -0.311 N 
ATOM     14  C   LIG d   1      -6.971  93.477 117.983  0.00  0.00     0.210 C 
ATOM     15  C   LIG d   1      -7.667  94.546 117.135  0.00  0.00     0.109 C 
ATOM     16  O   LIG d   1      -7.554  92.974 118.956  0.00  0.00    -0.276 OA
ATOM     17  H   LIG d   1      -5.321  93.664 116.830  0.00  0.00     0.149 HD
ENDBRANCH   6  13
BRANCH   5  18
ATOM     18  N   LIG d   1      -3.452  93.807 119.552  0.00  0.00     0.381 N 
ATOM     19  H   LIG d   1      -3.652  93.472 120.473  0.00  0.00    -0.090 HD
ATOM     20  H   LIG d   1      -4.168  94.461 119.292  0.00  0.00    -0.090 HD
ATOM     21  H   LIG d   1      -2.562  94.256 119.540  0.00  0.00    -0.090 HD
ENDBRANCH   5  18
BRANCH   3  22
ATOM     22  C   LIG d   1      -1.578  89.527 118.499  0.00  0.00     0.382 C 
ATOM     23  O   LIG d   1      -1.407  88.673 117.596  0.00  0.00    -0.241 OA
ATOM     24  O   LIG d   1      -0.778  89.582 119.452  0.00  0.00    -0.241 OA
ENDBRANCH   3  22
TORSDOF 7
ENDMDL
MODEL 6
REMARK VINA RESULT:      -4.5      2.103      5.529
REMARK  7 active torsions:
REMARK  status: ('A' for Active; 'I' for Inactive)
REMARK    1  A    between atoms: C_2  and  C_3 
REMARK    2  A    between atoms: C_3  and  O_6 
REMARK    3  A    between atoms: C_3  and  C_4 
REMARK    4  A    between atoms: C_7  and  O_6 
REMARK    5  A    between atoms: C_9  and  C_10 
REMARK    6  A    between atoms: N_15  and  C_14 
REMARK    7  A    between atoms: N_20  and  C_19 
REMARK       I    between atoms: C_22  and  N_20 
ROOT
ATOM      1  C   LIG d   1      -5.579  92.333 118.218  0.00  0.00     0.161 C 
ATOM      2  C   LIG d   1      -5.437  91.242 117.345  0.00  0.00     0.016 C 
ATOM      3  C   LIG d   1      -6.105  91.148 116.102  0.00  0.00     0.038 C 
ATOM      4  C   LIG d   1      -6.848  92.216 115.577  0.00  0.00     0.028 C 
ATOM      5  C   LIG d   1      -7.428  93.134 116.647  0.00  0.00    -0.047 C 
ATOM      6  C   LIG d   1      -6.297  93.557 117.612  0.00  0.00     0.091 C 
ENDROOT
BRANCH   1   7
ATOM      7  O   LIG d   1      -4.289  92.715 118.736  0.00  0.00    -0.368 OA
BRANCH   7   8
ATOM      8  C   LIG d   1      -3.226  91.742 118.581  0.00  0.00     0.119 C 
BRANCH   8   9
ATOM      9  C   LIG d   1      -3.065  91.015 119.930  0.00  0.00     0.028 C 
ATOM     10  C   LIG d   1      -3.092  89.485 119.779  0.00  0.00     0.006 C 
ENDBRANCH   8   9
BRANCH   8  11
ATOM     11  C   LIG d   1      -1.879  92.424 118.324  0.00  0.00     0.028 C 
ATOM     12  C   LIG d   1      -0.821  92.071 119.381  0.00  0.00     0.006 C 
ENDBRANCH   8  11
ENDBRANCH   7   8
ENDBRANCH   1   7
BRANCH   6  13
ATOM     13  N   LIG d   1      -6.795  94.389 118.739  0.00  0.00    -0.311 N 
ATOM     14  C   LIG d   1      -7.005  95.701 118.644  0.00  0.00     0.210 C 
ATOM     15  C   LIG d   1      -7.500  96.371 119.930  0.00  0.00     0.109 C 
ATOM     16  O   LIG d   1      -6.858  96.368 117.609  0.00  0.00    -0.276 OA
ATOM     17  H   LIG d   1      -6.970  93.923 119.608  0.00  0.00     0.149 HD
ENDBRANCH   6  13
BRANCH   5  18
ATOM     18  N   LIG d   1      -8.059  94.277 115.960  0.00  0.00     0.381 N 
ATOM     19  H   LIG d   1      -7.397  94.712 115.349  0.00  0.00    -0.090 HD
ATOM     20  H   LIG d   1      -8.346  94.952 116.647  0.00  0.00    -0.090 HD
ATOM     21  H   LIG d   1      -8.849  93.967 115.438  0.00  0.00    -0.090 HD
ENDBRANCH   5  18
BRANCH   3  22
ATOM     22  C   LIG d   1      -6.066  89.960 115.389  0.00  0.00     0.382 C 
ATOM     23  O   LIG d   1      -7.081  89.571 114.762  0.00  0.00    -0.241 OA
ATOM     24  O   LIG d   1      -5.043  89.249 115.401  0.00  0.00    -0.241 OA
ENDBRANCH   3  22
TORSDOF 7
ENDMDL
MODEL 7
REMARK VINA RESULT:      -4.5      7.885     11.001
REMARK  7 active torsions:
REMARK  status: ('A' for Active; 'I' for Inactive)
REMARK    1  A    between atoms: C_2  and  C_3 
REMARK    2  A    between atoms: C_3  and  O_6 
REMARK    3  A    between atoms: C_3  and  C_4 
REMARK    4  A    between atoms: C_7  and  O_6 
REMARK    5  A    between atoms: C_9  and  C_10 
REMARK    6  A    between atoms: N_15  and  C_14 
REMARK    7  A    between atoms: N_20  and  C_19 
REMARK       I    between atoms: C_22  and  N_20 
ROOT
ATOM      1  C   LIG d   1       2.975  88.660 116.382  0.00  0.00     0.161 C 
ATOM      2  C   LIG d   1       3.550  89.473 117.373  0.00  0.00     0.016 C 
ATOM      3  C   LIG d   1       4.851  90.019 117.274  0.00  0.00     0.038 C 
ATOM      4  C   LIG d   1       5.612  89.913 116.100  0.00  0.00     0.028 C 
ATOM      5  C   LIG d   1       5.276  88.678 115.270  0.00  0.00    -0.047 C 
ATOM      6  C   LIG d   1       3.747  88.625 115.047  0.00  0.00     0.091 C 
ENDROOT
BRANCH   1   7
ATOM      7  O   LIG d   1       1.607  89.055 116.160  0.00  0.00    -0.368 OA
BRANCH   7   8
ATOM      8  C   LIG d   1       0.638  88.565 117.119  0.00  0.00     0.119 C 
BRANCH   8   9
ATOM      9  C   LIG d   1       0.261  87.130 116.704  0.00  0.00     0.028 C 
ATOM     10  C   LIG d   1       0.854  86.071 117.649  0.00  0.00     0.006 C 
ENDBRANCH   8   9
BRANCH   8  11
ATOM     11  C   LIG d   1      -0.667  89.363 117.050  0.00  0.00     0.028 C 
ATOM     12  C   LIG d   1      -1.909  88.500 117.324  0.00  0.00     0.006 C 
ENDBRANCH   8  11
ENDBRANCH   7   8
ENDBRANCH   1   7
BRANCH   6  13
ATOM     13  N   LIG d   1       3.324  87.402 114.315  0.00  0.00    -0.311 N 
ATOM     14  C   LIG d   1       2.770  87.428 113.104  0.00  0.00     0.210 C 
ATOM     15  C   LIG d   1       2.390  86.056 112.538  0.00  0.00     0.109 C 
ATOM     16  O   LIG d   1       2.588  88.453 112.431  0.00  0.00    -0.276 OA
ATOM     17  H   LIG d   1       3.464  86.524 114.775  0.00  0.00     0.149 HD
ENDBRANCH   6  13
BRANCH   5  18
ATOM     18  N   LIG d   1       6.042  88.765 114.013  0.00  0.00     0.381 N 
ATOM     19  H   LIG d   1       6.888  89.275 114.166  0.00  0.00    -0.090 HD
ATOM     20  H   LIG d   1       5.493  89.260 113.332  0.00  0.00    -0.090 HD
ATOM     21  H   LIG d   1       6.252  87.850 113.678  0.00  0.00    -0.090 HD
ENDBRANCH   5  18
BRANCH   3  22
ATOM     22  C   LIG d   1       5.418  90.648 118.372  0.00  0.00     0.382 C 
ATOM     23  O   LIG d   1       4.842  90.605 119.486  0.00  0.00    -0.241 OA
ATOM     24  O   LIG d   1       6.476  91.295 118.253  0.00  0.00    -0.241 OA
ENDBRANCH   3  22
TORSDOF 7
ENDMDL
MODEL 8
REMARK VINA RESULT:      -4.3      2.326      3.341
REMARK  7 active torsions:
REMARK  status: ('A' for Active; 'I' for Inactive)
REMARK    1  A    between atoms: C_2  and  C_3 
REMARK    2  A    between atoms: C_3  and  O_6 
REMARK    3  A    between atoms: C_3  and  C_4 
REMARK    4  A    between atoms: C_7  and  O_6 
REMARK    5  A    between atoms: C_9  and  C_10 
REMARK    6  A    between atoms: N_15  and  C_14 
REMARK    7  A    between atoms: N_20  and  C_19 
REMARK       I    between atoms: C_22  and  N_20 
ROOT
ATOM      1  C   LIG d   1      -4.993  91.292 119.266  0.00  0.00     0.161 C 
ATOM      2  C   LIG d   1      -5.219  92.678 119.292  0.00  0.00     0.016 C 
ATOM      3  C   LIG d   1      -4.180  93.636 119.347  0.00  0.00     0.038 C 
ATOM      4  C   LIG d   1      -2.830  93.273 119.227  0.00  0.00     0.028 C 
ATOM      5  C   LIG d   1      -2.539  91.855 119.707  0.00  0.00    -0.047 C 
ATOM      6  C   LIG d   1      -3.525  90.881 119.022  0.00  0.00     0.091 C 
ENDROOT
BRANCH   1   7
ATOM      7  O   LIG d   1      -5.855  90.674 118.290  0.00  0.00    -0.368 OA
BRANCH   7   8
ATOM      8  C   LIG d   1      -5.752  91.182 116.937  0.00  0.00     0.119 C 
BRANCH   8   9
ATOM      9  C   LIG d   1      -7.138  91.727 116.541  0.00  0.00     0.028 C 
ATOM     10  C   LIG d   1      -7.190  93.264 116.555  0.00  0.00     0.006 C 
ENDBRANCH   8   9
BRANCH   8  11
ATOM     11  C   LIG d   1      -5.460  90.056 115.940  0.00  0.00     0.028 C 
ATOM     12  C   LIG d   1      -6.363  90.110 114.698  0.00  0.00     0.006 C 
ENDBRANCH   8  11
ENDBRANCH   7   8
ENDBRANCH   1   7
BRANCH   6  13
ATOM     13  N   LIG d   1      -3.365  89.483 119.500  0.00  0.00    -0.311 N 
ATOM     14  C   LIG d   1      -2.606  88.580 118.882  0.00  0.00     0.210 C 
ATOM     15  C   LIG d   1      -2.595  87.192 119.531  0.00  0.00     0.109 C 
ATOM     16  O   LIG d   1      -1.914  88.805 117.878  0.00  0.00    -0.276 OA
ATOM     17  H   LIG d   1      -3.866  89.223 120.327  0.00  0.00     0.149 HD
ENDBRANCH   6  13
BRANCH   5  18
ATOM     18  N   LIG d   1      -1.128  91.560 119.398  0.00  0.00     0.381 N 
ATOM     19  H   LIG d   1      -0.927  91.820 118.453  0.00  0.00    -0.090 HD
ATOM     20  H   LIG d   1      -0.973  90.572 119.493  0.00  0.00    -0.090 HD
ATOM     21  H   LIG d   1      -0.531  92.059 120.021  0.00  0.00    -0.090 HD
ENDBRANCH   5  18
BRANCH   3  22
ATOM     22  C   LIG d   1      -4.486  94.971 119.564  0.00  0.00     0.382 C 
ATOM     23  O   LIG d   1      -3.589  95.769 119.928  0.00  0.00    -0.241 OA
ATOM     24  O   LIG d   1      -5.657  95.378 119.444  0.00  0.00    -0.241 OA
ENDBRANCH   3  22
TORSDOF 7
ENDMDL
MODEL 9
REMARK VINA RESULT:      -4.2      2.169      4.820
REMARK  7 active torsions:
REMARK  status: ('A' for Active; 'I' for Inactive)
REMARK    1  A    between atoms: C_2  and  C_3 
REMARK    2  A    between atoms: C_3  and  O_6 
REMARK    3  A    between atoms: C_3  and  C_4 
REMARK    4  A    between atoms: C_7  and  O_6 
REMARK    5  A    between atoms: C_9  and  C_10 
REMARK    6  A    between atoms: N_15  and  C_14 
REMARK    7  A    between atoms: N_20  and  C_19 
REMARK       I    between atoms: C_22  and  N_20 
ROOT
ATOM      1  C   LIG d   1      -4.761  93.046 118.332  0.00  0.00     0.161 C 
ATOM      2  C   LIG d   1      -5.672  92.880 117.276  0.00  0.00     0.016 C 
ATOM      3  C   LIG d   1      -5.837  91.664 116.574  0.00  0.00     0.038 C 
ATOM      4  C   LIG d   1      -5.205  90.480 116.984  0.00  0.00     0.028 C 
ATOM      5  C   LIG d   1      -3.896  90.719 117.728  0.00  0.00    -0.047 C 
ATOM      6  C   LIG d   1      -4.144  91.736 118.865  0.00  0.00     0.091 C 
ENDROOT
BRANCH   1   7
ATOM      7  O   LIG d   1      -5.385  93.779 119.405  0.00  0.00    -0.368 OA
BRANCH   7   8
ATOM      8  C   LIG d   1      -6.539  94.576 119.045  0.00  0.00     0.119 C 
BRANCH   8   9
ATOM      9  C   LIG d   1      -6.203  96.047 119.360  0.00  0.00     0.028 C 
ATOM     10  C   LIG d   1      -6.903  97.027 118.404  0.00  0.00     0.006 C 
ENDBRANCH   8   9
BRANCH   8  11
ATOM     11  C   LIG d   1      -7.746  94.239 119.926  0.00  0.00     0.028 C 
ATOM     12  C   LIG d   1      -8.911  93.626 119.132  0.00  0.00     0.006 C 
ENDBRANCH   8  11
ENDBRANCH   7   8
ENDBRANCH   1   7
BRANCH   6  13
ATOM     13  N   LIG d   1      -2.896  92.090 119.591  0.00  0.00    -0.311 N 
ATOM     14  C   LIG d   1      -1.717  92.242 118.991  0.00  0.00     0.210 C 
ATOM     15  C   LIG d   1      -0.554  92.587 119.927  0.00  0.00     0.109 C 
ATOM     16  O   LIG d   1      -1.529  92.155 117.768  0.00  0.00    -0.276 OA
ATOM     17  H   LIG d   1      -2.963  92.210 120.583  0.00  0.00     0.149 HD
ENDBRANCH   6  13
BRANCH   5  18
ATOM     18  N   LIG d   1      -3.417  89.412 118.216  0.00  0.00     0.381 N 
ATOM     19  H   LIG d   1      -3.829  88.677 117.677  0.00  0.00    -0.090 HD
ATOM     20  H   LIG d   1      -3.700  89.298 119.173  0.00  0.00    -0.090 HD
ATOM     21  H   LIG d   1      -2.424  89.366 118.149  0.00  0.00    -0.090 HD
ENDBRANCH   5  18
BRANCH   3  22
ATOM     22  C   LIG d   1      -6.612  91.634 115.425  0.00  0.00     0.382 C 
ATOM     23  O   LIG d   1      -6.507  90.674 114.623  0.00  0.00    -0.241 OA
ATOM     24  O   LIG d   1      -7.381  92.575 115.156  0.00  0.00    -0.241 OA
ENDBRANCH   3  22
TORSDOF 7
ENDMDL
