MODEL 1
REMARK VINA RESULT:      -5.3      0.000      0.000
REMARK  7 active torsions:
REMARK  status: ('A' for Active; 'I' for Inactive)
REMARK    1  A    between atoms: C_2  and  C_3 
REMARK    2  A    between atoms: C_3  and  O_6 
REMARK    3  A    between atoms: C_3  and  C_4 
REMARK    4  A    between atoms: C_7  and  O_6 
REMARK    5  A    between atoms: C_9  and  C_10 
REMARK    6  A    between atoms: N_15  and  C_14 
REMARK    7  A    between atoms: N_20  and  C_19 
REMARK       I    between atoms: C_22  and  N_20 
ROOT
ATOM      1  C   LIG d   1      -6.181  93.170 118.074  0.00  0.00     0.161 C 
ATOM      2  C   LIG d   1      -7.221  94.102 118.230  0.00  0.00     0.016 C 
ATOM      3  C   LIG d   1      -7.063  95.340 118.895  0.00  0.00     0.038 C 
ATOM      4  C   LIG d   1      -5.807  95.799 119.320  0.00  0.00     0.028 C 
ATOM      5  C   LIG d   1      -4.826  94.674 119.633  0.00  0.00    -0.047 C 
ATOM      6  C   LIG d   1      -4.778  93.701 118.433  0.00  0.00     0.091 C 
ENDROOT
BRANCH   1   7
ATOM      7  O   LIG d   1      -6.191  92.647 116.731  0.00  0.00    -0.368 OA
BRANCH   7   8
ATOM      8  C   LIG d   1      -6.310  91.209 116.608  0.00  0.00     0.119 C 
BRANCH   8   9
ATOM      9  C   LIG d   1      -4.958  90.675 116.096  0.00  0.00     0.028 C 
ATOM     10  C   LIG d   1      -5.110  89.810 114.833  0.00  0.00     0.006 C 
ENDBRANCH   8   9
BRANCH   8  11
ATOM     11  C   LIG d   1      -7.331  90.824 115.534  0.00  0.00     0.028 C 
ATOM     12  C   LIG d   1      -8.230  89.652 115.958  0.00  0.00     0.006 C 
ENDBRANCH   8  11
ENDBRANCH   7   8
ENDBRANCH   1   7
BRANCH   6  13
ATOM     13  N   LIG d   1      -3.905  92.526 118.691  0.00  0.00    -0.311 N 
ATOM     14  C   LIG d   1      -2.630  92.463 118.311  0.00  0.00     0.210 C 
ATOM     15  C   LIG d   1      -1.916  91.152 118.658  0.00  0.00     0.109 C 
ATOM     16  O   LIG d   1      -2.013  93.379 117.748  0.00  0.00    -0.276 OA
ATOM     17  H   LIG d   1      -4.316  91.749 119.170  0.00  0.00     0.149 HD
ENDBRANCH   6  13
BRANCH   5  18
ATOM     18  N   LIG d   1      -3.519  95.292 119.929  0.00  0.00     0.381 N 
ATOM     19  H   LIG d   1      -3.629  96.281 120.035  0.00  0.00    -0.090 HD
ATOM     20  H   LIG d   1      -2.898  95.124 119.158  0.00  0.00    -0.090 HD
ATOM     21  H   LIG d   1      -3.139  94.902 120.763  0.00  0.00    -0.090 HD
ENDBRANCH   5  18
BRANCH   3  22
ATOM     22  C   LIG d   1      -8.177  96.116 119.176  0.00  0.00     0.382 C 
ATOM     23  O   LIG d   1      -9.324  95.690 118.898  0.00  0.00    -0.241 OA
ATOM     24  O   LIG d   1      -8.047  97.255 119.664  0.00  0.00    -0.241 OA
ENDBRANCH   3  22
TORSDOF 7
ENDMDL
MODEL 2
REMARK VINA RESULT:      -5.3      1.938      5.198
REMARK  7 active torsions:
REMARK  status: ('A' for Active; 'I' for Inactive)
REMARK    1  A    between atoms: C_2  and  C_3 
REMARK    2  A    between atoms: C_3  and  O_6 
REMARK    3  A    between atoms: C_3  and  C_4 
REMARK    4  A    between atoms: C_7  and  O_6 
REMARK    5  A    between atoms: C_9  and  C_10 
REMARK    6  A    between atoms: N_15  and  C_14 
REMARK    7  A    between atoms: N_20  and  C_19 
REMARK       I    between atoms: C_22  and  N_20 
ROOT
ATOM      1  C   LIG d   1      -4.950  93.217 118.450  0.00  0.00     0.161 C 
ATOM      2  C   LIG d   1      -5.638  92.566 117.413  0.00  0.00     0.016 C 
ATOM      3  C   LIG d   1      -5.089  91.501 116.663  0.00  0.00     0.038 C 
ATOM      4  C   LIG d   1      -3.863  90.910 117.003  0.00  0.00     0.028 C 
ATOM      5  C   LIG d   1      -2.911  91.861 117.721  0.00  0.00    -0.047 C 
ATOM      6  C   LIG d   1      -3.655  92.514 118.908  0.00  0.00     0.091 C 
ENDROOT
BRANCH   1   7
ATOM      7  O   LIG d   1      -5.833  93.420 119.571  0.00  0.00    -0.368 OA
BRANCH   7   8
ATOM      8  C   LIG d   1      -6.470  94.718 119.654  0.00  0.00     0.119 C 
BRANCH   8   9
ATOM      9  C   LIG d   1      -7.785  94.641 118.854  0.00  0.00     0.028 C 
ATOM     10  C   LIG d   1      -8.484  96.006 118.741  0.00  0.00     0.006 C 
ENDBRANCH   8   9
BRANCH   8  11
ATOM     11  C   LIG d   1      -5.634  95.795 118.956  0.00  0.00     0.028 C 
ATOM     12  C   LIG d   1      -4.740  96.579 119.929  0.00  0.00     0.006 C 
ENDBRANCH   8  11
ENDBRANCH   7   8
ENDBRANCH   1   7
BRANCH   6  13
ATOM     13  N   LIG d   1      -2.822  93.521 119.614  0.00  0.00    -0.311 N 
ATOM     14  C   LIG d   1      -1.892  94.258 119.009  0.00  0.00     0.210 C 
ATOM     15  C   LIG d   1      -1.133  95.222 119.926  0.00  0.00     0.109 C 
ATOM     16  O   LIG d   1      -1.646  94.227 117.794  0.00  0.00    -0.276 OA
ATOM     17  H   LIG d   1      -2.977  93.634 120.597  0.00  0.00     0.149 HD
ENDBRANCH   6  13
BRANCH   5  18
ATOM     18  N   LIG d   1      -1.731  91.079 118.137  0.00  0.00     0.381 N 
ATOM     19  H   LIG d   1      -1.909  90.642 119.020  0.00  0.00    -0.090 HD
ATOM     20  H   LIG d   1      -0.950  91.702 118.245  0.00  0.00    -0.090 HD
ATOM     21  H   LIG d   1      -1.521  90.387 117.452  0.00  0.00    -0.090 HD
ENDBRANCH   5  18
BRANCH   3  22
ATOM     22  C   LIG d   1      -5.751  91.042 115.535  0.00  0.00     0.382 C 
ATOM     23  O   LIG d   1      -6.109  91.851 114.645  0.00  0.00    -0.241 OA
ATOM     24  O   LIG d   1      -6.035  89.835 115.416  0.00  0.00    -0.241 OA
ENDBRANCH   3  22
TORSDOF 7
ENDMDL
MODEL 3
REMARK VINA RESULT:      -4.9      9.190     12.492
REMARK  7 active torsions:
REMARK  status: ('A' for Active; 'I' for Inactive)
REMARK    1  A    between atoms: C_2  and  C_3 
REMARK    2  A    between atoms: C_3  and  O_6 
REMARK    3  A    between atoms: C_3  and  C_4 
REMARK    4  A    between atoms: C_7  and  O_6 
REMARK    5  A    between atoms: C_9  and  C_10 
REMARK    6  A    between atoms: N_15  and  C_14 
REMARK    7  A    between atoms: N_20  and  C_19 
REMARK       I    between atoms: C_22  and  N_20 
ROOT
ATOM      1  C   LIG d   1       4.825  89.811 115.293  0.00  0.00     0.161 C 
ATOM      2  C   LIG d   1       3.978  89.067 114.455  0.00  0.00     0.016 C 
ATOM      3  C   LIG d   1       4.166  87.693 114.180  0.00  0.00     0.038 C 
ATOM      4  C   LIG d   1       5.134  86.929 114.848  0.00  0.00     0.028 C 
ATOM      5  C   LIG d   1       6.331  87.746 115.322  0.00  0.00    -0.047 C 
ATOM      6  C   LIG d   1       5.820  88.968 116.119  0.00  0.00     0.091 C 
ENDROOT
BRANCH   1   7
ATOM      7  O   LIG d   1       4.039  90.651 116.161  0.00  0.00    -0.368 OA
BRANCH   7   8
ATOM      8  C   LIG d   1       3.315  89.974 117.218  0.00  0.00     0.119 C 
BRANCH   8   9
ATOM      9  C   LIG d   1       1.815  90.044 116.871  0.00  0.00     0.028 C 
ATOM     10  C   LIG d   1       1.156  91.338 117.377  0.00  0.00     0.006 C 
ENDBRANCH   8   9
BRANCH   8  11
ATOM     11  C   LIG d   1       3.457  90.714 118.552  0.00  0.00     0.028 C 
ATOM     12  C   LIG d   1       4.562  91.782 118.526  0.00  0.00     0.006 C 
ENDBRANCH   8  11
ENDBRANCH   7   8
ENDBRANCH   1   7
BRANCH   6  13
ATOM     13  N   LIG d   1       6.923  89.867 116.547  0.00  0.00    -0.311 N 
ATOM     14  C   LIG d   1       7.503  89.798 117.744  0.00  0.00     0.210 C 
ATOM     15  C   LIG d   1       8.607  90.832 117.989  0.00  0.00     0.109 C 
ATOM     16  O   LIG d   1       7.229  88.958 118.615  0.00  0.00    -0.276 OA
ATOM     17  H   LIG d   1       7.229  90.559 115.890  0.00  0.00     0.149 HD
ENDBRANCH   6  13
BRANCH   5  18
ATOM     18  N   LIG d   1       7.192  86.854 116.120  0.00  0.00     0.381 N 
ATOM     19  H   LIG d   1       7.792  86.331 115.514  0.00  0.00    -0.090 HD
ATOM     20  H   LIG d   1       6.612  86.208 116.625  0.00  0.00    -0.090 HD
ATOM     21  H   LIG d   1       7.739  87.390 116.759  0.00  0.00    -0.090 HD
ENDBRANCH   5  18
BRANCH   3  22
ATOM     22  C   LIG d   1       3.406  87.079 113.196  0.00  0.00     0.382 C 
ATOM     23  O   LIG d   1       3.467  85.835 113.042  0.00  0.00    -0.241 OA
ATOM     24  O   LIG d   1       2.695  87.758 112.431  0.00  0.00    -0.241 OA
ENDBRANCH   3  22
TORSDOF 7
ENDMDL
MODEL 4
REMARK VINA RESULT:      -4.8      7.812     10.097
REMARK  7 active torsions:
REMARK  status: ('A' for Active; 'I' for Inactive)
REMARK    1  A    between atoms: C_2  and  C_3 
REMARK    2  A    between atoms: C_3  and  O_6 
REMARK    3  A    between atoms: C_3  and  C_4 
REMARK    4  A    between atoms: C_7  and  O_6 
REMARK    5  A    between atoms: C_9  and  C_10 
REMARK    6  A    between atoms: N_15  and  C_14 
REMARK    7  A    between atoms: N_20  and  C_19 
REMARK       I    between atoms: C_22  and  N_20 
ROOT
ATOM      1  C   LIG d   1       2.655  88.406 116.331  0.00  0.00     0.161 C 
ATOM      2  C   LIG d   1       1.627  89.336 116.557  0.00  0.00     0.016 C 
ATOM      3  C   LIG d   1       1.858  90.660 116.997  0.00  0.00     0.038 C 
ATOM      4  C   LIG d   1       3.152  91.192 117.098  0.00  0.00     0.028 C 
ATOM      5  C   LIG d   1       4.221  90.139 117.366  0.00  0.00    -0.047 C 
ATOM      6  C   LIG d   1       4.078  89.002 116.328  0.00  0.00     0.091 C 
ENDROOT
BRANCH   1   7
ATOM      7  O   LIG d   1       2.407  87.693 115.103  0.00  0.00    -0.368 OA
BRANCH   7   8
ATOM      8  C   LIG d   1       2.378  86.248 115.199  0.00  0.00     0.119 C 
BRANCH   8   9
ATOM      9  C   LIG d   1       2.534  85.686 113.773  0.00  0.00     0.028 C 
ATOM     10  C   LIG d   1       3.201  86.689 112.817  0.00  0.00     0.006 C 
ENDBRANCH   8   9
BRANCH   8  11
ATOM     11  C   LIG d   1       1.013  85.750 115.684  0.00  0.00     0.028 C 
ATOM     12  C   LIG d   1      -0.048  85.743 114.573  0.00  0.00     0.006 C 
ENDBRANCH   8  11
ENDBRANCH   7   8
ENDBRANCH   1   7
BRANCH   6  13
ATOM     13  N   LIG d   1       5.032  87.889 116.571  0.00  0.00    -0.311 N 
ATOM     14  C   LIG d   1       5.884  87.441 115.650  0.00  0.00     0.210 C 
ATOM     15  C   LIG d   1       6.766  86.272 116.101  0.00  0.00     0.109 C 
ATOM     16  O   LIG d   1       6.015  87.920 114.514  0.00  0.00    -0.276 OA
ATOM     17  H   LIG d   1       5.015  87.463 117.476  0.00  0.00     0.149 HD
ENDBRANCH   6  13
BRANCH   5  18
ATOM     18  N   LIG d   1       5.533  90.811 117.310  0.00  0.00     0.381 N 
ATOM     19  H   LIG d   1       5.495  91.575 116.664  0.00  0.00    -0.090 HD
ATOM     20  H   LIG d   1       6.220  90.155 116.982  0.00  0.00    -0.090 HD
ATOM     21  H   LIG d   1       5.785  91.143 118.214  0.00  0.00    -0.090 HD
ENDBRANCH   5  18
BRANCH   3  22
ATOM     22  C   LIG d   1       0.788  91.453 117.381  0.00  0.00     0.382 C 
ATOM     23  O   LIG d   1       0.974  92.660 117.671  0.00  0.00    -0.241 OA
ATOM     24  O   LIG d   1      -0.354  90.967 117.485  0.00  0.00    -0.241 OA
ENDBRANCH   3  22
TORSDOF 7
ENDMDL
MODEL 5
REMARK VINA RESULT:      -4.8      1.492      2.210
REMARK  7 active torsions:
REMARK  status: ('A' for Active; 'I' for Inactive)
REMARK    1  A    between atoms: C_2  and  C_3 
REMARK    2  A    between atoms: C_3  and  O_6 
REMARK    3  A    between atoms: C_3  and  C_4 
REMARK    4  A    between atoms: C_7  and  O_6 
REMARK    5  A    between atoms: C_9  and  C_10 
REMARK    6  A    between atoms: N_15  and  C_14 
REMARK    7  A    between atoms: N_20  and  C_19 
REMARK       I    between atoms: C_22  and  N_20 
ROOT
ATOM      1  C   LIG d   1      -5.128  93.448 119.580  0.00  0.00     0.161 C 
ATOM      2  C   LIG d   1      -6.412  94.007 119.471  0.00  0.00     0.016 C 
ATOM      3  C   LIG d   1      -6.645  95.387 119.267  0.00  0.00     0.038 C 
ATOM      4  C   LIG d   1      -5.599  96.285 119.007  0.00  0.00     0.028 C 
ATOM      5  C   LIG d   1      -4.266  95.853 119.609  0.00  0.00    -0.047 C 
ATOM      6  C   LIG d   1      -3.975  94.394 119.188  0.00  0.00     0.091 C 
ENDROOT
BRANCH   1   7
ATOM      7  O   LIG d   1      -5.060  92.229 118.814  0.00  0.00    -0.368 OA
BRANCH   7   8
ATOM      8  C   LIG d   1      -5.041  92.383 117.373  0.00  0.00     0.119 C 
BRANCH   8   9
ATOM      9  C   LIG d   1      -6.502  92.340 116.884  0.00  0.00     0.028 C 
ATOM     10  C   LIG d   1      -6.628  91.760 115.465  0.00  0.00     0.006 C 
ENDBRANCH   8   9
BRANCH   8  11
ATOM     11  C   LIG d   1      -4.351  91.196 116.695  0.00  0.00     0.028 C 
ATOM     12  C   LIG d   1      -3.211  90.606 117.541  0.00  0.00     0.006 C 
ENDBRANCH   8  11
ENDBRANCH   7   8
ENDBRANCH   1   7
BRANCH   6  13
ATOM     13  N   LIG d   1      -2.730  93.865 119.803  0.00  0.00    -0.311 N 
ATOM     14  C   LIG d   1      -1.641  93.552 119.102  0.00  0.00     0.210 C 
ATOM     15  C   LIG d   1      -0.475  93.003 119.930  0.00  0.00     0.109 C 
ATOM     16  O   LIG d   1      -1.520  93.707 117.878  0.00  0.00    -0.276 OA
ATOM     17  H   LIG d   1      -2.730  93.737 120.796  0.00  0.00     0.149 HD
ENDBRANCH   6  13
BRANCH   5  18
ATOM     18  N   LIG d   1      -3.238  96.804 119.146  0.00  0.00     0.381 N 
ATOM     19  H   LIG d   1      -3.059  96.662 118.172  0.00  0.00    -0.090 HD
ATOM     20  H   LIG d   1      -2.387  96.634 119.651  0.00  0.00    -0.090 HD
ATOM     21  H   LIG d   1      -3.545  97.739 119.302  0.00  0.00    -0.090 HD
ENDBRANCH   5  18
BRANCH   3  22
ATOM     22  C   LIG d   1      -7.934  95.888 119.363  0.00  0.00     0.382 C 
ATOM     23  O   LIG d   1      -8.137  96.997 119.914  0.00  0.00    -0.241 OA
ATOM     24  O   LIG d   1      -8.902  95.225 118.945  0.00  0.00    -0.241 OA
ENDBRANCH   3  22
TORSDOF 7
ENDMDL
MODEL 6
REMARK VINA RESULT:      -4.8      8.462     11.418
REMARK  7 active torsions:
REMARK  status: ('A' for Active; 'I' for Inactive)
REMARK    1  A    between atoms: C_2  and  C_3 
REMARK    2  A    between atoms: C_3  and  O_6 
REMARK    3  A    between atoms: C_3  and  C_4 
REMARK    4  A    between atoms: C_7  and  O_6 
REMARK    5  A    between atoms: C_9  and  C_10 
REMARK    6  A    between atoms: N_15  and  C_14 
REMARK    7  A    between atoms: N_20  and  C_19 
REMARK       I    between atoms: C_22  and  N_20 
ROOT
ATOM      1  C   LIG d   1       4.663  89.386 116.475  0.00  0.00     0.161 C 
ATOM      2  C   LIG d   1       3.373  89.937 116.401  0.00  0.00     0.016 C 
ATOM      3  C   LIG d   1       2.948  91.031 117.189  0.00  0.00     0.038 C 
ATOM      4  C   LIG d   1       3.837  91.749 118.002  0.00  0.00     0.028 C 
ATOM      5  C   LIG d   1       5.019  90.917 118.489  0.00  0.00    -0.047 C 
ATOM      6  C   LIG d   1       5.681  90.226 117.275  0.00  0.00     0.091 C 
ENDROOT
BRANCH   1   7
ATOM      7  O   LIG d   1       5.161  89.127 115.147  0.00  0.00    -0.368 OA
BRANCH   7   8
ATOM      8  C   LIG d   1       5.030  87.765 114.671  0.00  0.00     0.119 C 
BRANCH   8   9
ATOM      9  C   LIG d   1       6.149  86.935 115.329  0.00  0.00     0.028 C 
ATOM     10  C   LIG d   1       5.599  85.773 116.174  0.00  0.00     0.006 C 
ENDBRANCH   8   9
BRANCH   8  11
ATOM     11  C   LIG d   1       5.289  87.674 113.165  0.00  0.00     0.028 C 
ATOM     12  C   LIG d   1       4.274  86.777 112.439  0.00  0.00     0.006 C 
ENDBRANCH   8  11
ENDBRANCH   7   8
ENDBRANCH   1   7
BRANCH   6  13
ATOM     13  N   LIG d   1       6.794  89.326 117.673  0.00  0.00    -0.311 N 
ATOM     14  C   LIG d   1       8.073  89.697 117.672  0.00  0.00     0.210 C 
ATOM     15  C   LIG d   1       9.063  88.608 118.098  0.00  0.00     0.109 C 
ATOM     16  O   LIG d   1       8.479  90.834 117.390  0.00  0.00    -0.276 OA
ATOM     17  H   LIG d   1       6.551  88.394 117.946  0.00  0.00     0.149 HD
ENDBRANCH   6  13
BRANCH   5  18
ATOM     18  N   LIG d   1       5.935  91.823 119.209  0.00  0.00     0.381 N 
ATOM     19  H   LIG d   1       5.456  92.668 119.449  0.00  0.00    -0.090 HD
ATOM     20  H   LIG d   1       6.703  92.056 118.604  0.00  0.00    -0.090 HD
ATOM     21  H   LIG d   1       6.275  91.379 120.033  0.00  0.00    -0.090 HD
ENDBRANCH   5  18
BRANCH   3  22
ATOM     22  C   LIG d   1       1.609  91.392 117.199  0.00  0.00     0.382 C 
ATOM     23  O   LIG d   1       0.750  90.624 116.702  0.00  0.00    -0.241 OA
ATOM     24  O   LIG d   1       1.255  92.494 117.657  0.00  0.00    -0.241 OA
ENDBRANCH   3  22
TORSDOF 7
ENDMDL
MODEL 7
REMARK VINA RESULT:      -4.6      7.972     10.971
REMARK  7 active torsions:
REMARK  status: ('A' for Active; 'I' for Inactive)
REMARK    1  A    between atoms: C_2  and  C_3 
REMARK    2  A    between atoms: C_3  and  O_6 
REMARK    3  A    between atoms: C_3  and  C_4 
REMARK    4  A    between atoms: C_7  and  O_6 
REMARK    5  A    between atoms: C_9  and  C_10 
REMARK    6  A    between atoms: N_15  and  C_14 
REMARK    7  A    between atoms: N_20  and  C_19 
REMARK       I    between atoms: C_22  and  N_20 
ROOT
ATOM      1  C   LIG d   1       4.415  90.568 116.591  0.00  0.00     0.161 C 
ATOM      2  C   LIG d   1       3.530  91.449 117.235  0.00  0.00     0.016 C 
ATOM      3  C   LIG d   1       2.181  91.131 117.515  0.00  0.00     0.038 C 
ATOM      4  C   LIG d   1       1.664  89.845 117.304  0.00  0.00     0.028 C 
ATOM      5  C   LIG d   1       2.376  89.080 116.193  0.00  0.00    -0.047 C 
ATOM      6  C   LIG d   1       3.899  89.120 116.453  0.00  0.00     0.091 C 
ENDROOT
BRANCH   1   7
ATOM      7  O   LIG d   1       5.692  90.584 117.258  0.00  0.00    -0.368 OA
BRANCH   7   8
ATOM      8  C   LIG d   1       5.678  90.976 118.653  0.00  0.00     0.119 C 
BRANCH   8   9
ATOM      9  C   LIG d   1       6.793  92.021 118.851  0.00  0.00     0.028 C 
ATOM     10  C   LIG d   1       6.282  93.304 119.526  0.00  0.00     0.006 C 
ENDBRANCH   8   9
BRANCH   8  11
ATOM     11  C   LIG d   1       6.053  89.804 119.565  0.00  0.00     0.028 C 
ATOM     12  C   LIG d   1       4.848  88.923 119.929  0.00  0.00     0.006 C 
ENDBRANCH   8  11
ENDBRANCH   7   8
ENDBRANCH   1   7
BRANCH   6  13
ATOM     13  N   LIG d   1       4.677  88.467 115.368  0.00  0.00    -0.311 N 
ATOM     14  C   LIG d   1       4.667  88.887 114.104  0.00  0.00     0.210 C 
ATOM     15  C   LIG d   1       5.523  88.059 113.141  0.00  0.00     0.109 C 
ATOM     16  O   LIG d   1       4.055  89.885 113.695  0.00  0.00    -0.276 OA
ATOM     17  H   LIG d   1       5.226  87.668 115.618  0.00  0.00     0.149 HD
ENDBRANCH   6  13
BRANCH   5  18
ATOM     18  N   LIG d   1       1.829  87.710 116.174  0.00  0.00     0.381 N 
ATOM     19  H   LIG d   1       2.216  87.202 115.404  0.00  0.00    -0.090 HD
ATOM     20  H   LIG d   1       0.833  87.760 116.050  0.00  0.00    -0.090 HD
ATOM     21  H   LIG d   1       2.042  87.246 117.029  0.00  0.00    -0.090 HD
ENDBRANCH   5  18
BRANCH   3  22
ATOM     22  C   LIG d   1       1.324  92.119 117.976  0.00  0.00     0.382 C 
ATOM     23  O   LIG d   1       1.289  92.398 119.198  0.00  0.00    -0.241 OA
ATOM     24  O   LIG d   1       0.554  92.703 117.191  0.00  0.00    -0.241 OA
ENDBRANCH   3  22
TORSDOF 7
ENDMDL
MODEL 8
REMARK VINA RESULT:      -4.4      7.906     11.192
REMARK  7 active torsions:
REMARK  status: ('A' for Active; 'I' for Inactive)
REMARK    1  A    between atoms: C_2  and  C_3 
REMARK    2  A    between atoms: C_3  and  O_6 
REMARK    3  A    between atoms: C_3  and  C_4 
REMARK    4  A    between atoms: C_7  and  O_6 
REMARK    5  A    between atoms: C_9  and  C_10 
REMARK    6  A    between atoms: N_15  and  C_14 
REMARK    7  A    between atoms: N_20  and  C_19 
REMARK       I    between atoms: C_22  and  N_20 
ROOT
ATOM      1  C   LIG d   1       4.423  90.440 117.128  0.00  0.00     0.161 C 
ATOM      2  C   LIG d   1       3.541  91.355 117.727  0.00  0.00     0.016 C 
ATOM      3  C   LIG d   1       2.138  91.177 117.758  0.00  0.00     0.038 C 
ATOM      4  C   LIG d   1       1.532  89.990 117.321  0.00  0.00     0.028 C 
ATOM      5  C   LIG d   1       2.335  89.257 116.252  0.00  0.00    -0.047 C 
ATOM      6  C   LIG d   1       3.789  89.086 116.745  0.00  0.00     0.091 C 
ENDROOT
BRANCH   1   7
ATOM      7  O   LIG d   1       5.567  90.235 117.981  0.00  0.00    -0.368 OA
BRANCH   7   8
ATOM      8  C   LIG d   1       6.636  91.205 117.858  0.00  0.00     0.119 C 
BRANCH   8   9
ATOM      9  C   LIG d   1       7.946  90.425 117.635  0.00  0.00     0.028 C 
ATOM     10  C   LIG d   1       7.724  88.903 117.598  0.00  0.00     0.006 C 
ENDBRANCH   8   9
BRANCH   8  11
ATOM     11  C   LIG d   1       6.841  91.977 119.165  0.00  0.00     0.028 C 
ATOM     12  C   LIG d   1       6.442  93.457 119.052  0.00  0.00     0.006 C 
ENDBRANCH   8  11
ENDBRANCH   7   8
ENDBRANCH   1   7
BRANCH   6  13
ATOM     13  N   LIG d   1       4.664  88.453 115.724  0.00  0.00    -0.311 N 
ATOM     14  C   LIG d   1       4.812  88.930 114.489  0.00  0.00     0.210 C 
ATOM     15  C   LIG d   1       5.745  88.114 113.589  0.00  0.00     0.109 C 
ATOM     16  O   LIG d   1       4.285  89.968 114.063  0.00  0.00    -0.276 OA
ATOM     17  H   LIG d   1       5.154  87.623 115.994  0.00  0.00     0.149 HD
ENDBRANCH   6  13
BRANCH   5  18
ATOM     18  N   LIG d   1       1.659  87.973 115.989  0.00  0.00     0.381 N 
ATOM     19  H   LIG d   1       1.372  87.931 115.031  0.00  0.00    -0.090 HD
ATOM     20  H   LIG d   1       0.839  87.913 116.567  0.00  0.00    -0.090 HD
ATOM     21  H   LIG d   1       2.274  87.216 116.192  0.00  0.00    -0.090 HD
ENDBRANCH   5  18
BRANCH   3  22
ATOM     22  C   LIG d   1       1.324  92.211 118.193  0.00  0.00     0.382 C 
ATOM     23  O   LIG d   1       1.328  92.546 119.403  0.00  0.00    -0.241 OA
ATOM     24  O   LIG d   1       0.553  92.785 117.401  0.00  0.00    -0.241 OA
ENDBRANCH   3  22
TORSDOF 7
ENDMDL
MODEL 9
REMARK VINA RESULT:      -4.3      7.936     10.731
REMARK  7 active torsions:
REMARK  status: ('A' for Active; 'I' for Inactive)
REMARK    1  A    between atoms: C_2  and  C_3 
REMARK    2  A    between atoms: C_3  and  O_6 
REMARK    3  A    between atoms: C_3  and  C_4 
REMARK    4  A    between atoms: C_7  and  O_6 
REMARK    5  A    between atoms: C_9  and  C_10 
REMARK    6  A    between atoms: N_15  and  C_14 
REMARK    7  A    between atoms: N_20  and  C_19 
REMARK       I    between atoms: C_22  and  N_20 
ROOT
ATOM      1  C   LIG d   1       3.239  88.891 116.187  0.00  0.00     0.161 C 
ATOM      2  C   LIG d   1       2.132  89.684 116.529  0.00  0.00     0.016 C 
ATOM      3  C   LIG d   1       2.013  90.363 117.764  0.00  0.00     0.038 C 
ATOM      4  C   LIG d   1       3.070  90.417 118.685  0.00  0.00     0.028 C 
ATOM      5  C   LIG d   1       4.007  89.217 118.602  0.00  0.00    -0.047 C 
ATOM      6  C   LIG d   1       4.450  89.028 117.133  0.00  0.00     0.091 C 
ENDROOT
BRANCH   1   7
ATOM      7  O   LIG d   1       3.633  89.162 114.827  0.00  0.00    -0.368 OA
BRANCH   7   8
ATOM      8  C   LIG d   1       3.478  88.069 113.888  0.00  0.00     0.119 C 
BRANCH   8   9
ATOM      9  C   LIG d   1       2.957  86.852 114.677  0.00  0.00     0.028 C 
ATOM     10  C   LIG d   1       3.812  85.594 114.447  0.00  0.00     0.006 C 
ENDBRANCH   8   9
BRANCH   8  11
ATOM     11  C   LIG d   1       4.830  87.633 113.314  0.00  0.00     0.028 C 
ATOM     12  C   LIG d   1       5.923  88.699 113.486  0.00  0.00     0.006 C 
ENDBRANCH   8  11
ENDBRANCH   7   8
ENDBRANCH   1   7
BRANCH   6  13
ATOM     13  N   LIG d   1       5.303  87.824 116.949  0.00  0.00    -0.311 N 
ATOM     14  C   LIG d   1       6.634  87.862 116.950  0.00  0.00     0.210 C 
ATOM     15  C   LIG d   1       7.320  86.511 116.723  0.00  0.00     0.109 C 
ATOM     16  O   LIG d   1       7.313  88.881 117.149  0.00  0.00    -0.276 OA
ATOM     17  H   LIG d   1       4.835  86.950 116.812  0.00  0.00     0.149 HD
ENDBRANCH   6  13
BRANCH   5  18
ATOM     18  N   LIG d   1       5.136  89.469 119.518  0.00  0.00     0.381 N 
ATOM     19  H   LIG d   1       5.323  88.648 120.058  0.00  0.00    -0.090 HD
ATOM     20  H   LIG d   1       4.884  90.210 120.148  0.00  0.00    -0.090 HD
ATOM     21  H   LIG d   1       5.946  89.726 118.998  0.00  0.00    -0.090 HD
ENDBRANCH   5  18
BRANCH   3  22
ATOM     22  C   LIG d   1       0.811  90.965 118.104  0.00  0.00     0.382 C 
ATOM     23  O   LIG d   1       0.274  90.711 119.210  0.00  0.00    -0.241 OA
ATOM     24  O   LIG d   1       0.235  91.723 117.302  0.00  0.00    -0.241 OA
ENDBRANCH   3  22
TORSDOF 7
ENDMDL
