MODEL 1
REMARK VINA RESULT:      -5.0      0.000      0.000
REMARK  7 active torsions:
REMARK  status: ('A' for Active; 'I' for Inactive)
REMARK    1  A    between atoms: C_2  and  C_3 
REMARK    2  A    between atoms: C_3  and  O_6 
REMARK    3  A    between atoms: C_3  and  C_4 
REMARK    4  A    between atoms: C_7  and  O_6 
REMARK    5  A    between atoms: C_9  and  C_10 
REMARK    6  A    between atoms: N_15  and  C_14 
REMARK    7  A    between atoms: N_20  and  C_19 
REMARK       I    between atoms: C_22  and  N_20 
ROOT
ATOM      1  C   LIG d   1       1.515  88.610 116.377  0.00  0.00     0.161 C 
ATOM      2  C   LIG d   1       0.146  88.590 116.692  0.00  0.00     0.016 C 
ATOM      3  C   LIG d   1      -0.537  89.688 117.265  0.00  0.00     0.038 C 
ATOM      4  C   LIG d   1       0.074  90.940 117.424  0.00  0.00     0.028 C 
ATOM      5  C   LIG d   1       1.588  90.859 117.590  0.00  0.00    -0.047 C 
ATOM      6  C   LIG d   1       2.173  90.005 116.442  0.00  0.00     0.091 C 
ENDROOT
BRANCH   1   7
ATOM      7  O   LIG d   1       1.728  88.015 115.082  0.00  0.00    -0.368 OA
BRANCH   7   8
ATOM      8  C   LIG d   1       2.300  86.684 115.079  0.00  0.00     0.119 C 
BRANCH   8   9
ATOM      9  C   LIG d   1       2.887  86.429 116.481  0.00  0.00     0.028 C 
ATOM     10  C   LIG d   1       4.409  86.214 116.449  0.00  0.00     0.006 C 
ENDBRANCH   8   9
BRANCH   8  11
ATOM     11  C   LIG d   1       3.489  86.591 114.118  0.00  0.00     0.028 C 
ATOM     12  C   LIG d   1       3.233  87.307 112.782  0.00  0.00     0.006 C 
ENDBRANCH   8  11
ENDBRANCH   7   8
ENDBRANCH   1   7
BRANCH   6  13
ATOM     13  N   LIG d   1       3.639  89.804 116.575  0.00  0.00    -0.311 N 
ATOM     14  C   LIG d   1       4.488  89.902 115.553  0.00  0.00     0.210 C 
ATOM     15  C   LIG d   1       5.956  89.638 115.904  0.00  0.00     0.109 C 
ATOM     16  O   LIG d   1       4.169  90.214 114.396  0.00  0.00    -0.276 OA
ATOM     17  H   LIG d   1       3.988  89.578 117.485  0.00  0.00     0.149 HD
ENDBRANCH   6  13
BRANCH   5  18
ATOM     18  N   LIG d   1       2.109  92.238 117.607  0.00  0.00     0.381 N 
ATOM     19  H   LIG d   1       1.848  92.710 116.764  0.00  0.00    -0.090 HD
ATOM     20  H   LIG d   1       3.112  92.206 117.654  0.00  0.00    -0.090 HD
ATOM     21  H   LIG d   1       1.748  92.729 118.396  0.00  0.00    -0.090 HD
ENDBRANCH   5  18
BRANCH   3  22
ATOM     22  C   LIG d   1      -1.836  89.526 117.722  0.00  0.00     0.382 C 
ATOM     23  O   LIG d   1      -2.096  88.640 118.572  0.00  0.00    -0.241 OA
ATOM     24  O   LIG d   1      -2.760  90.225 117.263  0.00  0.00    -0.241 OA
ENDBRANCH   3  22
TORSDOF 7
ENDMDL
MODEL 2
REMARK VINA RESULT:      -4.8      2.292      5.370
REMARK  7 active torsions:
REMARK  status: ('A' for Active; 'I' for Inactive)
REMARK    1  A    between atoms: C_2  and  C_3 
REMARK    2  A    between atoms: C_3  and  O_6 
REMARK    3  A    between atoms: C_3  and  C_4 
REMARK    4  A    between atoms: C_7  and  O_6 
REMARK    5  A    between atoms: C_9  and  C_10 
REMARK    6  A    between atoms: N_15  and  C_14 
REMARK    7  A    between atoms: N_20  and  C_19 
REMARK       I    between atoms: C_22  and  N_20 
ROOT
ATOM      1  C   LIG d   1       2.784  89.813 116.524  0.00  0.00     0.161 C 
ATOM      2  C   LIG d   1       2.742  89.220 115.252  0.00  0.00     0.016 C 
ATOM      3  C   LIG d   1       3.893  88.783 114.558  0.00  0.00     0.038 C 
ATOM      4  C   LIG d   1       5.161  88.773 115.158  0.00  0.00     0.028 C 
ATOM      5  C   LIG d   1       5.325  89.827 116.247  0.00  0.00    -0.047 C 
ATOM      6  C   LIG d   1       4.147  89.708 117.241  0.00  0.00     0.091 C 
ENDROOT
BRANCH   1   7
ATOM      7  O   LIG d   1       1.739  89.268 117.353  0.00  0.00    -0.368 OA
BRANCH   7   8
ATOM      8  C   LIG d   1       0.408  89.794 117.128  0.00  0.00     0.119 C 
BRANCH   8   9
ATOM      9  C   LIG d   1       0.169  90.907 118.167  0.00  0.00     0.028 C 
ATOM     10  C   LIG d   1       0.203  92.311 117.540  0.00  0.00     0.006 C 
ENDBRANCH   8   9
BRANCH   8  11
ATOM     11  C   LIG d   1      -0.664  88.738 117.412  0.00  0.00     0.028 C 
ATOM     12  C   LIG d   1      -1.685  89.193 118.467  0.00  0.00     0.006 C 
ENDBRANCH   8  11
ENDBRANCH   7   8
ENDBRANCH   1   7
BRANCH   6  13
ATOM     13  N   LIG d   1       4.184  90.759 118.292  0.00  0.00    -0.311 N 
ATOM     14  C   LIG d   1       3.975  92.051 118.045  0.00  0.00     0.210 C 
ATOM     15  C   LIG d   1       4.079  92.968 119.268  0.00  0.00     0.109 C 
ATOM     16  O   LIG d   1       3.682  92.520 116.935  0.00  0.00    -0.276 OA
ATOM     17  H   LIG d   1       4.384  90.461 119.227  0.00  0.00     0.149 HD
ENDBRANCH   6  13
BRANCH   5  18
ATOM     18  N   LIG d   1       6.640  89.614 116.881  0.00  0.00     0.381 N 
ATOM     19  H   LIG d   1       7.164  88.943 116.355  0.00  0.00    -0.090 HD
ATOM     20  H   LIG d   1       6.499  89.249 117.806  0.00  0.00    -0.090 HD
ATOM     21  H   LIG d   1       7.139  90.474 116.927  0.00  0.00    -0.090 HD
ENDBRANCH   5  18
BRANCH   3  22
ATOM     22  C   LIG d   1       3.789  88.388 113.233  0.00  0.00     0.382 C 
ATOM     23  O   LIG d   1       2.716  88.569 112.607  0.00  0.00    -0.241 OA
ATOM     24  O   LIG d   1       4.738  87.811 112.669  0.00  0.00    -0.241 OA
ENDBRANCH   3  22
TORSDOF 7
ENDMDL
MODEL 3
REMARK VINA RESULT:      -4.4      2.195      5.253
REMARK  7 active torsions:
REMARK  status: ('A' for Active; 'I' for Inactive)
REMARK    1  A    between atoms: C_2  and  C_3 
REMARK    2  A    between atoms: C_3  and  O_6 
REMARK    3  A    between atoms: C_3  and  C_4 
REMARK    4  A    between atoms: C_7  and  O_6 
REMARK    5  A    between atoms: C_9  and  C_10 
REMARK    6  A    between atoms: N_15  and  C_14 
REMARK    7  A    between atoms: N_20  and  C_19 
REMARK       I    between atoms: C_22  and  N_20 
ROOT
ATOM      1  C   LIG d   1       1.821  90.089 116.019  0.00  0.00     0.161 C 
ATOM      2  C   LIG d   1       2.933  89.401 115.506  0.00  0.00     0.016 C 
ATOM      3  C   LIG d   1       4.266  89.686 115.882  0.00  0.00     0.038 C 
ATOM      4  C   LIG d   1       4.568  90.584 116.916  0.00  0.00     0.028 C 
ATOM      5  C   LIG d   1       3.511  91.666 117.108  0.00  0.00    -0.047 C 
ATOM      6  C   LIG d   1       2.123  90.995 117.231  0.00  0.00     0.091 C 
ENDROOT
BRANCH   1   7
ATOM      7  O   LIG d   1       0.774  89.153 116.343  0.00  0.00    -0.368 OA
BRANCH   7   8
ATOM      8  C   LIG d   1       0.803  88.602 117.682  0.00  0.00     0.119 C 
BRANCH   8   9
ATOM      9  C   LIG d   1       1.255  87.133 117.568  0.00  0.00     0.028 C 
ATOM     10  C   LIG d   1       2.617  86.884 118.238  0.00  0.00     0.006 C 
ENDBRANCH   8   9
BRANCH   8  11
ATOM     11  C   LIG d   1      -0.600  88.548 118.294  0.00  0.00     0.028 C 
ATOM     12  C   LIG d   1      -1.600  89.466 117.573  0.00  0.00     0.006 C 
ENDBRANCH   8  11
ENDBRANCH   7   8
ENDBRANCH   1   7
BRANCH   6  13
ATOM     13  N   LIG d   1       1.022  91.987 117.337  0.00  0.00    -0.311 N 
ATOM     14  C   LIG d   1       0.537  92.423 118.498  0.00  0.00     0.210 C 
ATOM     15  C   LIG d   1      -0.611  93.430 118.382  0.00  0.00     0.109 C 
ATOM     16  O   LIG d   1       0.971  92.096 119.613  0.00  0.00    -0.276 OA
ATOM     17  H   LIG d   1       0.632  92.329 116.480  0.00  0.00     0.149 HD
ENDBRANCH   6  13
BRANCH   5  18
ATOM     18  N   LIG d   1       3.883  92.446 118.303  0.00  0.00     0.381 N 
ATOM     19  H   LIG d   1       4.791  92.169 118.620  0.00  0.00    -0.090 HD
ATOM     20  H   LIG d   1       3.222  92.255 119.036  0.00  0.00    -0.090 HD
ATOM     21  H   LIG d   1       3.881  93.419 118.090  0.00  0.00    -0.090 HD
ENDBRANCH   5  18
BRANCH   3  22
ATOM     22  C   LIG d   1       5.315  89.099 115.191  0.00  0.00     0.382 C 
ATOM     23  O   LIG d   1       5.287  89.042 113.938  0.00  0.00    -0.241 OA
ATOM     24  O   LIG d   1       6.268  88.586 115.808  0.00  0.00    -0.241 OA
ENDBRANCH   3  22
TORSDOF 7
ENDMDL
MODEL 4
REMARK VINA RESULT:      -4.3      1.893      2.561
REMARK  7 active torsions:
REMARK  status: ('A' for Active; 'I' for Inactive)
REMARK    1  A    between atoms: C_2  and  C_3 
REMARK    2  A    between atoms: C_3  and  O_6 
REMARK    3  A    between atoms: C_3  and  C_4 
REMARK    4  A    between atoms: C_7  and  O_6 
REMARK    5  A    between atoms: C_9  and  C_10 
REMARK    6  A    between atoms: N_15  and  C_14 
REMARK    7  A    between atoms: N_20  and  C_19 
REMARK       I    between atoms: C_22  and  N_20 
ROOT
ATOM      1  C   LIG d   1       2.475  89.514 116.336  0.00  0.00     0.161 C 
ATOM      2  C   LIG d   1       1.310  90.277 116.520  0.00  0.00     0.016 C 
ATOM      3  C   LIG d   1       1.267  91.457 117.297  0.00  0.00     0.038 C 
ATOM      4  C   LIG d   1       2.429  92.042 117.822  0.00  0.00     0.028 C 
ATOM      5  C   LIG d   1       3.547  91.038 118.085  0.00  0.00    -0.047 C 
ATOM      6  C   LIG d   1       3.776  90.196 116.809  0.00  0.00     0.091 C 
ENDROOT
BRANCH   1   7
ATOM      7  O   LIG d   1       2.589  89.123 114.953  0.00  0.00    -0.368 OA
BRANCH   7   8
ATOM      8  C   LIG d   1       3.164  87.816 114.706  0.00  0.00     0.119 C 
BRANCH   8   9
ATOM      9  C   LIG d   1       4.123  87.952 113.507  0.00  0.00     0.028 C 
ATOM     10  C   LIG d   1       4.732  89.360 113.399  0.00  0.00     0.006 C 
ENDBRANCH   8   9
BRANCH   8  11
ATOM     11  C   LIG d   1       2.097  86.812 114.260  0.00  0.00     0.028 C 
ATOM     12  C   LIG d   1       2.616  85.819 113.209  0.00  0.00     0.006 C 
ENDBRANCH   8  11
ENDBRANCH   7   8
ENDBRANCH   1   7
BRANCH   6  13
ATOM     13  N   LIG d   1       4.795  89.133 117.006  0.00  0.00    -0.311 N 
ATOM     14  C   LIG d   1       6.084  89.289 116.710  0.00  0.00     0.210 C 
ATOM     15  C   LIG d   1       6.961  88.060 116.972  0.00  0.00     0.109 C 
ATOM     16  O   LIG d   1       6.590  90.339 116.286  0.00  0.00    -0.276 OA
ATOM     17  H   LIG d   1       4.476  88.259 117.376  0.00  0.00     0.149 HD
ENDBRANCH   6  13
BRANCH   5  18
ATOM     18  N   LIG d   1       4.741  91.798 118.498  0.00  0.00     0.381 N 
ATOM     19  H   LIG d   1       4.470  92.705 118.821  0.00  0.00    -0.090 HD
ATOM     20  H   LIG d   1       5.345  91.913 117.703  0.00  0.00    -0.090 HD
ATOM     21  H   LIG d   1       5.222  91.310 119.222  0.00  0.00    -0.090 HD
ENDBRANCH   5  18
BRANCH   3  22
ATOM     22  C   LIG d   1       0.045  92.044 117.589  0.00  0.00     0.382 C 
ATOM     23  O   LIG d   1      -0.976  91.329 117.731  0.00  0.00    -0.241 OA
ATOM     24  O   LIG d   1      -0.058  93.283 117.669  0.00  0.00    -0.241 OA
ENDBRANCH   3  22
TORSDOF 7
ENDMDL
MODEL 5
REMARK VINA RESULT:      -4.2      2.647      4.515
REMARK  7 active torsions:
REMARK  status: ('A' for Active; 'I' for Inactive)
REMARK    1  A    between atoms: C_2  and  C_3 
REMARK    2  A    between atoms: C_3  and  O_6 
REMARK    3  A    between atoms: C_3  and  C_4 
REMARK    4  A    between atoms: C_7  and  O_6 
REMARK    5  A    between atoms: C_9  and  C_10 
REMARK    6  A    between atoms: N_15  and  C_14 
REMARK    7  A    between atoms: N_20  and  C_19 
REMARK       I    between atoms: C_22  and  N_20 
ROOT
ATOM      1  C   LIG d   1       1.968  91.097 117.178  0.00  0.00     0.161 C 
ATOM      2  C   LIG d   1       1.372  92.235 117.747  0.00  0.00     0.016 C 
ATOM      3  C   LIG d   1      -0.003  92.316 118.067  0.00  0.00     0.038 C 
ATOM      4  C   LIG d   1      -0.851  91.202 117.978  0.00  0.00     0.028 C 
ATOM      5  C   LIG d   1      -0.406  90.183 116.935  0.00  0.00    -0.047 C 
ATOM      6  C   LIG d   1       1.081  89.834 117.177  0.00  0.00     0.091 C 
ENDROOT
BRANCH   1   7
ATOM      7  O   LIG d   1       3.224  90.825 117.830  0.00  0.00    -0.368 OA
BRANCH   7   8
ATOM      8  C   LIG d   1       4.391  91.464 117.256  0.00  0.00     0.119 C 
BRANCH   8   9
ATOM      9  C   LIG d   1       5.345  90.349 116.785  0.00  0.00     0.028 C 
ATOM     10  C   LIG d   1       4.987  89.824 115.385  0.00  0.00     0.006 C 
ENDBRANCH   8   9
BRANCH   8  11
ATOM     11  C   LIG d   1       5.175  92.247 118.314  0.00  0.00     0.028 C 
ATOM     12  C   LIG d   1       6.385  91.470 118.856  0.00  0.00     0.006 C 
ENDBRANCH   8  11
ENDBRANCH   7   8
ENDBRANCH   1   7
BRANCH   6  13
ATOM     13  N   LIG d   1       1.620  88.907 116.149  0.00  0.00    -0.311 N 
ATOM     14  C   LIG d   1       1.683  87.587 116.313  0.00  0.00     0.210 C 
ATOM     15  C   LIG d   1       2.293  86.817 115.138  0.00  0.00     0.109 C 
ATOM     16  O   LIG d   1       1.262  86.977 117.308  0.00  0.00    -0.276 OA
ATOM     17  H   LIG d   1       1.955  89.314 115.298  0.00  0.00     0.149 HD
ENDBRANCH   6  13
BRANCH   5  18
ATOM     18  N   LIG d   1      -1.299  89.014 117.044  0.00  0.00     0.381 N 
ATOM     19  H   LIG d   1      -2.158  89.198 116.565  0.00  0.00    -0.090 HD
ATOM     20  H   LIG d   1      -1.506  88.853 118.014  0.00  0.00    -0.090 HD
ATOM     21  H   LIG d   1      -0.858  88.210 116.654  0.00  0.00    -0.090 HD
ENDBRANCH   5  18
BRANCH   3  22
ATOM     22  C   LIG d   1      -0.550  93.533 118.444  0.00  0.00     0.382 C 
ATOM     23  O   LIG d   1      -1.135  94.247 117.594  0.00  0.00    -0.241 OA
ATOM     24  O   LIG d   1      -0.428  93.945 119.613  0.00  0.00    -0.241 OA
ENDBRANCH   3  22
TORSDOF 7
ENDMDL
MODEL 6
REMARK VINA RESULT:      -4.2      2.250      5.392
REMARK  7 active torsions:
REMARK  status: ('A' for Active; 'I' for Inactive)
REMARK    1  A    between atoms: C_2  and  C_3 
REMARK    2  A    between atoms: C_3  and  O_6 
REMARK    3  A    between atoms: C_3  and  C_4 
REMARK    4  A    between atoms: C_7  and  O_6 
REMARK    5  A    between atoms: C_9  and  C_10 
REMARK    6  A    between atoms: N_15  and  C_14 
REMARK    7  A    between atoms: N_20  and  C_19 
REMARK       I    between atoms: C_22  and  N_20 
ROOT
ATOM      1  C   LIG d   1       3.577  90.431 116.054  0.00  0.00     0.161 C 
ATOM      2  C   LIG d   1       4.858  89.856 116.041  0.00  0.00     0.016 C 
ATOM      3  C   LIG d   1       5.720  89.849 117.162  0.00  0.00     0.038 C 
ATOM      4  C   LIG d   1       5.296  90.287 118.425  0.00  0.00     0.028 C 
ATOM      5  C   LIG d   1       4.191  91.336 118.364  0.00  0.00    -0.047 C 
ATOM      6  C   LIG d   1       3.055  90.814 117.455  0.00  0.00     0.091 C 
ENDROOT
BRANCH   1   7
ATOM      7  O   LIG d   1       2.641  89.556 115.393  0.00  0.00    -0.368 OA
BRANCH   7   8
ATOM      8  C   LIG d   1       2.842  88.136 115.599  0.00  0.00     0.119 C 
BRANCH   8   9
ATOM      9  C   LIG d   1       2.658  87.440 114.237  0.00  0.00     0.028 C 
ATOM     10  C   LIG d   1       3.556  88.043 113.144  0.00  0.00     0.006 C 
ENDBRANCH   8   9
BRANCH   8  11
ATOM     11  C   LIG d   1       1.758  87.546 116.506  0.00  0.00     0.028 C 
ATOM     12  C   LIG d   1       0.491  88.414 116.562  0.00  0.00     0.006 C 
ENDBRANCH   8  11
ENDBRANCH   7   8
ENDBRANCH   1   7
BRANCH   6  13
ATOM     13  N   LIG d   1       1.971  91.815 117.272  0.00  0.00    -0.311 N 
ATOM     14  C   LIG d   1       0.882  91.864 118.038  0.00  0.00     0.210 C 
ATOM     15  C   LIG d   1      -0.121  92.961 117.667  0.00  0.00     0.109 C 
ATOM     16  O   LIG d   1       0.667  91.124 119.010  0.00  0.00    -0.276 OA
ATOM     17  H   LIG d   1       2.078  92.473 116.526  0.00  0.00     0.149 HD
ENDBRANCH   6  13
BRANCH   5  18
ATOM     18  N   LIG d   1       3.750  91.601 119.746  0.00  0.00     0.381 N 
ATOM     19  H   LIG d   1       2.827  91.240 119.883  0.00  0.00    -0.090 HD
ATOM     20  H   LIG d   1       3.726  92.594 119.895  0.00  0.00    -0.090 HD
ATOM     21  H   LIG d   1       4.379  91.176 120.392  0.00  0.00    -0.090 HD
ENDBRANCH   5  18
BRANCH   3  22
ATOM     22  C   LIG d   1       7.036  89.437 117.014  0.00  0.00     0.382 C 
ATOM     23  O   LIG d   1       7.947  90.003 117.665  0.00  0.00    -0.241 OA
ATOM     24  O   LIG d   1       7.328  88.535 116.206  0.00  0.00    -0.241 OA
ENDBRANCH   3  22
TORSDOF 7
ENDMDL
MODEL 7
REMARK VINA RESULT:      -4.2      2.526      3.345
REMARK  7 active torsions:
REMARK  status: ('A' for Active; 'I' for Inactive)
REMARK    1  A    between atoms: C_2  and  C_3 
REMARK    2  A    between atoms: C_3  and  O_6 
REMARK    3  A    between atoms: C_3  and  C_4 
REMARK    4  A    between atoms: C_7  and  O_6 
REMARK    5  A    between atoms: C_9  and  C_10 
REMARK    6  A    between atoms: N_15  and  C_14 
REMARK    7  A    between atoms: N_20  and  C_19 
REMARK       I    between atoms: C_22  and  N_20 
ROOT
ATOM      1  C   LIG d   1       3.686  88.384 116.997  0.00  0.00     0.161 C 
ATOM      2  C   LIG d   1       2.554  89.201 116.842  0.00  0.00     0.016 C 
ATOM      3  C   LIG d   1       2.572  90.601 117.039  0.00  0.00     0.038 C 
ATOM      4  C   LIG d   1       3.766  91.303 117.260  0.00  0.00     0.028 C 
ATOM      5  C   LIG d   1       4.851  90.461 117.923  0.00  0.00    -0.047 C 
ATOM      6  C   LIG d   1       5.021  89.146 117.128  0.00  0.00     0.091 C 
ENDROOT
BRANCH   1   7
ATOM      7  O   LIG d   1       3.755  87.434 115.914  0.00  0.00    -0.368 OA
BRANCH   7   8
ATOM      8  C   LIG d   1       3.176  87.859 114.656  0.00  0.00     0.119 C 
BRANCH   8   9
ATOM      9  C   LIG d   1       2.331  86.688 114.117  0.00  0.00     0.028 C 
ATOM     10  C   LIG d   1       2.691  86.323 112.667  0.00  0.00     0.006 C 
ENDBRANCH   8   9
BRANCH   8  11
ATOM     11  C   LIG d   1       4.256  88.100 113.598  0.00  0.00     0.028 C 
ATOM     12  C   LIG d   1       4.726  89.563 113.549  0.00  0.00     0.006 C 
ENDBRANCH   8  11
ENDBRANCH   7   8
ENDBRANCH   1   7
BRANCH   6  13
ATOM     13  N   LIG d   1       6.004  88.226 117.758  0.00  0.00    -0.311 N 
ATOM     14  C   LIG d   1       7.114  87.811 117.150  0.00  0.00     0.210 C 
ATOM     15  C   LIG d   1       7.979  86.849 117.970  0.00  0.00     0.109 C 
ATOM     16  O   LIG d   1       7.479  88.173 116.021  0.00  0.00    -0.276 OA
ATOM     17  H   LIG d   1       5.801  87.908 118.686  0.00  0.00     0.149 HD
ENDBRANCH   6  13
BRANCH   5  18
ATOM     18  N   LIG d   1       6.081  91.273 117.967  0.00  0.00     0.381 N 
ATOM     19  H   LIG d   1       6.161  91.718 118.860  0.00  0.00    -0.090 HD
ATOM     20  H   LIG d   1       6.025  91.987 117.263  0.00  0.00    -0.090 HD
ATOM     21  H   LIG d   1       6.877  90.696 117.803  0.00  0.00    -0.090 HD
ENDBRANCH   5  18
BRANCH   3  22
ATOM     22  C   LIG d   1       1.379  91.308 117.056  0.00  0.00     0.382 C 
ATOM     23  O   LIG d   1       1.362  92.498 117.453  0.00  0.00    -0.241 OA
ATOM     24  O   LIG d   1       0.313  90.757 116.723  0.00  0.00    -0.241 OA
ENDBRANCH   3  22
TORSDOF 7
ENDMDL
MODEL 8
REMARK VINA RESULT:      -4.1      2.421      5.409
REMARK  7 active torsions:
REMARK  status: ('A' for Active; 'I' for Inactive)
REMARK    1  A    between atoms: C_2  and  C_3 
REMARK    2  A    between atoms: C_3  and  O_6 
REMARK    3  A    between atoms: C_3  and  C_4 
REMARK    4  A    between atoms: C_7  and  O_6 
REMARK    5  A    between atoms: C_9  and  C_10 
REMARK    6  A    between atoms: N_15  and  C_14 
REMARK    7  A    between atoms: N_20  and  C_19 
REMARK       I    between atoms: C_22  and  N_20 
ROOT
ATOM      1  C   LIG d   1       0.858  90.920 116.687  0.00  0.00     0.161 C 
ATOM      2  C   LIG d   1       2.259  90.950 116.785  0.00  0.00     0.016 C 
ATOM      3  C   LIG d   1       2.954  91.677 117.780  0.00  0.00     0.038 C 
ATOM      4  C   LIG d   1       2.287  92.304 118.842  0.00  0.00     0.028 C 
ATOM      5  C   LIG d   1       0.861  92.722 118.499  0.00  0.00    -0.047 C 
ATOM      6  C   LIG d   1       0.112  91.508 117.903  0.00  0.00     0.091 C 
ENDROOT
BRANCH   1   7
ATOM      7  O   LIG d   1       0.415  89.573 116.431  0.00  0.00    -0.368 OA
BRANCH   7   8
ATOM      8  C   LIG d   1       1.295  88.515 116.887  0.00  0.00     0.119 C 
BRANCH   8   9
ATOM      9  C   LIG d   1       1.522  87.559 115.700  0.00  0.00     0.028 C 
ATOM     10  C   LIG d   1       2.802  87.890 114.916  0.00  0.00     0.006 C 
ENDBRANCH   8   9
BRANCH   8  11
ATOM     11  C   LIG d   1       0.628  87.664 117.972  0.00  0.00     0.028 C 
ATOM     12  C   LIG d   1      -0.791  88.144 118.317  0.00  0.00     0.006 C 
ENDBRANCH   8  11
ENDBRANCH   7   8
ENDBRANCH   1   7
BRANCH   6  13
ATOM     13  N   LIG d   1      -1.265  91.852 117.463  0.00  0.00    -0.311 N 
ATOM     14  C   LIG d   1      -2.333  91.755 118.253  0.00  0.00     0.210 C 
ATOM     15  C   LIG d   1      -3.662  92.140 117.594  0.00  0.00     0.109 C 
ATOM     16  O   LIG d   1      -2.303  91.417 119.445  0.00  0.00    -0.276 OA
ATOM     17  H   LIG d   1      -1.377  92.165 116.518  0.00  0.00     0.149 HD
ENDBRANCH   6  13
BRANCH   5  18
ATOM     18  N   LIG d   1       0.238  93.236 119.734  0.00  0.00     0.381 N 
ATOM     19  H   LIG d   1       0.572  92.720 120.522  0.00  0.00    -0.090 HD
ATOM     20  H   LIG d   1      -0.757  93.110 119.673  0.00  0.00    -0.090 HD
ATOM     21  H   LIG d   1       0.452  94.203 119.846  0.00  0.00    -0.090 HD
ENDBRANCH   5  18
BRANCH   3  22
ATOM     22  C   LIG d   1       4.331  91.814 117.694  0.00  0.00     0.382 C 
ATOM     23  O   LIG d   1       4.997  91.025 116.980  0.00  0.00    -0.241 OA
ATOM     24  O   LIG d   1       4.922  92.687 118.357  0.00  0.00    -0.241 OA
ENDBRANCH   3  22
TORSDOF 7
ENDMDL
MODEL 9
REMARK VINA RESULT:      -4.1      6.769     10.161
REMARK  7 active torsions:
REMARK  status: ('A' for Active; 'I' for Inactive)
REMARK    1  A    between atoms: C_2  and  C_3 
REMARK    2  A    between atoms: C_3  and  O_6 
REMARK    3  A    between atoms: C_3  and  C_4 
REMARK    4  A    between atoms: C_7  and  O_6 
REMARK    5  A    between atoms: C_9  and  C_10 
REMARK    6  A    between atoms: N_15  and  C_14 
REMARK    7  A    between atoms: N_20  and  C_19 
REMARK       I    between atoms: C_22  and  N_20 
ROOT
ATOM      1  C   LIG d   1      -6.081  93.243 116.525  0.00  0.00     0.161 C 
ATOM      2  C   LIG d   1      -5.042  92.302 116.618  0.00  0.00     0.016 C 
ATOM      3  C   LIG d   1      -4.157  92.227 117.718  0.00  0.00     0.038 C 
ATOM      4  C   LIG d   1      -4.348  92.993 118.877  0.00  0.00     0.028 C 
ATOM      5  C   LIG d   1      -5.079  94.307 118.621  0.00  0.00    -0.047 C 
ATOM      6  C   LIG d   1      -6.374  94.014 117.829  0.00  0.00     0.091 C 
ENDROOT
BRANCH   1   7
ATOM      7  O   LIG d   1      -7.278  92.602 116.042  0.00  0.00    -0.368 OA
BRANCH   7   8
ATOM      8  C   LIG d   1      -7.206  91.165 115.869  0.00  0.00     0.119 C 
BRANCH   8   9
ATOM      9  C   LIG d   1      -6.985  90.891 114.368  0.00  0.00     0.028 C 
ATOM     10  C   LIG d   1      -7.321  92.110 113.493  0.00  0.00     0.006 C 
ENDBRANCH   8   9
BRANCH   8  11
ATOM     11  C   LIG d   1      -8.540  90.495 116.211  0.00  0.00     0.028 C 
ATOM     12  C   LIG d   1      -8.576  89.008 115.823  0.00  0.00     0.006 C 
ENDBRANCH   8  11
ENDBRANCH   7   8
ENDBRANCH   1   7
BRANCH   6  13
ATOM     13  N   LIG d   1      -7.107  95.254 117.463  0.00  0.00    -0.311 N 
ATOM     14  C   LIG d   1      -8.272  95.604 118.005  0.00  0.00     0.210 C 
ATOM     15  C   LIG d   1      -8.867  96.911 117.471  0.00  0.00     0.109 C 
ATOM     16  O   LIG d   1      -8.854  94.973 118.900  0.00  0.00    -0.276 OA
ATOM     17  H   LIG d   1      -6.691  95.841 116.766  0.00  0.00     0.149 HD
ENDBRANCH   6  13
BRANCH   5  18
ATOM     18  N   LIG d   1      -5.332  94.939 119.929  0.00  0.00     0.381 N 
ATOM     19  H   LIG d   1      -5.235  95.932 119.851  0.00  0.00    -0.090 HD
ATOM     20  H   LIG d   1      -4.651  94.606 120.588  0.00  0.00    -0.090 HD
ATOM     21  H   LIG d   1      -6.250  94.712 120.246  0.00  0.00    -0.090 HD
ENDBRANCH   5  18
BRANCH   3  22
ATOM     22  C   LIG d   1      -3.043  91.404 117.650  0.00  0.00     0.382 C 
ATOM     23  O   LIG d   1      -1.965  91.763 118.180  0.00  0.00    -0.241 OA
ATOM     24  O   LIG d   1      -3.091  90.326 117.026  0.00  0.00    -0.241 OA
ENDBRANCH   3  22
TORSDOF 7
ENDMDL
