MODEL 1
REMARK VINA RESULT:      -5.2      0.000      0.000
REMARK  7 active torsions:
REMARK  status: ('A' for Active; 'I' for Inactive)
REMARK    1  A    between atoms: C_2  and  C_3 
REMARK    2  A    between atoms: C_3  and  O_6 
REMARK    3  A    between atoms: C_3  and  C_4 
REMARK    4  A    between atoms: C_7  and  O_6 
REMARK    5  A    between atoms: C_9  and  C_10 
REMARK    6  A    between atoms: N_15  and  C_14 
REMARK    7  A    between atoms: N_20  and  C_19 
REMARK       I    between atoms: C_22  and  N_20 
ROOT
ATOM      1  C   LIG d   1      -7.263  92.581 117.700  0.00  0.00     0.161 C 
ATOM      2  C   LIG d   1      -6.104  92.590 118.493  0.00  0.00     0.016 C 
ATOM      3  C   LIG d   1      -4.913  91.914 118.139  0.00  0.00     0.038 C 
ATOM      4  C   LIG d   1      -4.752  91.304 116.887  0.00  0.00     0.028 C 
ATOM      5  C   LIG d   1      -6.065  90.839 116.266  0.00  0.00    -0.047 C 
ATOM      6  C   LIG d   1      -7.070  92.013 116.278  0.00  0.00     0.091 C 
ENDROOT
BRANCH   1   7
ATOM      7  O   LIG d   1      -7.823  93.908 117.637  0.00  0.00    -0.368 OA
BRANCH   7   8
ATOM      8  C   LIG d   1      -8.208  94.497 118.904  0.00  0.00     0.119 C 
BRANCH   8   9
ATOM      9  C   LIG d   1      -9.644  95.034 118.747  0.00  0.00     0.028 C 
ATOM     10  C   LIG d   1     -10.548  94.648 119.930  0.00  0.00     0.006 C 
ENDBRANCH   8   9
BRANCH   8  11
ATOM     11  C   LIG d   1      -7.350  95.723 119.231  0.00  0.00     0.028 C 
ATOM     12  C   LIG d   1      -7.869  97.008 118.566  0.00  0.00     0.006 C 
ENDBRANCH   8  11
ENDBRANCH   7   8
ENDBRANCH   1   7
BRANCH   6  13
ATOM     13  N   LIG d   1      -8.408  91.620 115.765  0.00  0.00    -0.311 N 
ATOM     14  C   LIG d   1      -8.746  91.680 114.478  0.00  0.00     0.210 C 
ATOM     15  C   LIG d   1     -10.182  91.246 114.167  0.00  0.00     0.109 C 
ATOM     16  O   LIG d   1      -7.983  92.020 113.562  0.00  0.00    -0.276 OA
ATOM     17  H   LIG d   1      -9.078  91.302 116.437  0.00  0.00     0.149 HD
ENDBRANCH   6  13
BRANCH   5  18
ATOM     18  N   LIG d   1      -5.766  90.348 114.907  0.00  0.00     0.381 N 
ATOM     19  H   LIG d   1      -5.912  89.359 114.865  0.00  0.00    -0.090 HD
ATOM     20  H   LIG d   1      -4.800  90.533 114.700  0.00  0.00    -0.090 HD
ATOM     21  H   LIG d   1      -6.350  90.806 114.243  0.00  0.00    -0.090 HD
ENDBRANCH   5  18
BRANCH   3  22
ATOM     22  C   LIG d   1      -3.882  91.811 119.061  0.00  0.00     0.382 C 
ATOM     23  O   LIG d   1      -3.402  90.686 119.340  0.00  0.00    -0.241 OA
ATOM     24  O   LIG d   1      -3.456  92.823 119.648  0.00  0.00    -0.241 OA
ENDBRANCH   3  22
TORSDOF 7
ENDMDL
MODEL 2
REMARK VINA RESULT:      -4.7      7.762     11.253
REMARK  7 active torsions:
REMARK  status: ('A' for Active; 'I' for Inactive)
REMARK    1  A    between atoms: C_2  and  C_3 
REMARK    2  A    between atoms: C_3  and  O_6 
REMARK    3  A    between atoms: C_3  and  C_4 
REMARK    4  A    between atoms: C_7  and  O_6 
REMARK    5  A    between atoms: C_9  and  C_10 
REMARK    6  A    between atoms: N_15  and  C_14 
REMARK    7  A    between atoms: N_20  and  C_19 
REMARK       I    between atoms: C_22  and  N_20 
ROOT
ATOM      1  C   LIG d   1       1.604  88.579 116.271  0.00  0.00     0.161 C 
ATOM      2  C   LIG d   1       0.428  88.786 117.011  0.00  0.00     0.016 C 
ATOM      3  C   LIG d   1       0.157  89.974 117.728  0.00  0.00     0.038 C 
ATOM      4  C   LIG d   1       0.983  91.104 117.628  0.00  0.00     0.028 C 
ATOM      5  C   LIG d   1       2.433  90.767 117.299  0.00  0.00    -0.047 C 
ATOM      6  C   LIG d   1       2.465  89.842 116.060  0.00  0.00     0.091 C 
ENDROOT
BRANCH   1   7
ATOM      7  O   LIG d   1       1.283  87.974 115.003  0.00  0.00    -0.368 OA
BRANCH   7   8
ATOM      8  C   LIG d   1       1.642  86.578 114.854  0.00  0.00     0.119 C 
BRANCH   8   9
ATOM      9  C   LIG d   1       2.534  86.199 116.053  0.00  0.00     0.028 C 
ATOM     10  C   LIG d   1       3.936  85.740 115.619  0.00  0.00     0.006 C 
ENDBRANCH   8   9
BRANCH   8  11
ATOM     11  C   LIG d   1       2.514  86.357 113.615  0.00  0.00     0.028 C 
ATOM     12  C   LIG d   1       2.103  87.246 112.430  0.00  0.00     0.006 C 
ENDBRANCH   8  11
ENDBRANCH   7   8
ENDBRANCH   1   7
BRANCH   6  13
ATOM     13  N   LIG d   1       3.841  89.397 115.721  0.00  0.00    -0.311 N 
ATOM     14  C   LIG d   1       4.365  89.500 114.500  0.00  0.00     0.210 C 
ATOM     15  C   LIG d   1       5.793  88.962 114.362  0.00  0.00     0.109 C 
ATOM     16  O   LIG d   1       3.795  90.015 113.527  0.00  0.00    -0.276 OA
ATOM     17  H   LIG d   1       4.386  88.995 116.459  0.00  0.00     0.149 HD
ENDBRANCH   6  13
BRANCH   5  18
ATOM     18  N   LIG d   1       3.150  92.039 117.089  0.00  0.00     0.381 N 
ATOM     19  H   LIG d   1       2.498  92.799 117.089  0.00  0.00    -0.090 HD
ATOM     20  H   LIG d   1       3.603  92.013 116.192  0.00  0.00    -0.090 HD
ATOM     21  H   LIG d   1       3.827  92.172 117.807  0.00  0.00    -0.090 HD
ENDBRANCH   5  18
BRANCH   3  22
ATOM     22  C   LIG d   1      -0.930  90.027 118.587  0.00  0.00     0.382 C 
ATOM     23  O   LIG d   1      -2.090  90.144 118.123  0.00  0.00    -0.241 OA
ATOM     24  O   LIG d   1      -0.762  90.002 119.821  0.00  0.00    -0.241 OA
ENDBRANCH   3  22
TORSDOF 7
ENDMDL
MODEL 3
REMARK VINA RESULT:      -4.6      8.191     11.213
REMARK  7 active torsions:
REMARK  status: ('A' for Active; 'I' for Inactive)
REMARK    1  A    between atoms: C_2  and  C_3 
REMARK    2  A    between atoms: C_3  and  O_6 
REMARK    3  A    between atoms: C_3  and  C_4 
REMARK    4  A    between atoms: C_7  and  O_6 
REMARK    5  A    between atoms: C_9  and  C_10 
REMARK    6  A    between atoms: N_15  and  C_14 
REMARK    7  A    between atoms: N_20  and  C_19 
REMARK       I    between atoms: C_22  and  N_20 
ROOT
ATOM      1  C   LIG d   1       2.732  89.757 116.566  0.00  0.00     0.161 C 
ATOM      2  C   LIG d   1       2.419  89.201 115.314  0.00  0.00     0.016 C 
ATOM      3  C   LIG d   1       3.388  88.653 114.442  0.00  0.00     0.038 C 
ATOM      4  C   LIG d   1       4.725  88.486 114.831  0.00  0.00     0.028 C 
ATOM      5  C   LIG d   1       5.180  89.491 115.884  0.00  0.00    -0.047 C 
ATOM      6  C   LIG d   1       4.170  89.483 117.054  0.00  0.00     0.091 C 
ENDROOT
BRANCH   1   7
ATOM      7  O   LIG d   1       1.776  89.315 117.550  0.00  0.00    -0.368 OA
BRANCH   7   8
ATOM      8  C   LIG d   1       0.495  89.991 117.543  0.00  0.00     0.119 C 
BRANCH   8   9
ATOM      9  C   LIG d   1       0.688  91.356 118.231  0.00  0.00     0.028 C 
ATOM     10  C   LIG d   1       0.410  92.535 117.283  0.00  0.00     0.006 C 
ENDBRANCH   8   9
BRANCH   8  11
ATOM     11  C   LIG d   1      -0.533  89.247 118.401  0.00  0.00     0.028 C 
ATOM     12  C   LIG d   1      -1.951  89.823 118.266  0.00  0.00     0.006 C 
ENDBRANCH   8  11
ENDBRANCH   7   8
ENDBRANCH   1   7
BRANCH   6  13
ATOM     13  N   LIG d   1       4.494  90.499 118.090  0.00  0.00    -0.311 N 
ATOM     14  C   LIG d   1       4.388  91.811 117.888  0.00  0.00     0.210 C 
ATOM     15  C   LIG d   1       4.792  92.683 119.081  0.00  0.00     0.109 C 
ATOM     16  O   LIG d   1       3.968  92.335 116.846  0.00  0.00    -0.276 OA
ATOM     17  H   LIG d   1       4.814  90.160 118.976  0.00  0.00     0.149 HD
ENDBRANCH   6  13
BRANCH   5  18
ATOM     18  N   LIG d   1       6.546  89.116 116.297  0.00  0.00     0.381 N 
ATOM     19  H   LIG d   1       6.693  89.373 117.253  0.00  0.00    -0.090 HD
ATOM     20  H   LIG d   1       7.206  89.619 115.730  0.00  0.00    -0.090 HD
ATOM     21  H   LIG d   1       6.679  88.136 116.184  0.00  0.00    -0.090 HD
ENDBRANCH   5  18
BRANCH   3  22
ATOM     22  C   LIG d   1       3.028  88.302 113.150  0.00  0.00     0.382 C 
ATOM     23  O   LIG d   1       3.790  87.580 112.462  0.00  0.00    -0.241 OA
ATOM     24  O   LIG d   1       1.973  88.733 112.648  0.00  0.00    -0.241 OA
ENDBRANCH   3  22
TORSDOF 7
ENDMDL
MODEL 4
REMARK VINA RESULT:      -4.6      8.908     12.448
REMARK  7 active torsions:
REMARK  status: ('A' for Active; 'I' for Inactive)
REMARK    1  A    between atoms: C_2  and  C_3 
REMARK    2  A    between atoms: C_3  and  O_6 
REMARK    3  A    between atoms: C_3  and  C_4 
REMARK    4  A    between atoms: C_7  and  O_6 
REMARK    5  A    between atoms: C_9  and  C_10 
REMARK    6  A    between atoms: N_15  and  C_14 
REMARK    7  A    between atoms: N_20  and  C_19 
REMARK       I    between atoms: C_22  and  N_20 
ROOT
ATOM      1  C   LIG d   1       3.130  89.931 115.976  0.00  0.00     0.161 C 
ATOM      2  C   LIG d   1       2.100  90.864 116.180  0.00  0.00     0.016 C 
ATOM      3  C   LIG d   1       2.061  91.753 117.279  0.00  0.00     0.038 C 
ATOM      4  C   LIG d   1       3.135  91.873 118.173  0.00  0.00     0.028 C 
ATOM      5  C   LIG d   1       3.967  90.601 118.295  0.00  0.00    -0.047 C 
ATOM      6  C   LIG d   1       4.365  90.124 116.880  0.00  0.00     0.091 C 
ENDROOT
BRANCH   1   7
ATOM      7  O   LIG d   1       3.520  89.930 114.588  0.00  0.00    -0.368 OA
BRANCH   7   8
ATOM      8  C   LIG d   1       3.172  88.745 113.830  0.00  0.00     0.119 C 
BRANCH   8   9
ATOM      9  C   LIG d   1       2.420  87.792 114.779  0.00  0.00     0.028 C 
ATOM     10  C   LIG d   1       3.095  86.414 114.883  0.00  0.00     0.006 C 
ENDBRANCH   8   9
BRANCH   8  11
ATOM     11  C   LIG d   1       4.423  87.978 113.392  0.00  0.00     0.028 C 
ATOM     12  C   LIG d   1       5.668  88.873 113.294  0.00  0.00     0.006 C 
ENDBRANCH   8  11
ENDBRANCH   7   8
ENDBRANCH   1   7
BRANCH   6  13
ATOM     13  N   LIG d   1       5.110  88.838 116.904  0.00  0.00    -0.311 N 
ATOM     14  C   LIG d   1       6.436  88.761 117.000  0.00  0.00     0.210 C 
ATOM     15  C   LIG d   1       7.004  87.338 116.987  0.00  0.00     0.109 C 
ATOM     16  O   LIG d   1       7.194  89.734 117.127  0.00  0.00    -0.276 OA
ATOM     17  H   LIG d   1       4.571  87.997 116.837  0.00  0.00     0.149 HD
ENDBRANCH   6  13
BRANCH   5  18
ATOM     18  N   LIG d   1       5.129  90.909 119.150  0.00  0.00     0.381 N 
ATOM     19  H   LIG d   1       5.726  90.108 119.212  0.00  0.00    -0.090 HD
ATOM     20  H   LIG d   1       4.803  91.131 120.075  0.00  0.00    -0.090 HD
ATOM     21  H   LIG d   1       5.634  91.680 118.774  0.00  0.00    -0.090 HD
ENDBRANCH   5  18
BRANCH   3  22
ATOM     22  C   LIG d   1       0.920  92.506 117.515  0.00  0.00     0.382 C 
ATOM     23  O   LIG d   1      -0.200  92.080 117.143  0.00  0.00    -0.241 OA
ATOM     24  O   LIG d   1       1.003  93.625 118.054  0.00  0.00    -0.241 OA
ENDBRANCH   3  22
TORSDOF 7
ENDMDL
MODEL 5
REMARK VINA RESULT:      -4.6      8.877     11.823
REMARK  7 active torsions:
REMARK  status: ('A' for Active; 'I' for Inactive)
REMARK    1  A    between atoms: C_2  and  C_3 
REMARK    2  A    between atoms: C_3  and  O_6 
REMARK    3  A    between atoms: C_3  and  C_4 
REMARK    4  A    between atoms: C_7  and  O_6 
REMARK    5  A    between atoms: C_9  and  C_10 
REMARK    6  A    between atoms: N_15  and  C_14 
REMARK    7  A    between atoms: N_20  and  C_19 
REMARK       I    between atoms: C_22  and  N_20 
ROOT
ATOM      1  C   LIG d   1       3.136  90.313 116.073  0.00  0.00     0.161 C 
ATOM      2  C   LIG d   1       2.660  89.561 114.987  0.00  0.00     0.016 C 
ATOM      3  C   LIG d   1       3.437  88.593 114.310  0.00  0.00     0.038 C 
ATOM      4  C   LIG d   1       4.703  88.203 114.772  0.00  0.00     0.028 C 
ATOM      5  C   LIG d   1       5.422  89.293 115.561  0.00  0.00    -0.047 C 
ATOM      6  C   LIG d   1       4.475  89.823 116.662  0.00  0.00     0.091 C 
ENDROOT
BRANCH   1   7
ATOM      7  O   LIG d   1       2.129  90.377 117.102  0.00  0.00    -0.368 OA
BRANCH   7   8
ATOM      8  C   LIG d   1       0.758  90.485 116.647  0.00  0.00     0.119 C 
BRANCH   8   9
ATOM      9  C   LIG d   1       0.245  91.880 117.053  0.00  0.00     0.028 C 
ATOM     10  C   LIG d   1       1.144  92.554 118.104  0.00  0.00     0.006 C 
ENDBRANCH   8   9
BRANCH   8  11
ATOM     11  C   LIG d   1      -0.151  89.491 117.375  0.00  0.00     0.028 C 
ATOM     12  C   LIG d   1       0.635  88.456 118.196  0.00  0.00     0.006 C 
ENDBRANCH   8  11
ENDBRANCH   7   8
ENDBRANCH   1   7
BRANCH   6  13
ATOM     13  N   LIG d   1       5.070  90.950 117.426  0.00  0.00    -0.311 N 
ATOM     14  C   LIG d   1       5.757  90.789 118.555  0.00  0.00     0.210 C 
ATOM     15  C   LIG d   1       6.267  92.085 119.193  0.00  0.00     0.109 C 
ATOM     16  O   LIG d   1       6.021  89.692 119.072  0.00  0.00    -0.276 OA
ATOM     17  H   LIG d   1       4.932  91.872 117.061  0.00  0.00     0.149 HD
ENDBRANCH   6  13
BRANCH   5  18
ATOM     18  N   LIG d   1       6.664  88.707 116.099  0.00  0.00     0.381 N 
ATOM     19  H   LIG d   1       6.707  88.854 117.088  0.00  0.00    -0.090 HD
ATOM     20  H   LIG d   1       7.451  89.169 115.677  0.00  0.00    -0.090 HD
ATOM     21  H   LIG d   1       6.696  87.732 115.899  0.00  0.00    -0.090 HD
ENDBRANCH   5  18
BRANCH   3  22
ATOM     22  C   LIG d   1       2.965  88.033 113.132  0.00  0.00     0.382 C 
ATOM     23  O   LIG d   1       3.544  87.038 112.635  0.00  0.00    -0.241 OA
ATOM     24  O   LIG d   1       1.995  88.539 112.537  0.00  0.00    -0.241 OA
ENDBRANCH   3  22
TORSDOF 7
ENDMDL
MODEL 6
REMARK VINA RESULT:      -4.5     10.802     13.849
REMARK  7 active torsions:
REMARK  status: ('A' for Active; 'I' for Inactive)
REMARK    1  A    between atoms: C_2  and  C_3 
REMARK    2  A    between atoms: C_3  and  O_6 
REMARK    3  A    between atoms: C_3  and  C_4 
REMARK    4  A    between atoms: C_7  and  O_6 
REMARK    5  A    between atoms: C_9  and  C_10 
REMARK    6  A    between atoms: N_15  and  C_14 
REMARK    7  A    between atoms: N_20  and  C_19 
REMARK       I    between atoms: C_22  and  N_20 
ROOT
ATOM      1  C   LIG d   1       4.586  87.746 116.489  0.00  0.00     0.161 C 
ATOM      2  C   LIG d   1       3.612  88.746 116.330  0.00  0.00     0.016 C 
ATOM      3  C   LIG d   1       3.832  90.104 116.655  0.00  0.00     0.038 C 
ATOM      4  C   LIG d   1       5.098  90.584 117.022  0.00  0.00     0.028 C 
ATOM      5  C   LIG d   1       5.979  89.527 117.680  0.00  0.00    -0.047 C 
ATOM      6  C   LIG d   1       6.008  88.269 116.782  0.00  0.00     0.091 C 
ENDROOT
BRANCH   1   7
ATOM      7  O   LIG d   1       4.597  86.886 115.332  0.00  0.00    -0.368 OA
BRANCH   7   8
ATOM      8  C   LIG d   1       3.664  87.226 114.277  0.00  0.00     0.119 C 
BRANCH   8   9
ATOM      9  C   LIG d   1       2.797  85.981 114.008  0.00  0.00     0.028 C 
ATOM     10  C   LIG d   1       1.486  86.324 113.281  0.00  0.00     0.006 C 
ENDBRANCH   8   9
BRANCH   8  11
ATOM     11  C   LIG d   1       4.391  87.507 112.959  0.00  0.00     0.028 C 
ATOM     12  C   LIG d   1       5.508  88.552 113.106  0.00  0.00     0.006 C 
ENDBRANCH   8  11
ENDBRANCH   7   8
ENDBRANCH   1   7
BRANCH   6  13
ATOM     13  N   LIG d   1       6.779  87.155 117.393  0.00  0.00    -0.311 N 
ATOM     14  C   LIG d   1       7.903  86.668 116.869  0.00  0.00     0.210 C 
ATOM     15  C   LIG d   1       8.529  85.506 117.648  0.00  0.00     0.109 C 
ATOM     16  O   LIG d   1       8.458  87.109 115.852  0.00  0.00    -0.276 OA
ATOM     17  H   LIG d   1       6.417  86.758 118.238  0.00  0.00     0.149 HD
ENDBRANCH   6  13
BRANCH   5  18
ATOM     18  N   LIG d   1       7.313  90.123 117.884  0.00  0.00     0.381 N 
ATOM     19  H   LIG d   1       7.985  89.651 117.313  0.00  0.00    -0.090 HD
ATOM     20  H   LIG d   1       7.578  90.004 118.846  0.00  0.00    -0.090 HD
ATOM     21  H   LIG d   1       7.292  91.092 117.654  0.00  0.00    -0.090 HD
ENDBRANCH   5  18
BRANCH   3  22
ATOM     22  C   LIG d   1       2.766  90.992 116.653  0.00  0.00     0.382 C 
ATOM     23  O   LIG d   1       2.962  92.206 116.901  0.00  0.00    -0.241 OA
ATOM     24  O   LIG d   1       1.606  90.586 116.452  0.00  0.00    -0.241 OA
ENDBRANCH   3  22
TORSDOF 7
ENDMDL
MODEL 7
REMARK VINA RESULT:      -4.4      8.097     10.539
REMARK  7 active torsions:
REMARK  status: ('A' for Active; 'I' for Inactive)
REMARK    1  A    between atoms: C_2  and  C_3 
REMARK    2  A    between atoms: C_3  and  O_6 
REMARK    3  A    between atoms: C_3  and  C_4 
REMARK    4  A    between atoms: C_7  and  O_6 
REMARK    5  A    between atoms: C_9  and  C_10 
REMARK    6  A    between atoms: N_15  and  C_14 
REMARK    7  A    between atoms: N_20  and  C_19 
REMARK       I    between atoms: C_22  and  N_20 
ROOT
ATOM      1  C   LIG d   1       2.627  88.804 116.369  0.00  0.00     0.161 C 
ATOM      2  C   LIG d   1       3.211  89.523 117.424  0.00  0.00     0.016 C 
ATOM      3  C   LIG d   1       4.549  89.979 117.410  0.00  0.00     0.038 C 
ATOM      4  C   LIG d   1       5.355  89.876 116.266  0.00  0.00     0.028 C 
ATOM      5  C   LIG d   1       4.973  88.711 115.359  0.00  0.00    -0.047 C 
ATOM      6  C   LIG d   1       3.456  88.778 115.067  0.00  0.00     0.091 C 
ENDROOT
BRANCH   1   7
ATOM      7  O   LIG d   1       1.302  89.307 116.108  0.00  0.00    -0.368 OA
BRANCH   7   8
ATOM      8  C   LIG d   1       0.657  90.000 117.205  0.00  0.00     0.119 C 
BRANCH   8   9
ATOM      9  C   LIG d   1      -0.483  89.097 117.717  0.00  0.00     0.028 C 
ATOM     10  C   LIG d   1      -1.730  89.900 118.122  0.00  0.00     0.006 C 
ENDBRANCH   8   9
BRANCH   8  11
ATOM     11  C   LIG d   1      -0.027  91.284 116.727  0.00  0.00     0.028 C 
ATOM     12  C   LIG d   1       0.620  92.554 117.303  0.00  0.00     0.006 C 
ENDBRANCH   8  11
ENDBRANCH   7   8
ENDBRANCH   1   7
BRANCH   6  13
ATOM     13  N   LIG d   1       2.983  87.627 114.255  0.00  0.00    -0.311 N 
ATOM     14  C   LIG d   1       2.343  87.762 113.095  0.00  0.00     0.210 C 
ATOM     15  C   LIG d   1       1.925  86.447 112.430  0.00  0.00     0.109 C 
ATOM     16  O   LIG d   1       2.109  88.845 112.538  0.00  0.00    -0.276 OA
ATOM     17  H   LIG d   1       3.159  86.710 114.618  0.00  0.00     0.149 HD
ENDBRANCH   6  13
BRANCH   5  18
ATOM     18  N   LIG d   1       5.801  88.804 114.142  0.00  0.00     0.381 N 
ATOM     19  H   LIG d   1       6.761  88.646 114.372  0.00  0.00    -0.090 HD
ATOM     20  H   LIG d   1       5.715  89.729 113.760  0.00  0.00    -0.090 HD
ATOM     21  H   LIG d   1       5.498  88.131 113.472  0.00  0.00    -0.090 HD
ENDBRANCH   5  18
BRANCH   3  22
ATOM     22  C   LIG d   1       5.107  90.510 118.563  0.00  0.00     0.382 C 
ATOM     23  O   LIG d   1       4.383  91.119 119.386  0.00  0.00    -0.241 OA
ATOM     24  O   LIG d   1       6.333  90.426 118.768  0.00  0.00    -0.241 OA
ENDBRANCH   3  22
TORSDOF 7
ENDMDL
MODEL 8
REMARK VINA RESULT:      -4.4      8.408     11.688
REMARK  7 active torsions:
REMARK  status: ('A' for Active; 'I' for Inactive)
REMARK    1  A    between atoms: C_2  and  C_3 
REMARK    2  A    between atoms: C_3  and  O_6 
REMARK    3  A    between atoms: C_3  and  C_4 
REMARK    4  A    between atoms: C_7  and  O_6 
REMARK    5  A    between atoms: C_9  and  C_10 
REMARK    6  A    between atoms: N_15  and  C_14 
REMARK    7  A    between atoms: N_20  and  C_19 
REMARK       I    between atoms: C_22  and  N_20 
ROOT
ATOM      1  C   LIG d   1       4.041  90.956 116.611  0.00  0.00     0.161 C 
ATOM      2  C   LIG d   1       2.993  91.737 117.126  0.00  0.00     0.016 C 
ATOM      3  C   LIG d   1       1.633  91.354 117.062  0.00  0.00     0.038 C 
ATOM      4  C   LIG d   1       1.241  90.086 116.610  0.00  0.00     0.028 C 
ATOM      5  C   LIG d   1       2.218  89.468 115.616  0.00  0.00    -0.047 C 
ATOM      6  C   LIG d   1       3.642  89.519 116.214  0.00  0.00     0.091 C 
ENDROOT
BRANCH   1   7
ATOM      7  O   LIG d   1       5.137  90.932 117.546  0.00  0.00    -0.368 OA
BRANCH   7   8
ATOM      8  C   LIG d   1       4.778  90.913 118.949  0.00  0.00     0.119 C 
BRANCH   8   9
ATOM      9  C   LIG d   1       5.652  91.960 119.665  0.00  0.00     0.028 C 
ATOM     10  C   LIG d   1       6.222  93.010 118.697  0.00  0.00     0.006 C 
ENDBRANCH   8   9
BRANCH   8  11
ATOM     11  C   LIG d   1       5.138  89.573 119.598  0.00  0.00     0.028 C 
ATOM     12  C   LIG d   1       6.251  88.826 118.846  0.00  0.00     0.006 C 
ENDBRANCH   8  11
ENDBRANCH   7   8
ENDBRANCH   1   7
BRANCH   6  13
ATOM     13  N   LIG d   1       4.672  89.011 115.271  0.00  0.00    -0.311 N 
ATOM     14  C   LIG d   1       4.657  89.265 113.963  0.00  0.00     0.210 C 
ATOM     15  C   LIG d   1       5.802  88.628 113.168  0.00  0.00     0.109 C 
ATOM     16  O   LIG d   1       3.824  89.984 113.392  0.00  0.00    -0.276 OA
ATOM     17  H   LIG d   1       5.403  88.445 115.655  0.00  0.00     0.149 HD
ENDBRANCH   6  13
BRANCH   5  18
ATOM     18  N   LIG d   1       1.758  88.094 115.335  0.00  0.00     0.381 N 
ATOM     19  H   LIG d   1       1.310  88.064 114.441  0.00  0.00    -0.090 HD
ATOM     20  H   LIG d   1       1.088  87.826 116.034  0.00  0.00    -0.090 HD
ATOM     21  H   LIG d   1       2.532  87.467 115.348  0.00  0.00    -0.090 HD
ENDBRANCH   5  18
BRANCH   3  22
ATOM     22  C   LIG d   1       0.647  92.262 117.417  0.00  0.00     0.382 C 
ATOM     23  O   LIG d   1      -0.563  91.938 117.331  0.00  0.00    -0.241 OA
ATOM     24  O   LIG d   1       0.949  93.415 117.779  0.00  0.00    -0.241 OA
ENDBRANCH   3  22
TORSDOF 7
ENDMDL
MODEL 9
REMARK VINA RESULT:      -4.3      5.980      9.798
REMARK  7 active torsions:
REMARK  status: ('A' for Active; 'I' for Inactive)
REMARK    1  A    between atoms: C_2  and  C_3 
REMARK    2  A    between atoms: C_3  and  O_6 
REMARK    3  A    between atoms: C_3  and  C_4 
REMARK    4  A    between atoms: C_7  and  O_6 
REMARK    5  A    between atoms: C_9  and  C_10 
REMARK    6  A    between atoms: N_15  and  C_14 
REMARK    7  A    between atoms: N_20  and  C_19 
REMARK       I    between atoms: C_22  and  N_20 
ROOT
ATOM      1  C   LIG d   1       0.146  90.415 117.512  0.00  0.00     0.161 C 
ATOM      2  C   LIG d   1      -1.245  90.428 117.317  0.00  0.00     0.016 C 
ATOM      3  C   LIG d   1      -2.062  91.543 117.612  0.00  0.00     0.038 C 
ATOM      4  C   LIG d   1      -1.519  92.783 117.982  0.00  0.00     0.028 C 
ATOM      5  C   LIG d   1      -0.165  92.669 118.675  0.00  0.00    -0.047 C 
ATOM      6  C   LIG d   1       0.770  91.795 117.809  0.00  0.00     0.091 C 
ENDROOT
BRANCH   1   7
ATOM      7  O   LIG d   1       0.793  89.807 116.376  0.00  0.00    -0.368 OA
BRANCH   7   8
ATOM      8  C   LIG d   1       0.995  88.374 116.449  0.00  0.00     0.119 C 
BRANCH   8   9
ATOM      9  C   LIG d   1       1.497  88.049 117.869  0.00  0.00     0.028 C 
ATOM     10  C   LIG d   1       1.576  86.536 118.132  0.00  0.00     0.006 C 
ENDBRANCH   8   9
BRANCH   8  11
ATOM     11  C   LIG d   1       2.115  87.920 115.509  0.00  0.00     0.028 C 
ATOM     12  C   LIG d   1       2.917  89.095 114.928  0.00  0.00     0.006 C 
ENDBRANCH   8  11
ENDBRANCH   7   8
ENDBRANCH   1   7
BRANCH   6  13
ATOM     13  N   LIG d   1       2.088  91.562 118.455  0.00  0.00    -0.311 N 
ATOM     14  C   LIG d   1       3.252  91.738 117.832  0.00  0.00     0.210 C 
ATOM     15  C   LIG d   1       4.491  91.423 118.675  0.00  0.00     0.109 C 
ATOM     16  O   LIG d   1       3.376  92.156 116.670  0.00  0.00    -0.276 OA
ATOM     17  H   LIG d   1       2.081  91.252 119.407  0.00  0.00     0.149 HD
ENDBRANCH   6  13
BRANCH   5  18
ATOM     18  N   LIG d   1       0.347  94.037 118.880  0.00  0.00     0.381 N 
ATOM     19  H   LIG d   1      -0.418  94.678 118.949  0.00  0.00    -0.090 HD
ATOM     20  H   LIG d   1       0.907  94.296 118.087  0.00  0.00    -0.090 HD
ATOM     21  H   LIG d   1       0.897  94.074 119.711  0.00  0.00    -0.090 HD
ENDBRANCH   5  18
BRANCH   3  22
ATOM     22  C   LIG d   1      -3.442  91.413 117.576  0.00  0.00     0.382 C 
ATOM     23  O   LIG d   1      -4.153  92.380 117.210  0.00  0.00    -0.241 OA
ATOM     24  O   LIG d   1      -3.987  90.357 117.948  0.00  0.00    -0.241 OA
ENDBRANCH   3  22
TORSDOF 7
ENDMDL
