MODEL 1
REMARK VINA RESULT:      -5.2      0.000      0.000
REMARK  7 active torsions:
REMARK  status: ('A' for Active; 'I' for Inactive)
REMARK    1  A    between atoms: C_2  and  C_3 
REMARK    2  A    between atoms: C_3  and  O_6 
REMARK    3  A    between atoms: C_3  and  C_4 
REMARK    4  A    between atoms: C_7  and  O_6 
REMARK    5  A    between atoms: C_9  and  C_10 
REMARK    6  A    between atoms: N_15  and  C_14 
REMARK    7  A    between atoms: N_20  and  C_19 
REMARK       I    between atoms: C_22  and  N_20 
ROOT
ATOM      1  C   LIG d   1      -5.312  93.423 118.575  0.00  0.00     0.161 C 
ATOM      2  C   LIG d   1      -5.603  94.608 119.271  0.00  0.00     0.016 C 
ATOM      3  C   LIG d   1      -6.767  95.378 119.044  0.00  0.00     0.038 C 
ATOM      4  C   LIG d   1      -7.800  94.931 118.206  0.00  0.00     0.028 C 
ATOM      5  C   LIG d   1      -7.321  93.993 117.103  0.00  0.00    -0.047 C 
ATOM      6  C   LIG d   1      -6.480  92.862 117.736  0.00  0.00     0.091 C 
ENDROOT
BRANCH   1   7
ATOM      7  O   LIG d   1      -4.829  92.423 119.493  0.00  0.00    -0.368 OA
BRANCH   7   8
ATOM      8  C   LIG d   1      -3.394  92.220 119.518  0.00  0.00     0.119 C 
BRANCH   8   9
ATOM      9  C   LIG d   1      -2.842  92.648 118.145  0.00  0.00     0.028 C 
ATOM     10  C   LIG d   1      -1.716  93.688 118.263  0.00  0.00     0.006 C 
ENDBRANCH   8   9
BRANCH   8  11
ATOM     11  C   LIG d   1      -3.043  90.735 119.652  0.00  0.00     0.028 C 
ATOM     12  C   LIG d   1      -3.489  89.906 118.438  0.00  0.00     0.006 C 
ENDBRANCH   8  11
ENDBRANCH   7   8
ENDBRANCH   1   7
BRANCH   6  13
ATOM     13  N   LIG d   1      -5.902  91.946 116.718  0.00  0.00    -0.311 N 
ATOM     14  C   LIG d   1      -6.505  90.831 116.309  0.00  0.00     0.210 C 
ATOM     15  C   LIG d   1      -5.728  90.021 115.267  0.00  0.00     0.109 C 
ATOM     16  O   LIG d   1      -7.624  90.452 116.688  0.00  0.00    -0.276 OA
ATOM     17  H   LIG d   1      -5.011  92.194 116.335  0.00  0.00     0.149 HD
ENDBRANCH   6  13
BRANCH   5  18
ATOM     18  N   LIG d   1      -8.514  93.497 116.391  0.00  0.00     0.381 N 
ATOM     19  H   LIG d   1      -9.048  94.269 116.046  0.00  0.00    -0.090 HD
ATOM     20  H   LIG d   1      -9.087  92.981 117.037  0.00  0.00    -0.090 HD
ATOM     21  H   LIG d   1      -8.241  92.908 115.635  0.00  0.00    -0.090 HD
ENDBRANCH   5  18
BRANCH   3  22
ATOM     22  C   LIG d   1      -6.889  96.629 119.629  0.00  0.00     0.382 C 
ATOM     23  O   LIG d   1      -8.025  97.125 119.819  0.00  0.00    -0.241 OA
ATOM     24  O   LIG d   1      -5.874  97.287 119.929  0.00  0.00    -0.241 OA
ENDBRANCH   3  22
TORSDOF 7
ENDMDL
MODEL 2
REMARK VINA RESULT:      -4.9      1.942      2.481
REMARK  7 active torsions:
REMARK  status: ('A' for Active; 'I' for Inactive)
REMARK    1  A    between atoms: C_2  and  C_3 
REMARK    2  A    between atoms: C_3  and  O_6 
REMARK    3  A    between atoms: C_3  and  C_4 
REMARK    4  A    between atoms: C_7  and  O_6 
REMARK    5  A    between atoms: C_9  and  C_10 
REMARK    6  A    between atoms: N_15  and  C_14 
REMARK    7  A    between atoms: N_20  and  C_19 
REMARK       I    between atoms: C_22  and  N_20 
ROOT
ATOM      1  C   LIG d   1      -4.375  91.924 117.549  0.00  0.00     0.161 C 
ATOM      2  C   LIG d   1      -3.820  92.991 118.275  0.00  0.00     0.016 C 
ATOM      3  C   LIG d   1      -4.594  93.912 119.019  0.00  0.00     0.038 C 
ATOM      4  C   LIG d   1      -5.973  93.737 119.211  0.00  0.00     0.028 C 
ATOM      5  C   LIG d   1      -6.648  92.963 118.084  0.00  0.00    -0.047 C 
ATOM      6  C   LIG d   1      -5.866  91.652 117.838  0.00  0.00     0.091 C 
ENDROOT
BRANCH   1   7
ATOM      7  O   LIG d   1      -3.597  90.730 117.765  0.00  0.00    -0.368 OA
BRANCH   7   8
ATOM      8  C   LIG d   1      -2.433  90.873 118.616  0.00  0.00     0.119 C 
BRANCH   8   9
ATOM      9  C   LIG d   1      -1.203  90.442 117.794  0.00  0.00     0.028 C 
ATOM     10  C   LIG d   1      -0.188  91.584 117.616  0.00  0.00     0.006 C 
ENDBRANCH   8   9
BRANCH   8  11
ATOM     11  C   LIG d   1      -2.488  89.904 119.802  0.00  0.00     0.028 C 
ATOM     12  C   LIG d   1      -2.887  88.479 119.388  0.00  0.00     0.006 C 
ENDBRANCH   8  11
ENDBRANCH   7   8
ENDBRANCH   1   7
BRANCH   6  13
ATOM     13  N   LIG d   1      -6.410  90.874 116.694  0.00  0.00    -0.311 N 
ATOM     14  C   LIG d   1      -6.574  91.381 115.474  0.00  0.00     0.210 C 
ATOM     15  C   LIG d   1      -7.169  90.414 114.446  0.00  0.00     0.109 C 
ATOM     16  O   LIG d   1      -6.253  92.531 115.137  0.00  0.00    -0.276 OA
ATOM     17  H   LIG d   1      -6.668  89.922 116.871  0.00  0.00     0.149 HD
ENDBRANCH   6  13
BRANCH   5  18
ATOM     18  N   LIG d   1      -8.051  92.734 118.479  0.00  0.00     0.381 N 
ATOM     19  H   LIG d   1      -8.082  92.248 119.353  0.00  0.00    -0.090 HD
ATOM     20  H   LIG d   1      -8.494  92.160 117.783  0.00  0.00    -0.090 HD
ATOM     21  H   LIG d   1      -8.529  93.604 118.557  0.00  0.00    -0.090 HD
ENDBRANCH   5  18
BRANCH   3  22
ATOM     22  C   LIG d   1      -3.994  95.045 119.547  0.00  0.00     0.382 C 
ATOM     23  O   LIG d   1      -2.748  95.089 119.684  0.00  0.00    -0.241 OA
ATOM     24  O   LIG d   1      -4.687  96.007 119.929  0.00  0.00    -0.241 OA
ENDBRANCH   3  22
TORSDOF 7
ENDMDL
MODEL 3
REMARK VINA RESULT:      -4.9      2.315      5.774
REMARK  7 active torsions:
REMARK  status: ('A' for Active; 'I' for Inactive)
REMARK    1  A    between atoms: C_2  and  C_3 
REMARK    2  A    between atoms: C_3  and  O_6 
REMARK    3  A    between atoms: C_3  and  C_4 
REMARK    4  A    between atoms: C_7  and  O_6 
REMARK    5  A    between atoms: C_9  and  C_10 
REMARK    6  A    between atoms: N_15  and  C_14 
REMARK    7  A    between atoms: N_20  and  C_19 
REMARK       I    between atoms: C_22  and  N_20 
ROOT
ATOM      1  C   LIG d   1      -5.979  93.186 117.537  0.00  0.00     0.161 C 
ATOM      2  C   LIG d   1      -6.855  92.316 116.866  0.00  0.00     0.016 C 
ATOM      3  C   LIG d   1      -6.467  91.048 116.374  0.00  0.00     0.038 C 
ATOM      4  C   LIG d   1      -5.208  90.497 116.655  0.00  0.00     0.028 C 
ATOM      5  C   LIG d   1      -4.127  91.547 116.893  0.00  0.00    -0.047 C 
ATOM      6  C   LIG d   1      -4.632  92.556 117.950  0.00  0.00     0.091 C 
ENDROOT
BRANCH   1   7
ATOM      7  O   LIG d   1      -6.639  93.754 118.685  0.00  0.00    -0.368 OA
BRANCH   7   8
ATOM      8  C   LIG d   1      -7.746  94.647 118.407  0.00  0.00     0.119 C 
BRANCH   8   9
ATOM      9  C   LIG d   1      -7.152  96.024 118.054  0.00  0.00     0.028 C 
ATOM     10  C   LIG d   1      -6.319  96.617 119.203  0.00  0.00     0.006 C 
ENDBRANCH   8   9
BRANCH   8  11
ATOM     11  C   LIG d   1      -8.600  94.882 119.656  0.00  0.00     0.028 C 
ATOM     12  C   LIG d   1      -9.583  93.733 119.930  0.00  0.00     0.006 C 
ENDBRANCH   8  11
ENDBRANCH   7   8
ENDBRANCH   1   7
BRANCH   6  13
ATOM     13  N   LIG d   1      -3.669  93.664 118.180  0.00  0.00    -0.311 N 
ATOM     14  C   LIG d   1      -2.754  93.650 119.148  0.00  0.00     0.210 C 
ATOM     15  C   LIG d   1      -1.874  94.902 119.224  0.00  0.00     0.109 C 
ATOM     16  O   LIG d   1      -2.565  92.706 119.930  0.00  0.00    -0.276 OA
ATOM     17  H   LIG d   1      -3.731  94.456 117.571  0.00  0.00     0.149 HD
ENDBRANCH   6  13
BRANCH   5  18
ATOM     18  N   LIG d   1      -2.902  90.838 117.309  0.00  0.00     0.381 N 
ATOM     19  H   LIG d   1      -2.133  91.129 116.740  0.00  0.00    -0.090 HD
ATOM     20  H   LIG d   1      -3.037  89.851 117.178  0.00  0.00    -0.090 HD
ATOM     21  H   LIG d   1      -2.707  91.029 118.267  0.00  0.00    -0.090 HD
ENDBRANCH   5  18
BRANCH   3  22
ATOM     22  C   LIG d   1      -7.331  90.335 115.558  0.00  0.00     0.382 C 
ATOM     23  O   LIG d   1      -8.082  89.460 116.053  0.00  0.00    -0.241 OA
ATOM     24  O   LIG d   1      -7.338  90.524 114.327  0.00  0.00    -0.241 OA
ENDBRANCH   3  22
TORSDOF 7
ENDMDL
MODEL 4
REMARK VINA RESULT:      -4.8      8.642     11.297
REMARK  7 active torsions:
REMARK  status: ('A' for Active; 'I' for Inactive)
REMARK    1  A    between atoms: C_2  and  C_3 
REMARK    2  A    between atoms: C_3  and  O_6 
REMARK    3  A    between atoms: C_3  and  C_4 
REMARK    4  A    between atoms: C_7  and  O_6 
REMARK    5  A    between atoms: C_9  and  C_10 
REMARK    6  A    between atoms: N_15  and  C_14 
REMARK    7  A    between atoms: N_20  and  C_19 
REMARK       I    between atoms: C_22  and  N_20 
ROOT
ATOM      1  C   LIG d   1       3.360  88.439 116.039  0.00  0.00     0.161 C 
ATOM      2  C   LIG d   1       4.100  89.285 116.882  0.00  0.00     0.016 C 
ATOM      3  C   LIG d   1       5.386  89.776 116.558  0.00  0.00     0.038 C 
ATOM      4  C   LIG d   1       5.959  89.575 115.293  0.00  0.00     0.028 C 
ATOM      5  C   LIG d   1       5.468  88.309 114.600  0.00  0.00    -0.047 C 
ATOM      6  C   LIG d   1       3.922  88.300 114.609  0.00  0.00     0.091 C 
ENDROOT
BRANCH   1   7
ATOM      7  O   LIG d   1       1.986  88.872 115.998  0.00  0.00    -0.368 OA
BRANCH   7   8
ATOM      8  C   LIG d   1       1.378  89.184 117.275  0.00  0.00     0.119 C 
BRANCH   8   9
ATOM      9  C   LIG d   1       0.277  88.137 117.532  0.00  0.00     0.028 C 
ATOM     10  C   LIG d   1       0.756  86.994 118.443  0.00  0.00     0.006 C 
ENDBRANCH   8   9
BRANCH   8  11
ATOM     11  C   LIG d   1       0.652  90.533 117.231  0.00  0.00     0.028 C 
ATOM     12  C   LIG d   1      -0.826  90.427 117.639  0.00  0.00     0.006 C 
ENDBRANCH   8  11
ENDBRANCH   7   8
ENDBRANCH   1   7
BRANCH   6  13
ATOM     13  N   LIG d   1       3.359  87.054 114.024  0.00  0.00    -0.311 N 
ATOM     14  C   LIG d   1       2.483  87.046 113.021  0.00  0.00     0.210 C 
ATOM     15  C   LIG d   1       2.015  85.655 112.583  0.00  0.00     0.109 C 
ATOM     16  O   LIG d   1       2.074  88.057 112.431  0.00  0.00    -0.276 OA
ATOM     17  H   LIG d   1       3.661  86.187 114.422  0.00  0.00     0.149 HD
ENDBRANCH   6  13
BRANCH   5  18
ATOM     18  N   LIG d   1       6.038  88.295 113.240  0.00  0.00     0.381 N 
ATOM     19  H   LIG d   1       5.389  88.702 112.596  0.00  0.00    -0.090 HD
ATOM     20  H   LIG d   1       6.201  87.343 112.965  0.00  0.00    -0.090 HD
ATOM     21  H   LIG d   1       6.895  88.804 113.224  0.00  0.00    -0.090 HD
ENDBRANCH   5  18
BRANCH   3  22
ATOM     22  C   LIG d   1       6.129  90.444 117.519  0.00  0.00     0.382 C 
ATOM     23  O   LIG d   1       7.382  90.390 117.492  0.00  0.00    -0.241 OA
ATOM     24  O   LIG d   1       5.562  91.063 118.439  0.00  0.00    -0.241 OA
ENDBRANCH   3  22
TORSDOF 7
ENDMDL
MODEL 5
REMARK VINA RESULT:      -4.7      9.816     12.300
REMARK  7 active torsions:
REMARK  status: ('A' for Active; 'I' for Inactive)
REMARK    1  A    between atoms: C_2  and  C_3 
REMARK    2  A    between atoms: C_3  and  O_6 
REMARK    3  A    between atoms: C_3  and  C_4 
REMARK    4  A    between atoms: C_7  and  O_6 
REMARK    5  A    between atoms: C_9  and  C_10 
REMARK    6  A    between atoms: N_15  and  C_14 
REMARK    7  A    between atoms: N_20  and  C_19 
REMARK       I    between atoms: C_22  and  N_20 
ROOT
ATOM      1  C   LIG d   1       3.714  88.360 115.917  0.00  0.00     0.161 C 
ATOM      2  C   LIG d   1       2.873  87.657 115.039  0.00  0.00     0.016 C 
ATOM      3  C   LIG d   1       3.172  87.451 113.673  0.00  0.00     0.038 C 
ATOM      4  C   LIG d   1       4.412  87.808 113.123  0.00  0.00     0.028 C 
ATOM      5  C   LIG d   1       5.085  88.968 113.848  0.00  0.00    -0.047 C 
ATOM      6  C   LIG d   1       5.123  88.660 115.363  0.00  0.00     0.091 C 
ENDROOT
BRANCH   1   7
ATOM      7  O   LIG d   1       3.809  87.657 117.172  0.00  0.00    -0.368 OA
BRANCH   7   8
ATOM      8  C   LIG d   1       3.134  88.268 118.298  0.00  0.00     0.119 C 
BRANCH   8   9
ATOM      9  C   LIG d   1       1.869  87.436 118.587  0.00  0.00     0.028 C 
ATOM     10  C   LIG d   1       0.608  88.047 117.952  0.00  0.00     0.006 C 
ENDBRANCH   8   9
BRANCH   8  11
ATOM     11  C   LIG d   1       2.626  89.670 117.949  0.00  0.00     0.028 C 
ATOM     12  C   LIG d   1       3.292  90.771 118.790  0.00  0.00     0.006 C 
ENDBRANCH   8  11
ENDBRANCH   7   8
ENDBRANCH   1   7
BRANCH   6  13
ATOM     13  N   LIG d   1       5.689  89.782 116.156  0.00  0.00    -0.311 N 
ATOM     14  C   LIG d   1       6.658  89.627 117.056  0.00  0.00     0.210 C 
ATOM     15  C   LIG d   1       7.083  90.911 117.776  0.00  0.00     0.109 C 
ATOM     16  O   LIG d   1       7.229  88.554 117.303  0.00  0.00    -0.276 OA
ATOM     17  H   LIG d   1       5.305  90.693 115.996  0.00  0.00     0.149 HD
ENDBRANCH   6  13
BRANCH   5  18
ATOM     18  N   LIG d   1       6.426  89.144 113.260  0.00  0.00     0.381 N 
ATOM     19  H   LIG d   1       6.999  89.684 113.878  0.00  0.00    -0.090 HD
ATOM     20  H   LIG d   1       6.338  89.644 112.394  0.00  0.00    -0.090 HD
ATOM     21  H   LIG d   1       6.846  88.255 113.098  0.00  0.00    -0.090 HD
ENDBRANCH   5  18
BRANCH   3  22
ATOM     22  C   LIG d   1       2.207  86.919 112.831  0.00  0.00     0.382 C 
ATOM     23  O   LIG d   1       2.310  85.734 112.430  0.00  0.00    -0.241 OA
ATOM     24  O   LIG d   1       1.259  87.621 112.432  0.00  0.00    -0.241 OA
ENDBRANCH   3  22
TORSDOF 7
ENDMDL
MODEL 6
REMARK VINA RESULT:      -4.6      2.299      5.741
REMARK  7 active torsions:
REMARK  status: ('A' for Active; 'I' for Inactive)
REMARK    1  A    between atoms: C_2  and  C_3 
REMARK    2  A    between atoms: C_3  and  O_6 
REMARK    3  A    between atoms: C_3  and  C_4 
REMARK    4  A    between atoms: C_7  and  O_6 
REMARK    5  A    between atoms: C_9  and  C_10 
REMARK    6  A    between atoms: N_15  and  C_14 
REMARK    7  A    between atoms: N_20  and  C_19 
REMARK       I    between atoms: C_22  and  N_20 
ROOT
ATOM      1  C   LIG d   1      -5.840  93.104 116.930  0.00  0.00     0.161 C 
ATOM      2  C   LIG d   1      -6.778  92.195 116.414  0.00  0.00     0.016 C 
ATOM      3  C   LIG d   1      -6.529  90.809 116.283  0.00  0.00     0.038 C 
ATOM      4  C   LIG d   1      -5.371  90.212 116.803  0.00  0.00     0.028 C 
ATOM      5  C   LIG d   1      -4.180  91.162 116.876  0.00  0.00    -0.047 C 
ATOM      6  C   LIG d   1      -4.614  92.454 117.605  0.00  0.00     0.091 C 
ENDROOT
BRANCH   1   7
ATOM      7  O   LIG d   1      -6.490  94.013 117.840  0.00  0.00    -0.368 OA
BRANCH   7   8
ATOM      8  C   LIG d   1      -6.253  93.781 119.251  0.00  0.00     0.119 C 
BRANCH   8   9
ATOM      9  C   LIG d   1      -7.626  93.607 119.929  0.00  0.00     0.028 C 
ATOM     10  C   LIG d   1      -8.791  93.988 119.000  0.00  0.00     0.006 C 
ENDBRANCH   8   9
BRANCH   8  11
ATOM     11  C   LIG d   1      -5.623  95.006 119.919  0.00  0.00     0.028 C 
ATOM     12  C   LIG d   1      -6.127  96.332 119.328  0.00  0.00     0.006 C 
ENDBRANCH   8  11
ENDBRANCH   7   8
ENDBRANCH   1   7
BRANCH   6  13
ATOM     13  N   LIG d   1      -3.532  93.472 117.646  0.00  0.00    -0.311 N 
ATOM     14  C   LIG d   1      -2.645  93.560 118.637  0.00  0.00     0.210 C 
ATOM     15  C   LIG d   1      -1.626  94.694 118.493  0.00  0.00     0.109 C 
ATOM     16  O   LIG d   1      -2.587  92.787 119.604  0.00  0.00    -0.276 OA
ATOM     17  H   LIG d   1      -3.486  94.121 116.885  0.00  0.00     0.149 HD
ENDBRANCH   6  13
BRANCH   5  18
ATOM     18  N   LIG d   1      -3.085  90.451 117.563  0.00  0.00     0.381 N 
ATOM     19  H   LIG d   1      -3.406  89.558 117.878  0.00  0.00    -0.090 HD
ATOM     20  H   LIG d   1      -2.802  90.986 118.365  0.00  0.00    -0.090 HD
ATOM     21  H   LIG d   1      -2.313  90.335 116.943  0.00  0.00    -0.090 HD
ENDBRANCH   5  18
BRANCH   3  22
ATOM     22  C   LIG d   1      -7.426  90.012 115.589  0.00  0.00     0.382 C 
ATOM     23  O   LIG d   1      -7.325  89.890 114.345  0.00  0.00    -0.241 OA
ATOM     24  O   LIG d   1      -8.363  89.449 116.186  0.00  0.00    -0.241 OA
ENDBRANCH   3  22
TORSDOF 7
ENDMDL
MODEL 7
REMARK VINA RESULT:      -4.5      8.274     11.451
REMARK  7 active torsions:
REMARK  status: ('A' for Active; 'I' for Inactive)
REMARK    1  A    between atoms: C_2  and  C_3 
REMARK    2  A    between atoms: C_3  and  O_6 
REMARK    3  A    between atoms: C_3  and  C_4 
REMARK    4  A    between atoms: C_7  and  O_6 
REMARK    5  A    between atoms: C_9  and  C_10 
REMARK    6  A    between atoms: N_15  and  C_14 
REMARK    7  A    between atoms: N_20  and  C_19 
REMARK       I    between atoms: C_22  and  N_20 
ROOT
ATOM      1  C   LIG d   1       3.034  89.087 116.564  0.00  0.00     0.161 C 
ATOM      2  C   LIG d   1       2.831  88.533 115.288  0.00  0.00     0.016 C 
ATOM      3  C   LIG d   1       3.887  88.123 114.442  0.00  0.00     0.038 C 
ATOM      4  C   LIG d   1       5.220  88.099 114.877  0.00  0.00     0.028 C 
ATOM      5  C   LIG d   1       5.519  89.120 115.970  0.00  0.00    -0.047 C 
ATOM      6  C   LIG d   1       4.475  88.965 117.100  0.00  0.00     0.091 C 
ENDROOT
BRANCH   1   7
ATOM      7  O   LIG d   1       2.101  88.511 117.499  0.00  0.00    -0.368 OA
BRANCH   7   8
ATOM      8  C   LIG d   1       0.778  89.102 117.525  0.00  0.00     0.119 C 
BRANCH   8   9
ATOM      9  C   LIG d   1       0.868  90.404 118.344  0.00  0.00     0.028 C 
ATOM     10  C   LIG d   1       0.595  91.654 117.491  0.00  0.00     0.006 C 
ENDBRANCH   8   9
BRANCH   8  11
ATOM     11  C   LIG d   1      -0.214  88.214 118.282  0.00  0.00     0.028 C 
ATOM     12  C   LIG d   1      -1.561  88.909 118.537  0.00  0.00     0.006 C 
ENDBRANCH   8  11
ENDBRANCH   7   8
ENDBRANCH   1   7
BRANCH   6  13
ATOM     13  N   LIG d   1       4.644  89.982 118.171  0.00  0.00    -0.311 N 
ATOM     14  C   LIG d   1       4.463  91.287 117.977  0.00  0.00     0.210 C 
ATOM     15  C   LIG d   1       4.708  92.164 119.209  0.00  0.00     0.109 C 
ATOM     16  O   LIG d   1       4.091  91.799 116.911  0.00  0.00    -0.276 OA
ATOM     17  H   LIG d   1       4.915  89.651 119.076  0.00  0.00     0.149 HD
ENDBRANCH   6  13
BRANCH   5  18
ATOM     18  N   LIG d   1       6.903  88.892 116.427  0.00  0.00     0.381 N 
ATOM     19  H   LIG d   1       6.937  88.905 117.426  0.00  0.00    -0.090 HD
ATOM     20  H   LIG d   1       7.485  89.634 116.082  0.00  0.00    -0.090 HD
ATOM     21  H   LIG d   1       7.234  88.015 116.087  0.00  0.00    -0.090 HD
ENDBRANCH   5  18
BRANCH   3  22
ATOM     22  C   LIG d   1       3.617  87.769 113.129  0.00  0.00     0.382 C 
ATOM     23  O   LIG d   1       4.506  87.225 112.430  0.00  0.00    -0.241 OA
ATOM     24  O   LIG d   1       2.509  88.026 112.620  0.00  0.00    -0.241 OA
ENDBRANCH   3  22
TORSDOF 7
ENDMDL
MODEL 8
REMARK VINA RESULT:      -4.4      8.321     11.479
REMARK  7 active torsions:
REMARK  status: ('A' for Active; 'I' for Inactive)
REMARK    1  A    between atoms: C_2  and  C_3 
REMARK    2  A    between atoms: C_3  and  O_6 
REMARK    3  A    between atoms: C_3  and  C_4 
REMARK    4  A    between atoms: C_7  and  O_6 
REMARK    5  A    between atoms: C_9  and  C_10 
REMARK    6  A    between atoms: N_15  and  C_14 
REMARK    7  A    between atoms: N_20  and  C_19 
REMARK       I    between atoms: C_22  and  N_20 
ROOT
ATOM      1  C   LIG d   1       2.908  88.923 116.539  0.00  0.00     0.161 C 
ATOM      2  C   LIG d   1       2.677  88.367 115.270  0.00  0.00     0.016 C 
ATOM      3  C   LIG d   1       3.713  88.019 114.373  0.00  0.00     0.038 C 
ATOM      4  C   LIG d   1       5.065  88.064 114.748  0.00  0.00     0.028 C 
ATOM      5  C   LIG d   1       5.358  89.092 115.835  0.00  0.00    -0.047 C 
ATOM      6  C   LIG d   1       4.377  88.876 117.009  0.00  0.00     0.091 C 
ENDROOT
BRANCH   1   7
ATOM      7  O   LIG d   1       2.050  88.293 117.512  0.00  0.00    -0.368 OA
BRANCH   7   8
ATOM      8  C   LIG d   1       1.011  89.128 118.080  0.00  0.00     0.119 C 
BRANCH   8   9
ATOM      9  C   LIG d   1      -0.332  88.402 117.869  0.00  0.00     0.028 C 
ATOM     10  C   LIG d   1      -1.055  88.107 119.194  0.00  0.00     0.006 C 
ENDBRANCH   8   9
BRANCH   8  11
ATOM     11  C   LIG d   1       0.881  90.451 117.320  0.00  0.00     0.028 C 
ATOM     12  C   LIG d   1       0.659  91.653 118.252  0.00  0.00     0.006 C 
ENDBRANCH   8  11
ENDBRANCH   7   8
ENDBRANCH   1   7
BRANCH   6  13
ATOM     13  N   LIG d   1       4.540  89.894 118.079  0.00  0.00    -0.311 N 
ATOM     14  C   LIG d   1       4.389  91.202 117.876  0.00  0.00     0.210 C 
ATOM     15  C   LIG d   1       4.622  92.079 119.110  0.00  0.00     0.109 C 
ATOM     16  O   LIG d   1       4.053  91.716 116.799  0.00  0.00    -0.276 OA
ATOM     17  H   LIG d   1       4.782  89.562 118.992  0.00  0.00     0.149 HD
ENDBRANCH   6  13
BRANCH   5  18
ATOM     18  N   LIG d   1       6.772  88.936 116.226  0.00  0.00     0.381 N 
ATOM     19  H   LIG d   1       6.858  88.199 116.897  0.00  0.00    -0.090 HD
ATOM     20  H   LIG d   1       7.087  89.790 116.653  0.00  0.00    -0.090 HD
ATOM     21  H   LIG d   1       7.327  88.732 115.424  0.00  0.00    -0.090 HD
ENDBRANCH   5  18
BRANCH   3  22
ATOM     22  C   LIG d   1       3.403  87.658 113.071  0.00  0.00     0.382 C 
ATOM     23  O   LIG d   1       2.337  88.062 112.546  0.00  0.00    -0.241 OA
ATOM     24  O   LIG d   1       4.153  86.898 112.430  0.00  0.00    -0.241 OA
ENDBRANCH   3  22
TORSDOF 7
ENDMDL
MODEL 9
REMARK VINA RESULT:      -4.3      8.766     11.422
REMARK  7 active torsions:
REMARK  status: ('A' for Active; 'I' for Inactive)
REMARK    1  A    between atoms: C_2  and  C_3 
REMARK    2  A    between atoms: C_3  and  O_6 
REMARK    3  A    between atoms: C_3  and  C_4 
REMARK    4  A    between atoms: C_7  and  O_6 
REMARK    5  A    between atoms: C_9  and  C_10 
REMARK    6  A    between atoms: N_15  and  C_14 
REMARK    7  A    between atoms: N_20  and  C_19 
REMARK       I    between atoms: C_22  and  N_20 
ROOT
ATOM      1  C   LIG d   1       3.734  88.553 116.915  0.00  0.00     0.161 C 
ATOM      2  C   LIG d   1       2.452  89.114 116.790  0.00  0.00     0.016 C 
ATOM      3  C   LIG d   1       2.140  90.438 117.178  0.00  0.00     0.038 C 
ATOM      4  C   LIG d   1       3.132  91.345 117.580  0.00  0.00     0.028 C 
ATOM      5  C   LIG d   1       4.352  90.673 118.201  0.00  0.00    -0.047 C 
ATOM      6  C   LIG d   1       4.852  89.563 117.248  0.00  0.00     0.091 C 
ENDROOT
BRANCH   1   7
ATOM      7  O   LIG d   1       4.063  87.816 115.721  0.00  0.00    -0.368 OA
BRANCH   7   8
ATOM      8  C   LIG d   1       3.554  88.357 114.477  0.00  0.00     0.119 C 
BRANCH   8   9
ATOM      9  C   LIG d   1       3.069  87.172 113.621  0.00  0.00     0.028 C 
ATOM     10  C   LIG d   1       2.104  86.251 114.387  0.00  0.00     0.006 C 
ENDBRANCH   8   9
BRANCH   8  11
ATOM     11  C   LIG d   1       4.668  89.019 113.660  0.00  0.00     0.028 C 
ATOM     12  C   LIG d   1       5.738  88.019 113.193  0.00  0.00     0.006 C 
ENDBRANCH   8  11
ENDBRANCH   7   8
ENDBRANCH   1   7
BRANCH   6  13
ATOM     13  N   LIG d   1       5.993  88.799 117.818  0.00  0.00    -0.311 N 
ATOM     14  C   LIG d   1       7.267  89.143 117.640  0.00  0.00     0.210 C 
ATOM     15  C   LIG d   1       8.287  88.207 118.296  0.00  0.00     0.109 C 
ATOM     16  O   LIG d   1       7.648  90.152 117.029  0.00  0.00    -0.276 OA
ATOM     17  H   LIG d   1       5.773  87.982 118.354  0.00  0.00     0.149 HD
ENDBRANCH   6  13
BRANCH   5  18
ATOM     18  N   LIG d   1       5.361  91.721 118.447  0.00  0.00     0.381 N 
ATOM     19  H   LIG d   1       5.067  92.302 119.206  0.00  0.00    -0.090 HD
ATOM     20  H   LIG d   1       5.443  92.293 117.625  0.00  0.00    -0.090 HD
ATOM     21  H   LIG d   1       6.240  91.304 118.660  0.00  0.00    -0.090 HD
ENDBRANCH   5  18
BRANCH   3  22
ATOM     22  C   LIG d   1       0.818  90.853 117.203  0.00  0.00     0.382 C 
ATOM     23  O   LIG d   1      -0.106  90.011 117.095  0.00  0.00    -0.241 OA
ATOM     24  O   LIG d   1       0.538  92.064 117.289  0.00  0.00    -0.241 OA
ENDBRANCH   3  22
TORSDOF 7
ENDMDL
