MODEL 1
REMARK VINA RESULT:      -5.4      0.000      0.000
REMARK  7 active torsions:
REMARK  status: ('A' for Active; 'I' for Inactive)
REMARK    1  A    between atoms: C_2  and  C_3 
REMARK    2  A    between atoms: C_3  and  O_6 
REMARK    3  A    between atoms: C_3  and  C_4 
REMARK    4  A    between atoms: C_7  and  O_6 
REMARK    5  A    between atoms: C_9  and  C_10 
REMARK    6  A    between atoms: N_15  and  C_14 
REMARK    7  A    between atoms: N_20  and  C_19 
REMARK       I    between atoms: C_22  and  N_20 
ROOT
ATOM      1  C   LIG d   1      -5.653  92.380 117.422  0.00  0.00     0.161 C 
ATOM      2  C   LIG d   1      -6.690  93.316 117.569  0.00  0.00     0.016 C 
ATOM      3  C   LIG d   1      -6.610  94.439 118.423  0.00  0.00     0.038 C 
ATOM      4  C   LIG d   1      -5.420  94.788 119.079  0.00  0.00     0.028 C 
ATOM      5  C   LIG d   1      -4.509  93.597 119.356  0.00  0.00    -0.047 C 
ATOM      6  C   LIG d   1      -4.306  92.805 118.044  0.00  0.00     0.091 C 
ENDROOT
BRANCH   1   7
ATOM      7  O   LIG d   1      -5.481  92.056 116.028  0.00  0.00    -0.368 OA
BRANCH   7   8
ATOM      8  C   LIG d   1      -5.773  90.688 115.651  0.00  0.00     0.119 C 
BRANCH   8   9
ATOM      9  C   LIG d   1      -6.709  90.735 114.428  0.00  0.00     0.028 C 
ATOM     10  C   LIG d   1      -7.039  92.174 113.996  0.00  0.00     0.006 C 
ENDBRANCH   8   9
BRANCH   8  11
ATOM     11  C   LIG d   1      -6.568  89.967 116.743  0.00  0.00     0.028 C 
ATOM     12  C   LIG d   1      -7.969  89.541 116.276  0.00  0.00     0.006 C 
ENDBRANCH   8  11
ENDBRANCH   7   8
ENDBRANCH   1   7
BRANCH   6  13
ATOM     13  N   LIG d   1      -3.495  91.576 118.244  0.00  0.00    -0.311 N 
ATOM     14  C   LIG d   1      -2.172  91.538 118.095  0.00  0.00     0.210 C 
ATOM     15  C   LIG d   1      -1.535  90.165 118.329  0.00  0.00     0.109 C 
ATOM     16  O   LIG d   1      -1.463  92.518 117.822  0.00  0.00    -0.276 OA
ATOM     17  H   LIG d   1      -3.987  90.741 118.498  0.00  0.00     0.149 HD
ENDBRANCH   6  13
BRANCH   5  18
ATOM     18  N   LIG d   1      -3.249  94.120 119.917  0.00  0.00     0.381 N 
ATOM     19  H   LIG d   1      -2.485  93.543 119.628  0.00  0.00    -0.090 HD
ATOM     20  H   LIG d   1      -3.304  94.094 120.920  0.00  0.00    -0.090 HD
ATOM     21  H   LIG d   1      -3.102  95.057 119.609  0.00  0.00    -0.090 HD
ENDBRANCH   5  18
BRANCH   3  22
ATOM     22  C   LIG d   1      -7.742  95.205 118.660  0.00  0.00     0.382 C 
ATOM     23  O   LIG d   1      -8.805  94.960 118.041  0.00  0.00    -0.241 OA
ATOM     24  O   LIG d   1      -7.700  96.166 119.451  0.00  0.00    -0.241 OA
ENDBRANCH   3  22
TORSDOF 7
ENDMDL
MODEL 2
REMARK VINA RESULT:      -5.3      1.580      4.979
REMARK  7 active torsions:
REMARK  status: ('A' for Active; 'I' for Inactive)
REMARK    1  A    between atoms: C_2  and  C_3 
REMARK    2  A    between atoms: C_3  and  O_6 
REMARK    3  A    between atoms: C_3  and  C_4 
REMARK    4  A    between atoms: C_7  and  O_6 
REMARK    5  A    between atoms: C_9  and  C_10 
REMARK    6  A    between atoms: N_15  and  C_14 
REMARK    7  A    between atoms: N_20  and  C_19 
REMARK       I    between atoms: C_22  and  N_20 
ROOT
ATOM      1  C   LIG d   1      -4.665  91.790 117.329  0.00  0.00     0.161 C 
ATOM      2  C   LIG d   1      -3.543  90.953 117.213  0.00  0.00     0.016 C 
ATOM      3  C   LIG d   1      -2.345  91.154 117.937  0.00  0.00     0.038 C 
ATOM      4  C   LIG d   1      -2.241  92.124 118.944  0.00  0.00     0.028 C 
ATOM      5  C   LIG d   1      -3.175  93.312 118.740  0.00  0.00    -0.047 C 
ATOM      6  C   LIG d   1      -4.610  92.788 118.504  0.00  0.00     0.091 C 
ENDROOT
BRANCH   1   7
ATOM      7  O   LIG d   1      -5.864  90.993 117.404  0.00  0.00    -0.368 OA
BRANCH   7   8
ATOM      8  C   LIG d   1      -6.854  91.233 116.374  0.00  0.00     0.119 C 
BRANCH   8   9
ATOM      9  C   LIG d   1      -7.213  89.869 115.752  0.00  0.00     0.028 C 
ATOM     10  C   LIG d   1      -8.509  89.281 116.336  0.00  0.00     0.006 C 
ENDBRANCH   8   9
BRANCH   8  11
ATOM     11  C   LIG d   1      -6.273  92.062 115.225  0.00  0.00     0.028 C 
ATOM     12  C   LIG d   1      -7.094  91.943 113.930  0.00  0.00     0.006 C 
ENDBRANCH   8  11
ENDBRANCH   7   8
ENDBRANCH   1   7
BRANCH   6  13
ATOM     13  N   LIG d   1      -5.572  93.882 118.212  0.00  0.00    -0.311 N 
ATOM     14  C   LIG d   1      -6.769  93.979 118.788  0.00  0.00     0.210 C 
ATOM     15  C   LIG d   1      -7.612  95.173 118.329  0.00  0.00     0.109 C 
ATOM     16  O   LIG d   1      -7.199  93.209 119.659  0.00  0.00    -0.276 OA
ATOM     17  H   LIG d   1      -5.291  94.569 117.539  0.00  0.00     0.149 HD
ENDBRANCH   6  13
BRANCH   5  18
ATOM     18  N   LIG d   1      -3.063  94.177 119.930  0.00  0.00     0.381 N 
ATOM     19  H   LIG d   1      -2.557  93.700 120.649  0.00  0.00    -0.090 HD
ATOM     20  H   LIG d   1      -3.985  94.378 120.273  0.00  0.00    -0.090 HD
ATOM     21  H   LIG d   1      -2.597  95.025 119.692  0.00  0.00    -0.090 HD
ENDBRANCH   5  18
BRANCH   3  22
ATOM     22  C   LIG d   1      -1.221  90.404 117.626  0.00  0.00     0.382 C 
ATOM     23  O   LIG d   1      -0.208  90.963 117.142  0.00  0.00    -0.241 OA
ATOM     24  O   LIG d   1      -1.223  89.168 117.783  0.00  0.00    -0.241 OA
ENDBRANCH   3  22
TORSDOF 7
ENDMDL
MODEL 3
REMARK VINA RESULT:      -5.2      2.342      4.856
REMARK  7 active torsions:
REMARK  status: ('A' for Active; 'I' for Inactive)
REMARK    1  A    between atoms: C_2  and  C_3 
REMARK    2  A    between atoms: C_3  and  O_6 
REMARK    3  A    between atoms: C_3  and  C_4 
REMARK    4  A    between atoms: C_7  and  O_6 
REMARK    5  A    between atoms: C_9  and  C_10 
REMARK    6  A    between atoms: N_15  and  C_14 
REMARK    7  A    between atoms: N_20  and  C_19 
REMARK       I    between atoms: C_22  and  N_20 
ROOT
ATOM      1  C   LIG d   1      -4.921  91.852 116.749  0.00  0.00     0.161 C 
ATOM      2  C   LIG d   1      -6.097  92.146 116.039  0.00  0.00     0.016 C 
ATOM      3  C   LIG d   1      -6.654  91.286 115.065  0.00  0.00     0.038 C 
ATOM      4  C   LIG d   1      -6.151  89.996 114.841  0.00  0.00     0.028 C 
ATOM      5  C   LIG d   1      -4.669  89.857 115.172  0.00  0.00    -0.047 C 
ATOM      6  C   LIG d   1      -4.421  90.400 116.598  0.00  0.00     0.091 C 
ENDROOT
BRANCH   1   7
ATOM      7  O   LIG d   1      -5.096  92.180 118.141  0.00  0.00    -0.368 OA
BRANCH   7   8
ATOM      8  C   LIG d   1      -4.561  93.457 118.568  0.00  0.00     0.119 C 
BRANCH   8   9
ATOM      9  C   LIG d   1      -3.382  93.171 119.518  0.00  0.00     0.028 C 
ATOM     10  C   LIG d   1      -2.020  93.479 118.874  0.00  0.00     0.006 C 
ENDBRANCH   8   9
BRANCH   8  11
ATOM     11  C   LIG d   1      -5.578  94.236 119.407  0.00  0.00     0.028 C 
ATOM     12  C   LIG d   1      -6.665  94.908 118.553  0.00  0.00     0.006 C 
ENDBRANCH   8  11
ENDBRANCH   7   8
ENDBRANCH   1   7
BRANCH   6  13
ATOM     13  N   LIG d   1      -2.982  90.380 116.970  0.00  0.00    -0.311 N 
ATOM     14  C   LIG d   1      -2.517  89.788 118.069  0.00  0.00     0.210 C 
ATOM     15  C   LIG d   1      -1.003  89.902 118.274  0.00  0.00     0.109 C 
ATOM     16  O   LIG d   1      -3.211  89.152 118.877  0.00  0.00    -0.276 OA
ATOM     17  H   LIG d   1      -2.345  90.845 116.354  0.00  0.00     0.149 HD
ENDBRANCH   6  13
BRANCH   5  18
ATOM     18  N   LIG d   1      -4.311  88.434 115.026  0.00  0.00     0.381 N 
ATOM     19  H   LIG d   1      -3.320  88.324 115.109  0.00  0.00    -0.090 HD
ATOM     20  H   LIG d   1      -4.587  88.122 114.111  0.00  0.00    -0.090 HD
ATOM     21  H   LIG d   1      -4.773  87.892 115.723  0.00  0.00    -0.090 HD
ENDBRANCH   5  18
BRANCH   3  22
ATOM     22  C   LIG d   1      -7.702  91.731 114.274  0.00  0.00     0.382 C 
ATOM     23  O   LIG d   1      -7.673  91.548 113.033  0.00  0.00    -0.241 OA
ATOM     24  O   LIG d   1      -8.656  92.352 114.780  0.00  0.00    -0.241 OA
ENDBRANCH   3  22
TORSDOF 7
ENDMDL
MODEL 4
REMARK VINA RESULT:      -4.9      2.907      5.244
REMARK  7 active torsions:
REMARK  status: ('A' for Active; 'I' for Inactive)
REMARK    1  A    between atoms: C_2  and  C_3 
REMARK    2  A    between atoms: C_3  and  O_6 
REMARK    3  A    between atoms: C_3  and  C_4 
REMARK    4  A    between atoms: C_7  and  O_6 
REMARK    5  A    between atoms: C_9  and  C_10 
REMARK    6  A    between atoms: N_15  and  C_14 
REMARK    7  A    between atoms: N_20  and  C_19 
REMARK       I    between atoms: C_22  and  N_20 
ROOT
ATOM      1  C   LIG d   1      -2.443  90.064 118.619  0.00  0.00     0.161 C 
ATOM      2  C   LIG d   1      -3.820  90.001 118.345  0.00  0.00     0.016 C 
ATOM      3  C   LIG d   1      -4.548  91.067 117.769  0.00  0.00     0.038 C 
ATOM      4  C   LIG d   1      -3.915  92.221 117.285  0.00  0.00     0.028 C 
ATOM      5  C   LIG d   1      -2.604  92.537 117.997  0.00  0.00    -0.047 C 
ATOM      6  C   LIG d   1      -1.715  91.273 117.995  0.00  0.00     0.091 C 
ENDROOT
BRANCH   1   7
ATOM      7  O   LIG d   1      -1.808  88.834 118.216  0.00  0.00    -0.368 OA
BRANCH   7   8
ATOM      8  C   LIG d   1      -0.935  88.218 119.194  0.00  0.00     0.119 C 
BRANCH   8   9
ATOM      9  C   LIG d   1       0.224  87.554 118.426  0.00  0.00     0.028 C 
ATOM     10  C   LIG d   1       0.437  88.173 117.034  0.00  0.00     0.006 C 
ENDBRANCH   8   9
BRANCH   8  11
ATOM     11  C   LIG d   1      -1.642  87.075 119.929  0.00  0.00     0.028 C 
ATOM     12  C   LIG d   1      -0.832  85.768 119.918  0.00  0.00     0.006 C 
ENDBRANCH   8  11
ENDBRANCH   7   8
ENDBRANCH   1   7
BRANCH   6  13
ATOM     13  N   LIG d   1      -0.447  91.471 118.746  0.00  0.00    -0.311 N 
ATOM     14  C   LIG d   1       0.721  91.724 118.158  0.00  0.00     0.210 C 
ATOM     15  C   LIG d   1       1.907  91.874 119.116  0.00  0.00     0.109 C 
ATOM     16  O   LIG d   1       0.882  91.870 116.937  0.00  0.00    -0.276 OA
ATOM     17  H   LIG d   1      -0.492  91.400 119.744  0.00  0.00     0.149 HD
ENDBRANCH   6  13
BRANCH   5  18
ATOM     18  N   LIG d   1      -1.984  93.682 117.302  0.00  0.00     0.381 N 
ATOM     19  H   LIG d   1      -2.681  94.368 117.092  0.00  0.00    -0.090 HD
ATOM     20  H   LIG d   1      -1.586  93.360 116.438  0.00  0.00    -0.090 HD
ATOM     21  H   LIG d   1      -1.274  94.083 117.874  0.00  0.00    -0.090 HD
ENDBRANCH   5  18
BRANCH   3  22
ATOM     22  C   LIG d   1      -5.932  91.001 117.709  0.00  0.00     0.382 C 
ATOM     23  O   LIG d   1      -6.492  89.962 117.282  0.00  0.00    -0.241 OA
ATOM     24  O   LIG d   1      -6.626  91.982 118.035  0.00  0.00    -0.241 OA
ENDBRANCH   3  22
TORSDOF 7
ENDMDL
MODEL 5
REMARK VINA RESULT:      -4.9      1.581      2.052
REMARK  7 active torsions:
REMARK  status: ('A' for Active; 'I' for Inactive)
REMARK    1  A    between atoms: C_2  and  C_3 
REMARK    2  A    between atoms: C_3  and  O_6 
REMARK    3  A    between atoms: C_3  and  C_4 
REMARK    4  A    between atoms: C_7  and  O_6 
REMARK    5  A    between atoms: C_9  and  C_10 
REMARK    6  A    between atoms: N_15  and  C_14 
REMARK    7  A    between atoms: N_20  and  C_19 
REMARK       I    between atoms: C_22  and  N_20 
ROOT
ATOM      1  C   LIG d   1      -5.855  93.012 119.141  0.00  0.00     0.161 C 
ATOM      2  C   LIG d   1      -7.094  93.674 119.149  0.00  0.00     0.016 C 
ATOM      3  C   LIG d   1      -7.223  95.082 119.150  0.00  0.00     0.038 C 
ATOM      4  C   LIG d   1      -6.116  95.929 118.988  0.00  0.00     0.028 C 
ATOM      5  C   LIG d   1      -4.809  95.318 119.484  0.00  0.00    -0.047 C 
ATOM      6  C   LIG d   1      -4.639  93.917 118.852  0.00  0.00     0.091 C 
ENDROOT
BRANCH   1   7
ATOM      7  O   LIG d   1      -5.894  91.914 118.208  0.00  0.00    -0.368 OA
BRANCH   7   8
ATOM      8  C   LIG d   1      -5.523  92.225 116.842  0.00  0.00     0.119 C 
BRANCH   8   9
ATOM      9  C   LIG d   1      -6.811  92.201 115.996  0.00  0.00     0.028 C 
ATOM     10  C   LIG d   1      -6.528  91.955 114.504  0.00  0.00     0.006 C 
ENDBRANCH   8   9
BRANCH   8  11
ATOM     11  C   LIG d   1      -4.627  91.135 116.247  0.00  0.00     0.028 C 
ATOM     12  C   LIG d   1      -3.981  90.243 117.319  0.00  0.00     0.006 C 
ENDBRANCH   8  11
ENDBRANCH   7   8
ENDBRANCH   1   7
BRANCH   6  13
ATOM     13  N   LIG d   1      -3.427  93.215 119.350  0.00  0.00    -0.311 N 
ATOM     14  C   LIG d   1      -2.277  93.173 118.679  0.00  0.00     0.210 C 
ATOM     15  C   LIG d   1      -1.160  92.378 119.361  0.00  0.00     0.109 C 
ATOM     16  O   LIG d   1      -2.067  93.745 117.599  0.00  0.00    -0.276 OA
ATOM     17  H   LIG d   1      -3.500  92.750 120.233  0.00  0.00     0.149 HD
ENDBRANCH   6  13
BRANCH   5  18
ATOM     18  N   LIG d   1      -3.720  96.248 119.130  0.00  0.00     0.381 N 
ATOM     19  H   LIG d   1      -3.997  97.187 119.334  0.00  0.00    -0.090 HD
ATOM     20  H   LIG d   1      -3.542  96.179 118.143  0.00  0.00    -0.090 HD
ATOM     21  H   LIG d   1      -2.896  96.018 119.640  0.00  0.00    -0.090 HD
ENDBRANCH   5  18
BRANCH   3  22
ATOM     22  C   LIG d   1      -8.468  95.658 119.353  0.00  0.00     0.382 C 
ATOM     23  O   LIG d   1      -8.554  96.804 119.858  0.00  0.00    -0.241 OA
ATOM     24  O   LIG d   1      -9.507  95.028 119.080  0.00  0.00    -0.241 OA
ENDBRANCH   3  22
TORSDOF 7
ENDMDL
MODEL 6
REMARK VINA RESULT:      -4.6      2.619      4.306
REMARK  7 active torsions:
REMARK  status: ('A' for Active; 'I' for Inactive)
REMARK    1  A    between atoms: C_2  and  C_3 
REMARK    2  A    between atoms: C_3  and  O_6 
REMARK    3  A    between atoms: C_3  and  C_4 
REMARK    4  A    between atoms: C_7  and  O_6 
REMARK    5  A    between atoms: C_9  and  C_10 
REMARK    6  A    between atoms: N_15  and  C_14 
REMARK    7  A    between atoms: N_20  and  C_19 
REMARK       I    between atoms: C_22  and  N_20 
ROOT
ATOM      1  C   LIG d   1      -2.891  92.586 119.199  0.00  0.00     0.161 C 
ATOM      2  C   LIG d   1      -2.810  93.977 119.019  0.00  0.00     0.016 C 
ATOM      3  C   LIG d   1      -1.807  94.605 118.246  0.00  0.00     0.038 C 
ATOM      4  C   LIG d   1      -0.898  93.868 117.472  0.00  0.00     0.028 C 
ATOM      5  C   LIG d   1      -0.627  92.472 118.021  0.00  0.00    -0.047 C 
ATOM      6  C   LIG d   1      -1.976  91.760 118.272  0.00  0.00     0.091 C 
ENDROOT
BRANCH   1   7
ATOM      7  O   LIG d   1      -4.260  92.155 119.065  0.00  0.00    -0.368 OA
BRANCH   7   8
ATOM      8  C   LIG d   1      -5.050  92.844 118.065  0.00  0.00     0.119 C 
BRANCH   8   9
ATOM      9  C   LIG d   1      -6.428  93.141 118.688  0.00  0.00     0.028 C 
ATOM     10  C   LIG d   1      -6.881  94.591 118.446  0.00  0.00     0.006 C 
ENDBRANCH   8   9
BRANCH   8  11
ATOM     11  C   LIG d   1      -5.336  91.941 116.862  0.00  0.00     0.028 C 
ATOM     12  C   LIG d   1      -6.436  90.905 117.142  0.00  0.00     0.006 C 
ENDBRANCH   8  11
ENDBRANCH   7   8
ENDBRANCH   1   7
BRANCH   6  13
ATOM     13  N   LIG d   1      -1.803  90.419 118.889  0.00  0.00    -0.311 N 
ATOM     14  C   LIG d   1      -2.444  89.330 118.468  0.00  0.00     0.210 C 
ATOM     15  C   LIG d   1      -2.137  88.053 119.256  0.00  0.00     0.109 C 
ATOM     16  O   LIG d   1      -3.214  89.294 117.496  0.00  0.00    -0.276 OA
ATOM     17  H   LIG d   1      -1.173  90.351 119.664  0.00  0.00     0.149 HD
ENDBRANCH   6  13
BRANCH   5  18
ATOM     18  N   LIG d   1       0.227  91.767 117.046  0.00  0.00     0.381 N 
ATOM     19  H   LIG d   1       1.097  92.250 116.946  0.00  0.00    -0.090 HD
ATOM     20  H   LIG d   1      -0.235  91.763 116.153  0.00  0.00    -0.090 HD
ATOM     21  H   LIG d   1       0.390  90.832 117.348  0.00  0.00    -0.090 HD
ENDBRANCH   5  18
BRANCH   3  22
ATOM     22  C   LIG d   1      -1.680  95.985 118.275  0.00  0.00     0.382 C 
ATOM     23  O   LIG d   1      -2.061  96.629 119.282  0.00  0.00    -0.241 OA
ATOM     24  O   LIG d   1      -1.231  96.599 117.288  0.00  0.00    -0.241 OA
ENDBRANCH   3  22
TORSDOF 7
ENDMDL
MODEL 7
REMARK VINA RESULT:      -4.6      9.365     11.662
REMARK  7 active torsions:
REMARK  status: ('A' for Active; 'I' for Inactive)
REMARK    1  A    between atoms: C_2  and  C_3 
REMARK    2  A    between atoms: C_3  and  O_6 
REMARK    3  A    between atoms: C_3  and  C_4 
REMARK    4  A    between atoms: C_7  and  O_6 
REMARK    5  A    between atoms: C_9  and  C_10 
REMARK    6  A    between atoms: N_15  and  C_14 
REMARK    7  A    between atoms: N_20  and  C_19 
REMARK       I    between atoms: C_22  and  N_20 
ROOT
ATOM      1  C   LIG d   1       4.648  87.392 115.950  0.00  0.00     0.161 C 
ATOM      2  C   LIG d   1       3.633  88.363 115.936  0.00  0.00     0.016 C 
ATOM      3  C   LIG d   1       3.824  89.695 116.371  0.00  0.00     0.038 C 
ATOM      4  C   LIG d   1       5.092  90.189 116.710  0.00  0.00     0.028 C 
ATOM      5  C   LIG d   1       6.045  89.113 117.220  0.00  0.00    -0.047 C 
ATOM      6  C   LIG d   1       6.065  87.942 116.211  0.00  0.00     0.091 C 
ENDROOT
BRANCH   1   7
ATOM      7  O   LIG d   1       4.621  86.640 114.721  0.00  0.00    -0.368 OA
BRANCH   7   8
ATOM      8  C   LIG d   1       3.900  87.245 113.619  0.00  0.00     0.119 C 
BRANCH   8   9
ATOM      9  C   LIG d   1       3.060  86.138 112.953  0.00  0.00     0.028 C 
ATOM     10  C   LIG d   1       1.795  85.797 113.758  0.00  0.00     0.006 C 
ENDBRANCH   8   9
BRANCH   8  11
ATOM     11  C   LIG d   1       4.858  87.737 112.530  0.00  0.00     0.028 C 
ATOM     12  C   LIG d   1       5.463  89.114 112.848  0.00  0.00     0.006 C 
ENDBRANCH   8  11
ENDBRANCH   7   8
ENDBRANCH   1   7
BRANCH   6  13
ATOM     13  N   LIG d   1       6.909  86.809 116.675  0.00  0.00    -0.311 N 
ATOM     14  C   LIG d   1       8.200  86.686 116.374  0.00  0.00     0.210 C 
ATOM     15  C   LIG d   1       8.879  85.433 116.937  0.00  0.00     0.109 C 
ATOM     16  O   LIG d   1       8.857  87.512 115.722  0.00  0.00    -0.276 OA
ATOM     17  H   LIG d   1       6.464  86.110 117.236  0.00  0.00     0.149 HD
ENDBRANCH   6  13
BRANCH   5  18
ATOM     18  N   LIG d   1       7.367  89.741 117.404  0.00  0.00     0.381 N 
ATOM     19  H   LIG d   1       7.572  90.335 116.626  0.00  0.00    -0.090 HD
ATOM     20  H   LIG d   1       8.067  89.020 117.443  0.00  0.00    -0.090 HD
ATOM     21  H   LIG d   1       7.379  90.271 118.248  0.00  0.00    -0.090 HD
ENDBRANCH   5  18
BRANCH   3  22
ATOM     22  C   LIG d   1       2.730  90.536 116.508  0.00  0.00     0.382 C 
ATOM     23  O   LIG d   1       1.579  90.117 116.238  0.00  0.00    -0.241 OA
ATOM     24  O   LIG d   1       2.886  91.722 116.856  0.00  0.00    -0.241 OA
ENDBRANCH   3  22
TORSDOF 7
ENDMDL
MODEL 8
REMARK VINA RESULT:      -4.5      7.431     10.489
REMARK  7 active torsions:
REMARK  status: ('A' for Active; 'I' for Inactive)
REMARK    1  A    between atoms: C_2  and  C_3 
REMARK    2  A    between atoms: C_3  and  O_6 
REMARK    3  A    between atoms: C_3  and  C_4 
REMARK    4  A    between atoms: C_7  and  O_6 
REMARK    5  A    between atoms: C_9  and  C_10 
REMARK    6  A    between atoms: N_15  and  C_14 
REMARK    7  A    between atoms: N_20  and  C_19 
REMARK       I    between atoms: C_22  and  N_20 
ROOT
ATOM      1  C   LIG d   1       3.293  89.516 116.499  0.00  0.00     0.161 C 
ATOM      2  C   LIG d   1       3.089  88.985 115.215  0.00  0.00     0.016 C 
ATOM      3  C   LIG d   1       4.145  88.605 114.354  0.00  0.00     0.038 C 
ATOM      4  C   LIG d   1       5.481  88.588 114.781  0.00  0.00     0.028 C 
ATOM      5  C   LIG d   1       5.774  89.590 115.893  0.00  0.00    -0.047 C 
ATOM      6  C   LIG d   1       4.739  89.401 117.025  0.00  0.00     0.091 C 
ENDROOT
BRANCH   1   7
ATOM      7  O   LIG d   1       2.372  88.911 117.429  0.00  0.00    -0.368 OA
BRANCH   7   8
ATOM      8  C   LIG d   1       1.056  89.512 117.506  0.00  0.00     0.119 C 
BRANCH   8   9
ATOM      9  C   LIG d   1       0.978  90.286 118.836  0.00  0.00     0.028 C 
ATOM     10  C   LIG d   1       0.970  91.810 118.629  0.00  0.00     0.006 C 
ENDBRANCH   8   9
BRANCH   8  11
ATOM     11  C   LIG d   1      -0.040  88.446 117.592  0.00  0.00     0.028 C 
ATOM     12  C   LIG d   1      -1.410  89.030 117.969  0.00  0.00     0.006 C 
ENDBRANCH   8  11
ENDBRANCH   7   8
ENDBRANCH   1   7
BRANCH   6  13
ATOM     13  N   LIG d   1       4.902  90.398 118.115  0.00  0.00    -0.311 N 
ATOM     14  C   LIG d   1       4.609  91.690 117.975  0.00  0.00     0.210 C 
ATOM     15  C   LIG d   1       4.870  92.550 119.217  0.00  0.00     0.109 C 
ATOM     16  O   LIG d   1       4.129  92.200 116.952  0.00  0.00    -0.276 OA
ATOM     17  H   LIG d   1       5.257  90.065 118.989  0.00  0.00     0.149 HD
ENDBRANCH   6  13
BRANCH   5  18
ATOM     18  N   LIG d   1       7.163  89.370 116.336  0.00  0.00     0.381 N 
ATOM     19  H   LIG d   1       7.455  88.446 116.089  0.00  0.00    -0.090 HD
ATOM     20  H   LIG d   1       7.203  89.457 117.337  0.00  0.00    -0.090 HD
ATOM     21  H   LIG d   1       7.766  90.041 115.914  0.00  0.00    -0.090 HD
ENDBRANCH   5  18
BRANCH   3  22
ATOM     22  C   LIG d   1       3.871  88.273 113.036  0.00  0.00     0.382 C 
ATOM     23  O   LIG d   1       4.604  87.454 112.430  0.00  0.00    -0.241 OA
ATOM     24  O   LIG d   1       2.927  88.815 112.431  0.00  0.00    -0.241 OA
ENDBRANCH   3  22
TORSDOF 7
ENDMDL
MODEL 9
REMARK VINA RESULT:      -4.5      5.774      8.177
REMARK  7 active torsions:
REMARK  status: ('A' for Active; 'I' for Inactive)
REMARK    1  A    between atoms: C_2  and  C_3 
REMARK    2  A    between atoms: C_3  and  O_6 
REMARK    3  A    between atoms: C_3  and  C_4 
REMARK    4  A    between atoms: C_7  and  O_6 
REMARK    5  A    between atoms: C_9  and  C_10 
REMARK    6  A    between atoms: N_15  and  C_14 
REMARK    7  A    between atoms: N_20  and  C_19 
REMARK       I    between atoms: C_22  and  N_20 
ROOT
ATOM      1  C   LIG d   1       1.298  88.596 117.161  0.00  0.00     0.161 C 
ATOM      2  C   LIG d   1      -0.078  88.355 117.301  0.00  0.00     0.016 C 
ATOM      3  C   LIG d   1      -0.962  89.248 117.950  0.00  0.00     0.038 C 
ATOM      4  C   LIG d   1      -0.552  90.522 118.371  0.00  0.00     0.028 C 
ATOM      5  C   LIG d   1       0.934  90.601 118.702  0.00  0.00    -0.047 C 
ATOM      6  C   LIG d   1       1.744  90.030 117.516  0.00  0.00     0.091 C 
ENDROOT
BRANCH   1   7
ATOM      7  O   LIG d   1       1.720  88.257 115.824  0.00  0.00    -0.368 OA
BRANCH   7   8
ATOM      8  C   LIG d   1       2.708  87.203 115.716  0.00  0.00     0.119 C 
BRANCH   8   9
ATOM      9  C   LIG d   1       3.685  87.599 114.592  0.00  0.00     0.028 C 
ATOM     10  C   LIG d   1       3.668  89.110 114.304  0.00  0.00     0.006 C 
ENDBRANCH   8   9
BRANCH   8  11
ATOM     11  C   LIG d   1       2.072  85.888 115.256  0.00  0.00     0.028 C 
ATOM     12  C   LIG d   1       1.685  85.902 113.768  0.00  0.00     0.006 C 
ENDBRANCH   8  11
ENDBRANCH   7   8
ENDBRANCH   1   7
BRANCH   6  13
ATOM     13  N   LIG d   1       3.204  89.992 117.791  0.00  0.00    -0.311 N 
ATOM     14  C   LIG d   1       4.047  90.950 117.411  0.00  0.00     0.210 C 
ATOM     15  C   LIG d   1       5.514  90.705 117.778  0.00  0.00     0.109 C 
ATOM     16  O   LIG d   1       3.715  91.996 116.832  0.00  0.00    -0.276 OA
ATOM     17  H   LIG d   1       3.554  89.194 118.284  0.00  0.00     0.149 HD
ENDBRANCH   6  13
BRANCH   5  18
ATOM     18  N   LIG d   1       1.252  92.012 118.993  0.00  0.00     0.381 N 
ATOM     19  H   LIG d   1       2.089  92.276 118.514  0.00  0.00    -0.090 HD
ATOM     20  H   LIG d   1       1.409  92.112 119.981  0.00  0.00    -0.090 HD
ATOM     21  H   LIG d   1       0.498  92.597 118.708  0.00  0.00    -0.090 HD
ENDBRANCH   5  18
BRANCH   3  22
ATOM     22  C   LIG d   1      -2.264  88.853 118.218  0.00  0.00     0.382 C 
ATOM     23  O   LIG d   1      -2.512  88.159 119.233  0.00  0.00    -0.241 OA
ATOM     24  O   LIG d   1      -3.187  89.145 117.434  0.00  0.00    -0.241 OA
ENDBRANCH   3  22
TORSDOF 7
ENDMDL
