MODEL 1
REMARK VINA RESULT:      -5.1      0.000      0.000
REMARK  7 active torsions:
REMARK  status: ('A' for Active; 'I' for Inactive)
REMARK    1  A    between atoms: C_2  and  C_3 
REMARK    2  A    between atoms: C_3  and  O_6 
REMARK    3  A    between atoms: C_3  and  C_4 
REMARK    4  A    between atoms: C_7  and  O_6 
REMARK    5  A    between atoms: C_9  and  C_10 
REMARK    6  A    between atoms: N_15  and  C_14 
REMARK    7  A    between atoms: N_20  and  C_19 
REMARK       I    between atoms: C_22  and  N_20 
ROOT
ATOM      1  C   LIG d   1       2.688  89.017 116.857  0.00  0.00     0.161 C 
ATOM      2  C   LIG d   1       2.723  88.537 115.537  0.00  0.00     0.016 C 
ATOM      3  C   LIG d   1       3.917  88.169 114.875  0.00  0.00     0.038 C 
ATOM      4  C   LIG d   1       5.149  88.113 115.544  0.00  0.00     0.028 C 
ATOM      5  C   LIG d   1       5.239  89.069 116.728  0.00  0.00    -0.047 C 
ATOM      6  C   LIG d   1       4.008  88.858 117.639  0.00  0.00     0.091 C 
ENDROOT
BRANCH   1   7
ATOM      7  O   LIG d   1       1.603  88.395 117.574  0.00  0.00    -0.368 OA
BRANCH   7   8
ATOM      8  C   LIG d   1       0.319  89.061 117.489  0.00  0.00     0.119 C 
BRANCH   8   9
ATOM      9  C   LIG d   1       0.272  90.120 118.608  0.00  0.00     0.028 C 
ATOM     10  C   LIG d   1       0.258  91.556 118.056  0.00  0.00     0.006 C 
ENDBRANCH   8   9
BRANCH   8  11
ATOM     11  C   LIG d   1      -0.831  88.096 117.796  0.00  0.00     0.028 C 
ATOM     12  C   LIG d   1      -2.201  88.791 117.821  0.00  0.00     0.006 C 
ENDBRANCH   8  11
ENDBRANCH   7   8
ENDBRANCH   1   7
BRANCH   6  13
ATOM     13  N   LIG d   1       3.975  89.812 118.778  0.00  0.00    -0.311 N 
ATOM     14  C   LIG d   1       3.912  91.134 118.625  0.00  0.00     0.210 C 
ATOM     15  C   LIG d   1       3.908  91.936 119.930  0.00  0.00     0.109 C 
ATOM     16  O   LIG d   1       3.828  91.716 117.533  0.00  0.00    -0.276 OA
ATOM     17  H   LIG d   1       4.008  89.423 119.700  0.00  0.00     0.149 HD
ENDBRANCH   6  13
BRANCH   5  18
ATOM     18  N   LIG d   1       6.518  88.809 117.415  0.00  0.00     0.381 N 
ATOM     19  H   LIG d   1       6.368  88.760 118.403  0.00  0.00    -0.090 HD
ATOM     20  H   LIG d   1       7.148  89.569 117.229  0.00  0.00    -0.090 HD
ATOM     21  H   LIG d   1       6.913  87.954 117.089  0.00  0.00    -0.090 HD
ENDBRANCH   5  18
BRANCH   3  22
ATOM     22  C   LIG d   1       3.892  87.890 113.517  0.00  0.00     0.382 C 
ATOM     23  O   LIG d   1       4.960  87.642 112.908  0.00  0.00    -0.241 OA
ATOM     24  O   LIG d   1       2.819  87.927 112.885  0.00  0.00    -0.241 OA
ENDBRANCH   3  22
TORSDOF 7
ENDMDL
MODEL 2
REMARK VINA RESULT:      -5.1      6.275      9.641
REMARK  7 active torsions:
REMARK  status: ('A' for Active; 'I' for Inactive)
REMARK    1  A    between atoms: C_2  and  C_3 
REMARK    2  A    between atoms: C_3  and  O_6 
REMARK    3  A    between atoms: C_3  and  C_4 
REMARK    4  A    between atoms: C_7  and  O_6 
REMARK    5  A    between atoms: C_9  and  C_10 
REMARK    6  A    between atoms: N_15  and  C_14 
REMARK    7  A    between atoms: N_20  and  C_19 
REMARK       I    between atoms: C_22  and  N_20 
ROOT
ATOM      1  C   LIG d   1      -4.348  91.253 117.682  0.00  0.00     0.161 C 
ATOM      2  C   LIG d   1      -3.590  92.187 118.409  0.00  0.00     0.016 C 
ATOM      3  C   LIG d   1      -4.155  93.301 119.072  0.00  0.00     0.038 C 
ATOM      4  C   LIG d   1      -5.542  93.474 119.179  0.00  0.00     0.028 C 
ATOM      5  C   LIG d   1      -6.323  92.836 118.035  0.00  0.00    -0.047 C 
ATOM      6  C   LIG d   1      -5.874  91.365 117.881  0.00  0.00     0.091 C 
ENDROOT
BRANCH   1   7
ATOM      7  O   LIG d   1      -3.899  89.918 117.985  0.00  0.00    -0.368 OA
BRANCH   7   8
ATOM      8  C   LIG d   1      -2.531  89.794 118.446  0.00  0.00     0.119 C 
BRANCH   8   9
ATOM      9  C   LIG d   1      -1.781  88.901 117.438  0.00  0.00     0.028 C 
ATOM     10  C   LIG d   1      -0.366  89.421 117.134  0.00  0.00     0.006 C 
ENDBRANCH   8   9
BRANCH   8  11
ATOM     11  C   LIG d   1      -2.459  89.047 119.781  0.00  0.00     0.028 C 
ATOM     12  C   LIG d   1      -2.458  87.519 119.610  0.00  0.00     0.006 C 
ENDBRANCH   8  11
ENDBRANCH   7   8
ENDBRANCH   1   7
BRANCH   6  13
ATOM     13  N   LIG d   1      -6.527  90.690 116.729  0.00  0.00    -0.311 N 
ATOM     14  C   LIG d   1      -6.752  91.288 115.560  0.00  0.00     0.210 C 
ATOM     15  C   LIG d   1      -7.457  90.419 114.514  0.00  0.00     0.109 C 
ATOM     16  O   LIG d   1      -6.407  92.446 115.280  0.00  0.00    -0.276 OA
ATOM     17  H   LIG d   1      -6.812  89.739 116.859  0.00  0.00     0.149 HD
ENDBRANCH   6  13
BRANCH   5  18
ATOM     18  N   LIG d   1      -7.759  92.973 118.344  0.00  0.00     0.381 N 
ATOM     19  H   LIG d   1      -7.877  93.208 119.309  0.00  0.00    -0.090 HD
ATOM     20  H   LIG d   1      -8.213  92.092 118.176  0.00  0.00    -0.090 HD
ATOM     21  H   LIG d   1      -8.165  93.678 117.770  0.00  0.00    -0.090 HD
ENDBRANCH   5  18
BRANCH   3  22
ATOM     22  C   LIG d   1      -3.326  94.278 119.602  0.00  0.00     0.382 C 
ATOM     23  O   LIG d   1      -3.767  95.435 119.799  0.00  0.00    -0.241 OA
ATOM     24  O   LIG d   1      -2.130  94.028 119.845  0.00  0.00    -0.241 OA
ENDBRANCH   3  22
TORSDOF 7
ENDMDL
MODEL 3
REMARK VINA RESULT:      -4.9      7.327     10.849
REMARK  7 active torsions:
REMARK  status: ('A' for Active; 'I' for Inactive)
REMARK    1  A    between atoms: C_2  and  C_3 
REMARK    2  A    between atoms: C_3  and  O_6 
REMARK    3  A    between atoms: C_3  and  C_4 
REMARK    4  A    between atoms: C_7  and  O_6 
REMARK    5  A    between atoms: C_9  and  C_10 
REMARK    6  A    between atoms: N_15  and  C_14 
REMARK    7  A    between atoms: N_20  and  C_19 
REMARK       I    between atoms: C_22  and  N_20 
ROOT
ATOM      1  C   LIG d   1      -5.142  92.762 118.581  0.00  0.00     0.161 C 
ATOM      2  C   LIG d   1      -5.568  93.896 119.292  0.00  0.00     0.016 C 
ATOM      3  C   LIG d   1      -6.787  94.564 119.033  0.00  0.00     0.038 C 
ATOM      4  C   LIG d   1      -7.740  94.049 118.141  0.00  0.00     0.028 C 
ATOM      5  C   LIG d   1      -7.134  93.188 117.038  0.00  0.00    -0.047 C 
ATOM      6  C   LIG d   1      -6.219  92.121 117.680  0.00  0.00     0.091 C 
ENDROOT
BRANCH   1   7
ATOM      7  O   LIG d   1      -4.607  91.784 119.495  0.00  0.00    -0.368 OA
BRANCH   7   8
ATOM      8  C   LIG d   1      -3.211  91.439 119.314  0.00  0.00     0.119 C 
BRANCH   8   9
ATOM      9  C   LIG d   1      -2.583  92.513 118.405  0.00  0.00     0.028 C 
ATOM     10  C   LIG d   1      -1.049  92.416 118.356  0.00  0.00     0.006 C 
ENDBRANCH   8   9
BRANCH   8  11
ATOM     11  C   LIG d   1      -3.058  90.121 118.550  0.00  0.00     0.028 C 
ATOM     12  C   LIG d   1      -2.322  89.043 119.361  0.00  0.00     0.006 C 
ENDBRANCH   8  11
ENDBRANCH   7   8
ENDBRANCH   1   7
BRANCH   6  13
ATOM     13  N   LIG d   1      -5.520  91.289 116.666  0.00  0.00    -0.311 N 
ATOM     14  C   LIG d   1      -6.070  90.224 116.086  0.00  0.00     0.210 C 
ATOM     15  C   LIG d   1      -5.169  89.496 115.083  0.00  0.00     0.109 C 
ATOM     16  O   LIG d   1      -7.230  89.831 116.283  0.00  0.00    -0.276 OA
ATOM     17  H   LIG d   1      -4.585  91.555 116.423  0.00  0.00     0.149 HD
ENDBRANCH   6  13
BRANCH   5  18
ATOM     18  N   LIG d   1      -8.247  92.606 116.265  0.00  0.00     0.381 N 
ATOM     19  H   LIG d   1      -8.716  93.326 115.752  0.00  0.00    -0.090 HD
ATOM     20  H   LIG d   1      -8.905  92.194 116.903  0.00  0.00    -0.090 HD
ATOM     21  H   LIG d   1      -7.901  91.913 115.639  0.00  0.00    -0.090 HD
ENDBRANCH   5  18
BRANCH   3  22
ATOM     22  C   LIG d   1      -7.045  95.782 119.642  0.00  0.00     0.382 C 
ATOM     23  O   LIG d   1      -8.229  96.133 119.866  0.00  0.00    -0.241 OA
ATOM     24  O   LIG d   1      -6.112  96.555 119.930  0.00  0.00    -0.241 OA
ENDBRANCH   3  22
TORSDOF 7
ENDMDL
MODEL 4
REMARK VINA RESULT:      -4.9      2.136      5.261
REMARK  7 active torsions:
REMARK  status: ('A' for Active; 'I' for Inactive)
REMARK    1  A    between atoms: C_2  and  C_3 
REMARK    2  A    between atoms: C_3  and  O_6 
REMARK    3  A    between atoms: C_3  and  C_4 
REMARK    4  A    between atoms: C_7  and  O_6 
REMARK    5  A    between atoms: C_9  and  C_10 
REMARK    6  A    between atoms: N_15  and  C_14 
REMARK    7  A    between atoms: N_20  and  C_19 
REMARK       I    between atoms: C_22  and  N_20 
ROOT
ATOM      1  C   LIG d   1       1.145  88.500 116.986  0.00  0.00     0.161 C 
ATOM      2  C   LIG d   1      -0.248  88.324 117.020  0.00  0.00     0.016 C 
ATOM      3  C   LIG d   1      -1.111  89.101 117.825  0.00  0.00     0.038 C 
ATOM      4  C   LIG d   1      -0.652  90.215 118.543  0.00  0.00     0.028 C 
ATOM      5  C   LIG d   1       0.818  90.120 118.935  0.00  0.00    -0.047 C 
ATOM      6  C   LIG d   1       1.652  89.783 117.678  0.00  0.00     0.091 C 
ENDROOT
BRANCH   1   7
ATOM      7  O   LIG d   1       1.612  88.448 115.623  0.00  0.00    -0.368 OA
BRANCH   7   8
ATOM      8  C   LIG d   1       2.772  87.616 115.378  0.00  0.00     0.119 C 
BRANCH   8   9
ATOM      9  C   LIG d   1       3.840  88.498 114.702  0.00  0.00     0.028 C 
ATOM     10  C   LIG d   1       4.563  87.770 113.557  0.00  0.00     0.006 C 
ENDBRANCH   8   9
BRANCH   8  11
ATOM     11  C   LIG d   1       2.461  86.509 114.366  0.00  0.00     0.028 C 
ATOM     12  C   LIG d   1       1.523  85.431 114.932  0.00  0.00     0.006 C 
ENDBRANCH   8  11
ENDBRANCH   7   8
ENDBRANCH   1   7
BRANCH   6  13
ATOM     13  N   LIG d   1       3.092  89.588 117.988  0.00  0.00    -0.311 N 
ATOM     14  C   LIG d   1       4.006  90.549 117.861  0.00  0.00     0.210 C 
ATOM     15  C   LIG d   1       5.437  90.131 118.214  0.00  0.00     0.109 C 
ATOM     16  O   LIG d   1       3.762  91.716 117.520  0.00  0.00    -0.276 OA
ATOM     17  H   LIG d   1       3.373  88.679 118.301  0.00  0.00     0.149 HD
ENDBRANCH   6  13
BRANCH   5  18
ATOM     18  N   LIG d   1       1.199  91.403 119.555  0.00  0.00     0.381 N 
ATOM     19  H   LIG d   1       0.392  91.839 119.954  0.00  0.00    -0.090 HD
ATOM     20  H   LIG d   1       1.567  92.011 118.844  0.00  0.00    -0.090 HD
ATOM     21  H   LIG d   1       1.887  91.251 120.260  0.00  0.00    -0.090 HD
ENDBRANCH   5  18
BRANCH   3  22
ATOM     22  C   LIG d   1      -2.445  88.741 117.950  0.00  0.00     0.382 C 
ATOM     23  O   LIG d   1      -3.280  89.124 117.095  0.00  0.00    -0.241 OA
ATOM     24  O   LIG d   1      -2.831  88.077 118.930  0.00  0.00    -0.241 OA
ENDBRANCH   3  22
TORSDOF 7
ENDMDL
MODEL 5
REMARK VINA RESULT:      -4.7      2.105      5.334
REMARK  7 active torsions:
REMARK  status: ('A' for Active; 'I' for Inactive)
REMARK    1  A    between atoms: C_2  and  C_3 
REMARK    2  A    between atoms: C_3  and  O_6 
REMARK    3  A    between atoms: C_3  and  C_4 
REMARK    4  A    between atoms: C_7  and  O_6 
REMARK    5  A    between atoms: C_9  and  C_10 
REMARK    6  A    between atoms: N_15  and  C_14 
REMARK    7  A    between atoms: N_20  and  C_19 
REMARK       I    between atoms: C_22  and  N_20 
ROOT
ATOM      1  C   LIG d   1       1.080  88.513 116.994  0.00  0.00     0.161 C 
ATOM      2  C   LIG d   1      -0.315  88.354 117.039  0.00  0.00     0.016 C 
ATOM      3  C   LIG d   1      -1.162  89.139 117.855  0.00  0.00     0.038 C 
ATOM      4  C   LIG d   1      -0.682  90.245 118.573  0.00  0.00     0.028 C 
ATOM      5  C   LIG d   1       0.790  90.129 118.952  0.00  0.00    -0.047 C 
ATOM      6  C   LIG d   1       1.609  89.787 117.686  0.00  0.00     0.091 C 
ENDROOT
BRANCH   1   7
ATOM      7  O   LIG d   1       1.534  88.460 115.627  0.00  0.00    -0.368 OA
BRANCH   7   8
ATOM      8  C   LIG d   1       2.177  87.229 115.216  0.00  0.00     0.119 C 
BRANCH   8   9
ATOM      9  C   LIG d   1       2.668  86.515 116.491  0.00  0.00     0.028 C 
ATOM     10  C   LIG d   1       4.202  86.475 116.587  0.00  0.00     0.006 C 
ENDBRANCH   8   9
BRANCH   8  11
ATOM     11  C   LIG d   1       3.439  87.506 114.395  0.00  0.00     0.028 C 
ATOM     12  C   LIG d   1       3.367  86.921 112.975  0.00  0.00     0.006 C 
ENDBRANCH   8  11
ENDBRANCH   7   8
ENDBRANCH   1   7
BRANCH   6  13
ATOM     13  N   LIG d   1       3.049  89.573 117.983  0.00  0.00    -0.311 N 
ATOM     14  C   LIG d   1       3.971  90.526 117.865  0.00  0.00     0.210 C 
ATOM     15  C   LIG d   1       5.400  90.089 118.202  0.00  0.00     0.109 C 
ATOM     16  O   LIG d   1       3.737  91.701 117.545  0.00  0.00    -0.276 OA
ATOM     17  H   LIG d   1       3.322  88.656 118.279  0.00  0.00     0.149 HD
ENDBRANCH   6  13
BRANCH   5  18
ATOM     18  N   LIG d   1       1.193  91.405 119.573  0.00  0.00     0.381 N 
ATOM     19  H   LIG d   1       0.475  92.089 119.438  0.00  0.00    -0.090 HD
ATOM     20  H   LIG d   1       2.030  91.735 119.126  0.00  0.00    -0.090 HD
ATOM     21  H   LIG d   1       1.357  91.274 120.547  0.00  0.00    -0.090 HD
ENDBRANCH   5  18
BRANCH   3  22
ATOM     22  C   LIG d   1      -2.498  88.796 117.990  0.00  0.00     0.382 C 
ATOM     23  O   LIG d   1      -2.883  88.157 118.999  0.00  0.00    -0.241 OA
ATOM     24  O   LIG d   1      -3.316  89.078 117.094  0.00  0.00    -0.241 OA
ENDBRANCH   3  22
TORSDOF 7
ENDMDL
MODEL 6
REMARK VINA RESULT:      -4.6      2.245      5.329
REMARK  7 active torsions:
REMARK  status: ('A' for Active; 'I' for Inactive)
REMARK    1  A    between atoms: C_2  and  C_3 
REMARK    2  A    between atoms: C_3  and  O_6 
REMARK    3  A    between atoms: C_3  and  C_4 
REMARK    4  A    between atoms: C_7  and  O_6 
REMARK    5  A    between atoms: C_9  and  C_10 
REMARK    6  A    between atoms: N_15  and  C_14 
REMARK    7  A    between atoms: N_20  and  C_19 
REMARK       I    between atoms: C_22  and  N_20 
ROOT
ATOM      1  C   LIG d   1       1.114  88.569 118.513  0.00  0.00     0.161 C 
ATOM      2  C   LIG d   1      -0.239  88.253 118.306  0.00  0.00     0.016 C 
ATOM      3  C   LIG d   1      -1.254  89.228 118.173  0.00  0.00     0.038 C 
ATOM      4  C   LIG d   1      -0.960  90.597 118.087  0.00  0.00     0.028 C 
ATOM      5  C   LIG d   1       0.333  90.985 118.797  0.00  0.00    -0.047 C 
ATOM      6  C   LIG d   1       1.469  90.057 118.311  0.00  0.00     0.091 C 
ENDROOT
BRANCH   1   7
ATOM      7  O   LIG d   1       1.944  87.738 117.676  0.00  0.00    -0.368 OA
BRANCH   7   8
ATOM      8  C   LIG d   1       1.823  87.950 116.248  0.00  0.00     0.119 C 
BRANCH   8   9
ATOM      9  C   LIG d   1       1.551  86.579 115.599  0.00  0.00     0.028 C 
ATOM     10  C   LIG d   1       1.574  85.430 116.622  0.00  0.00     0.006 C 
ENDBRANCH   8   9
BRANCH   8  11
ATOM     11  C   LIG d   1       3.144  88.431 115.642  0.00  0.00     0.028 C 
ATOM     12  C   LIG d   1       4.364  88.056 116.498  0.00  0.00     0.006 C 
ENDBRANCH   8  11
ENDBRANCH   7   8
ENDBRANCH   1   7
BRANCH   6  13
ATOM     13  N   LIG d   1       2.751  90.314 119.017  0.00  0.00    -0.311 N 
ATOM     14  C   LIG d   1       3.729  91.065 118.513  0.00  0.00     0.210 C 
ATOM     15  C   LIG d   1       4.974  91.184 119.397  0.00  0.00     0.109 C 
ATOM     16  O   LIG d   1       3.669  91.671 117.433  0.00  0.00    -0.276 OA
ATOM     17  H   LIG d   1       2.871  89.886 119.915  0.00  0.00     0.149 HD
ENDBRANCH   6  13
BRANCH   5  18
ATOM     18  N   LIG d   1       0.587  92.410 118.511  0.00  0.00     0.381 N 
ATOM     19  H   LIG d   1      -0.252  92.938 118.646  0.00  0.00    -0.090 HD
ATOM     20  H   LIG d   1       0.868  92.504 117.551  0.00  0.00    -0.090 HD
ATOM     21  H   LIG d   1       1.305  92.754 119.110  0.00  0.00    -0.090 HD
ENDBRANCH   5  18
BRANCH   3  22
ATOM     22  C   LIG d   1      -2.584  88.838 118.165  0.00  0.00     0.382 C 
ATOM     23  O   LIG d   1      -3.345  89.222 117.244  0.00  0.00    -0.241 OA
ATOM     24  O   LIG d   1      -3.045  88.143 119.091  0.00  0.00    -0.241 OA
ENDBRANCH   3  22
TORSDOF 7
ENDMDL
MODEL 7
REMARK VINA RESULT:      -4.5      2.491      5.376
REMARK  7 active torsions:
REMARK  status: ('A' for Active; 'I' for Inactive)
REMARK    1  A    between atoms: C_2  and  C_3 
REMARK    2  A    between atoms: C_3  and  O_6 
REMARK    3  A    between atoms: C_3  and  C_4 
REMARK    4  A    between atoms: C_7  and  O_6 
REMARK    5  A    between atoms: C_9  and  C_10 
REMARK    6  A    between atoms: N_15  and  C_14 
REMARK    7  A    between atoms: N_20  and  C_19 
REMARK       I    between atoms: C_22  and  N_20 
ROOT
ATOM      1  C   LIG d   1       0.662  89.961 117.051  0.00  0.00     0.161 C 
ATOM      2  C   LIG d   1      -0.570  89.837 117.713  0.00  0.00     0.016 C 
ATOM      3  C   LIG d   1      -1.172  88.593 118.011  0.00  0.00     0.038 C 
ATOM      4  C   LIG d   1      -0.505  87.377 117.799  0.00  0.00     0.028 C 
ATOM      5  C   LIG d   1       0.522  87.438 116.673  0.00  0.00    -0.047 C 
ATOM      6  C   LIG d   1       1.457  88.645 116.911  0.00  0.00     0.091 C 
ENDROOT
BRANCH   1   7
ATOM      7  O   LIG d   1       1.467  90.966 117.700  0.00  0.00    -0.368 OA
BRANCH   7   8
ATOM      8  C   LIG d   1       1.912  90.656 119.043  0.00  0.00     0.119 C 
BRANCH   8   9
ATOM      9  C   LIG d   1       1.593  91.876 119.929  0.00  0.00     0.028 C 
ATOM     10  C   LIG d   1       0.813  92.963 119.172  0.00  0.00     0.006 C 
ENDBRANCH   8   9
BRANCH   8  11
ATOM     11  C   LIG d   1       3.434  90.498 119.103  0.00  0.00     0.028 C 
ATOM     12  C   LIG d   1       4.164  91.354 118.057  0.00  0.00     0.006 C 
ENDBRANCH   8  11
ENDBRANCH   7   8
ENDBRANCH   1   7
BRANCH   6  13
ATOM     13  N   LIG d   1       2.439  88.827 115.811  0.00  0.00    -0.311 N 
ATOM     14  C   LIG d   1       3.683  88.352 115.853  0.00  0.00     0.210 C 
ATOM     15  C   LIG d   1       4.537  88.670 114.621  0.00  0.00     0.109 C 
ATOM     16  O   LIG d   1       4.149  87.671 116.778  0.00  0.00    -0.276 OA
ATOM     17  H   LIG d   1       2.134  89.342 115.008  0.00  0.00     0.149 HD
ENDBRANCH   6  13
BRANCH   5  18
ATOM     18  N   LIG d   1       1.237  86.148 116.653  0.00  0.00     0.381 N 
ATOM     19  H   LIG d   1       1.517  85.901 117.581  0.00  0.00    -0.090 HD
ATOM     20  H   LIG d   1       2.064  86.243 116.089  0.00  0.00    -0.090 HD
ATOM     21  H   LIG d   1       0.649  85.438 116.275  0.00  0.00    -0.090 HD
ENDBRANCH   5  18
BRANCH   3  22
ATOM     22  C   LIG d   1      -2.473  88.556 118.490  0.00  0.00     0.382 C 
ATOM     23  O   LIG d   1      -2.739  87.908 119.530  0.00  0.00    -0.241 OA
ATOM     24  O   LIG d   1      -3.391  89.126 117.870  0.00  0.00    -0.241 OA
ENDBRANCH   3  22
TORSDOF 7
ENDMDL
MODEL 8
REMARK VINA RESULT:      -4.5      3.605      6.467
REMARK  7 active torsions:
REMARK  status: ('A' for Active; 'I' for Inactive)
REMARK    1  A    between atoms: C_2  and  C_3 
REMARK    2  A    between atoms: C_3  and  O_6 
REMARK    3  A    between atoms: C_3  and  C_4 
REMARK    4  A    between atoms: C_7  and  O_6 
REMARK    5  A    between atoms: C_9  and  C_10 
REMARK    6  A    between atoms: N_15  and  C_14 
REMARK    7  A    between atoms: N_20  and  C_19 
REMARK       I    between atoms: C_22  and  N_20 
ROOT
ATOM      1  C   LIG d   1      -1.100  90.824 118.866  0.00  0.00     0.161 C 
ATOM      2  C   LIG d   1      -2.471  90.950 118.585  0.00  0.00     0.016 C 
ATOM      3  C   LIG d   1      -3.099  92.187 118.312  0.00  0.00     0.038 C 
ATOM      4  C   LIG d   1      -2.364  93.371 118.150  0.00  0.00     0.028 C 
ATOM      5  C   LIG d   1      -1.049  93.378 118.921  0.00  0.00    -0.047 C 
ATOM      6  C   LIG d   1      -0.263  92.090 118.585  0.00  0.00     0.091 C 
ENDROOT
BRANCH   1   7
ATOM      7  O   LIG d   1      -0.557  89.696 118.152  0.00  0.00    -0.368 OA
BRANCH   7   8
ATOM      8  C   LIG d   1      -0.141  88.569 118.963  0.00  0.00     0.119 C 
BRANCH   8   9
ATOM      9  C   LIG d   1       1.207  88.071 118.406  0.00  0.00     0.028 C 
ATOM     10  C   LIG d   1       1.278  88.162 116.872  0.00  0.00     0.006 C 
ENDBRANCH   8   9
BRANCH   8  11
ATOM     11  C   LIG d   1      -1.103  87.388 118.811  0.00  0.00     0.028 C 
ATOM     12  C   LIG d   1      -2.244  87.413 119.841  0.00  0.00     0.006 C 
ENDBRANCH   8  11
ENDBRANCH   7   8
ENDBRANCH   1   7
BRANCH   6  13
ATOM     13  N   LIG d   1       0.999  91.977 119.362  0.00  0.00    -0.311 N 
ATOM     14  C   LIG d   1       2.173  91.673 118.812  0.00  0.00     0.210 C 
ATOM     15  C   LIG d   1       3.345  91.587 119.795  0.00  0.00     0.109 C 
ATOM     16  O   LIG d   1       2.362  91.498 117.599  0.00  0.00    -0.276 OA
ATOM     17  H   LIG d   1       0.942  92.134 120.349  0.00  0.00     0.149 HD
ENDBRANCH   6  13
BRANCH   5  18
ATOM     18  N   LIG d   1      -0.324  94.610 118.554  0.00  0.00     0.381 N 
ATOM     19  H   LIG d   1       0.128  94.990 119.362  0.00  0.00    -0.090 HD
ATOM     20  H   LIG d   1      -0.984  95.286 118.214  0.00  0.00    -0.090 HD
ATOM     21  H   LIG d   1       0.352  94.410 117.850  0.00  0.00    -0.090 HD
ENDBRANCH   5  18
BRANCH   3  22
ATOM     22  C   LIG d   1      -4.481  92.254 118.236  0.00  0.00     0.382 C 
ATOM     23  O   LIG d   1      -5.059  92.066 117.138  0.00  0.00    -0.241 OA
ATOM     24  O   LIG d   1      -5.156  92.543 119.242  0.00  0.00    -0.241 OA
ENDBRANCH   3  22
TORSDOF 7
ENDMDL
MODEL 9
REMARK VINA RESULT:      -4.3      7.278      9.481
REMARK  7 active torsions:
REMARK  status: ('A' for Active; 'I' for Inactive)
REMARK    1  A    between atoms: C_2  and  C_3 
REMARK    2  A    between atoms: C_3  and  O_6 
REMARK    3  A    between atoms: C_3  and  C_4 
REMARK    4  A    between atoms: C_7  and  O_6 
REMARK    5  A    between atoms: C_9  and  C_10 
REMARK    6  A    between atoms: N_15  and  C_14 
REMARK    7  A    between atoms: N_20  and  C_19 
REMARK       I    between atoms: C_22  and  N_20 
ROOT
ATOM      1  C   LIG d   1      -5.635  92.717 118.229  0.00  0.00     0.161 C 
ATOM      2  C   LIG d   1      -6.490  92.607 117.120  0.00  0.00     0.016 C 
ATOM      3  C   LIG d   1      -6.393  91.571 116.162  0.00  0.00     0.038 C 
ATOM      4  C   LIG d   1      -5.524  90.482 116.333  0.00  0.00     0.028 C 
ATOM      5  C   LIG d   1      -4.296  90.814 117.173  0.00  0.00    -0.047 C 
ATOM      6  C   LIG d   1      -4.754  91.478 118.492  0.00  0.00     0.091 C 
ENDROOT
BRANCH   1   7
ATOM      7  O   LIG d   1      -6.400  93.047 119.405  0.00  0.00    -0.368 OA
BRANCH   7   8
ATOM      8  C   LIG d   1      -6.217  94.385 119.930  0.00  0.00     0.119 C 
BRANCH   8   9
ATOM      9  C   LIG d   1      -7.562  95.124 119.792  0.00  0.00     0.028 C 
ATOM     10  C   LIG d   1      -7.701  95.844 118.440  0.00  0.00     0.006 C 
ENDBRANCH   8   9
BRANCH   8  11
ATOM     11  C   LIG d   1      -5.226  95.186 119.081  0.00  0.00     0.028 C 
ATOM     12  C   LIG d   1      -4.254  96.021 119.930  0.00  0.00     0.006 C 
ENDBRANCH   8  11
ENDBRANCH   7   8
ENDBRANCH   1   7
BRANCH   6  13
ATOM     13  N   LIG d   1      -3.609  91.911 119.336  0.00  0.00    -0.311 N 
ATOM     14  C   LIG d   1      -2.635  92.707 118.898  0.00  0.00     0.210 C 
ATOM     15  C   LIG d   1      -1.541  93.015 119.925  0.00  0.00     0.109 C 
ATOM     16  O   LIG d   1      -2.591  93.214 117.767  0.00  0.00    -0.276 OA
ATOM     17  H   LIG d   1      -3.583  91.572 120.277  0.00  0.00     0.149 HD
ENDBRANCH   6  13
BRANCH   5  18
ATOM     18  N   LIG d   1      -3.550  89.560 117.387  0.00  0.00     0.381 N 
ATOM     19  H   LIG d   1      -3.176  89.541 118.315  0.00  0.00    -0.090 HD
ATOM     20  H   LIG d   1      -2.783  89.523 116.738  0.00  0.00    -0.090 HD
ATOM     21  H   LIG d   1      -4.151  88.777 117.247  0.00  0.00    -0.090 HD
ENDBRANCH   5  18
BRANCH   3  22
ATOM     22  C   LIG d   1      -7.143  91.638 114.998  0.00  0.00     0.382 C 
ATOM     23  O   LIG d   1      -8.293  91.138 114.964  0.00  0.00    -0.241 OA
ATOM     24  O   LIG d   1      -6.667  92.153 113.969  0.00  0.00    -0.241 OA
ENDBRANCH   3  22
TORSDOF 7
ENDMDL
