MODEL 1
REMARK VINA RESULT:      -4.8      0.000      0.000
REMARK  7 active torsions:
REMARK  status: ('A' for Active; 'I' for Inactive)
REMARK    1  A    between atoms: C_2  and  C_3 
REMARK    2  A    between atoms: C_3  and  O_6 
REMARK    3  A    between atoms: C_3  and  C_4 
REMARK    4  A    between atoms: C_7  and  O_6 
REMARK    5  A    between atoms: C_9  and  C_10 
REMARK    6  A    between atoms: N_15  and  C_14 
REMARK    7  A    between atoms: N_20  and  C_19 
REMARK       I    between atoms: C_22  and  N_20 
ROOT
ATOM      1  C   LIG d   1      -3.832  90.085 117.582  0.00  0.00     0.161 C 
ATOM      2  C   LIG d   1      -4.942  89.532 116.923  0.00  0.00     0.016 C 
ATOM      3  C   LIG d   1      -6.110  90.267 116.615  0.00  0.00     0.038 C 
ATOM      4  C   LIG d   1      -6.186  91.654 116.812  0.00  0.00     0.028 C 
ATOM      5  C   LIG d   1      -5.285  92.157 117.935  0.00  0.00    -0.047 C 
ATOM      6  C   LIG d   1      -3.853  91.623 117.706  0.00  0.00     0.091 C 
ENDROOT
BRANCH   1   7
ATOM      7  O   LIG d   1      -2.616  89.650 116.941  0.00  0.00    -0.368 OA
BRANCH   7   8
ATOM      8  C   LIG d   1      -1.762  88.776 117.719  0.00  0.00     0.119 C 
BRANCH   8   9
ATOM      9  C   LIG d   1      -2.470  88.514 119.063  0.00  0.00     0.028 C 
ATOM     10  C   LIG d   1      -2.286  87.067 119.551  0.00  0.00     0.006 C 
ENDBRANCH   8   9
BRANCH   8  11
ATOM     11  C   LIG d   1      -0.444  89.465 118.083  0.00  0.00     0.028 C 
ATOM     12  C   LIG d   1       0.128  90.303 116.929  0.00  0.00     0.006 C 
ENDBRANCH   8  11
ENDBRANCH   7   8
ENDBRANCH   1   7
BRANCH   6  13
ATOM     13  N   LIG d   1      -2.925  91.999 118.804  0.00  0.00    -0.311 N 
ATOM     14  C   LIG d   1      -1.941  92.886 118.662  0.00  0.00     0.210 C 
ATOM     15  C   LIG d   1      -1.089  93.112 119.915  0.00  0.00     0.109 C 
ATOM     16  O   LIG d   1      -1.714  93.530 117.627  0.00  0.00    -0.276 OA
ATOM     17  H   LIG d   1      -3.057  91.547 119.688  0.00  0.00     0.149 HD
ENDBRANCH   6  13
BRANCH   5  18
ATOM     18  N   LIG d   1      -5.359  93.630 117.940  0.00  0.00     0.381 N 
ATOM     19  H   LIG d   1      -5.475  93.967 117.005  0.00  0.00    -0.090 HD
ATOM     20  H   LIG d   1      -4.497  93.998 118.302  0.00  0.00    -0.090 HD
ATOM     21  H   LIG d   1      -6.121  93.931 118.506  0.00  0.00    -0.090 HD
ENDBRANCH   5  18
BRANCH   3  22
ATOM     22  C   LIG d   1      -7.233  89.607 116.140  0.00  0.00     0.382 C 
ATOM     23  O   LIG d   1      -7.467  89.575 114.908  0.00  0.00    -0.241 OA
ATOM     24  O   LIG d   1      -8.038  89.081 116.931  0.00  0.00    -0.241 OA
ENDBRANCH   3  22
TORSDOF 7
ENDMDL
MODEL 2
REMARK VINA RESULT:      -4.7      2.828      6.645
REMARK  7 active torsions:
REMARK  status: ('A' for Active; 'I' for Inactive)
REMARK    1  A    between atoms: C_2  and  C_3 
REMARK    2  A    between atoms: C_3  and  O_6 
REMARK    3  A    between atoms: C_3  and  C_4 
REMARK    4  A    between atoms: C_7  and  O_6 
REMARK    5  A    between atoms: C_9  and  C_10 
REMARK    6  A    between atoms: N_15  and  C_14 
REMARK    7  A    between atoms: N_20  and  C_19 
REMARK       I    between atoms: C_22  and  N_20 
ROOT
ATOM      1  C   LIG d   1      -5.715  92.321 118.634  0.00  0.00     0.161 C 
ATOM      2  C   LIG d   1      -4.549  92.880 119.185  0.00  0.00     0.016 C 
ATOM      3  C   LIG d   1      -3.245  92.452 118.844  0.00  0.00     0.038 C 
ATOM      4  C   LIG d   1      -3.013  91.535 117.809  0.00  0.00     0.028 C 
ATOM      5  C   LIG d   1      -4.176  90.577 117.576  0.00  0.00    -0.047 C 
ATOM      6  C   LIG d   1      -5.478  91.396 117.422  0.00  0.00     0.091 C 
ENDROOT
BRANCH   1   7
ATOM      7  O   LIG d   1      -6.643  93.369 118.291  0.00  0.00    -0.368 OA
BRANCH   7   8
ATOM      8  C   LIG d   1      -6.836  94.402 119.289  0.00  0.00     0.119 C 
BRANCH   8   9
ATOM      9  C   LIG d   1      -8.281  94.280 119.808  0.00  0.00     0.028 C 
ATOM     10  C   LIG d   1      -9.224  95.314 119.170  0.00  0.00     0.006 C 
ENDBRANCH   8   9
BRANCH   8  11
ATOM     11  C   LIG d   1      -6.745  95.800 118.669  0.00  0.00     0.028 C 
ATOM     12  C   LIG d   1      -5.524  96.592 119.163  0.00  0.00     0.006 C 
ENDBRANCH   8  11
ENDBRANCH   7   8
ENDBRANCH   1   7
BRANCH   6  13
ATOM     13  N   LIG d   1      -6.678  90.532 117.275  0.00  0.00    -0.311 N 
ATOM     14  C   LIG d   1      -7.053  89.989 116.118  0.00  0.00     0.210 C 
ATOM     15  C   LIG d   1      -8.332  89.148 116.183  0.00  0.00     0.109 C 
ATOM     16  O   LIG d   1      -6.430  90.097 115.051  0.00  0.00    -0.276 OA
ATOM     17  H   LIG d   1      -7.224  90.366 118.097  0.00  0.00     0.149 HD
ENDBRANCH   6  13
BRANCH   5  18
ATOM     18  N   LIG d   1      -3.857  89.769 116.384  0.00  0.00     0.381 N 
ATOM     19  H   LIG d   1      -4.248  88.853 116.480  0.00  0.00    -0.090 HD
ATOM     20  H   LIG d   1      -2.859  89.680 116.309  0.00  0.00    -0.090 HD
ATOM     21  H   LIG d   1      -4.221  90.209 115.567  0.00  0.00    -0.090 HD
ENDBRANCH   5  18
BRANCH   3  22
ATOM     22  C   LIG d   1      -2.158  92.916 119.569  0.00  0.00     0.382 C 
ATOM     23  O   LIG d   1      -2.053  94.139 119.829  0.00  0.00    -0.241 OA
ATOM     24  O   LIG d   1      -1.259  92.133 119.930  0.00  0.00    -0.241 OA
ENDBRANCH   3  22
TORSDOF 7
ENDMDL
MODEL 3
REMARK VINA RESULT:      -4.6      3.231      4.700
REMARK  7 active torsions:
REMARK  status: ('A' for Active; 'I' for Inactive)
REMARK    1  A    between atoms: C_2  and  C_3 
REMARK    2  A    between atoms: C_3  and  O_6 
REMARK    3  A    between atoms: C_3  and  C_4 
REMARK    4  A    between atoms: C_7  and  O_6 
REMARK    5  A    between atoms: C_9  and  C_10 
REMARK    6  A    between atoms: N_15  and  C_14 
REMARK    7  A    between atoms: N_20  and  C_19 
REMARK       I    between atoms: C_22  and  N_20 
ROOT
ATOM      1  C   LIG d   1      -5.956  92.823 119.191  0.00  0.00     0.161 C 
ATOM      2  C   LIG d   1      -7.188  93.484 119.052  0.00  0.00     0.016 C 
ATOM      3  C   LIG d   1      -7.313  94.891 118.993  0.00  0.00     0.038 C 
ATOM      4  C   LIG d   1      -6.193  95.733 118.916  0.00  0.00     0.028 C 
ATOM      5  C   LIG d   1      -4.944  95.140 119.561  0.00  0.00    -0.047 C 
ATOM      6  C   LIG d   1      -4.715  93.719 118.997  0.00  0.00     0.091 C 
ENDROOT
BRANCH   1   7
ATOM      7  O   LIG d   1      -5.904  91.695 118.295  0.00  0.00    -0.368 OA
BRANCH   7   8
ATOM      8  C   LIG d   1      -5.127  91.876 117.086  0.00  0.00     0.119 C 
BRANCH   8   9
ATOM      9  C   LIG d   1      -6.113  92.207 115.948  0.00  0.00     0.028 C 
ATOM     10  C   LIG d   1      -6.225  91.069 114.920  0.00  0.00     0.006 C 
ENDBRANCH   8   9
BRANCH   8  11
ATOM     11  C   LIG d   1      -4.442  90.573 116.663  0.00  0.00     0.028 C 
ATOM     12  C   LIG d   1      -3.925  89.757 117.857  0.00  0.00     0.006 C 
ENDBRANCH   8  11
ENDBRANCH   7   8
ENDBRANCH   1   7
BRANCH   6  13
ATOM     13  N   LIG d   1      -3.561  93.035 119.637  0.00  0.00    -0.311 N 
ATOM     14  C   LIG d   1      -2.339  93.011 119.109  0.00  0.00     0.210 C 
ATOM     15  C   LIG d   1      -1.299  92.232 119.922  0.00  0.00     0.109 C 
ATOM     16  O   LIG d   1      -2.009  93.587 118.061  0.00  0.00    -0.276 OA
ATOM     17  H   LIG d   1      -3.733  92.568 120.505  0.00  0.00     0.149 HD
ENDBRANCH   6  13
BRANCH   5  18
ATOM     18  N   LIG d   1      -3.823  96.059 119.288  0.00  0.00     0.381 N 
ATOM     19  H   LIG d   1      -4.167  96.992 119.185  0.00  0.00    -0.090 HD
ATOM     20  H   LIG d   1      -3.384  95.788 118.425  0.00  0.00    -0.090 HD
ATOM     21  H   LIG d   1      -3.162  96.020 120.032  0.00  0.00    -0.090 HD
ENDBRANCH   5  18
BRANCH   3  22
ATOM     22  C   LIG d   1      -8.570  95.473 119.051  0.00  0.00     0.382 C 
ATOM     23  O   LIG d   1      -9.594  94.771 118.867  0.00  0.00    -0.241 OA
ATOM     24  O   LIG d   1      -8.692  96.698 119.240  0.00  0.00    -0.241 OA
ENDBRANCH   3  22
TORSDOF 7
ENDMDL
MODEL 4
REMARK VINA RESULT:      -4.6      1.829      4.717
REMARK  7 active torsions:
REMARK  status: ('A' for Active; 'I' for Inactive)
REMARK    1  A    between atoms: C_2  and  C_3 
REMARK    2  A    between atoms: C_3  and  O_6 
REMARK    3  A    between atoms: C_3  and  C_4 
REMARK    4  A    between atoms: C_7  and  O_6 
REMARK    5  A    between atoms: C_9  and  C_10 
REMARK    6  A    between atoms: N_15  and  C_14 
REMARK    7  A    between atoms: N_20  and  C_19 
REMARK       I    between atoms: C_22  and  N_20 
ROOT
ATOM      1  C   LIG d   1      -4.278  90.470 117.915  0.00  0.00     0.161 C 
ATOM      2  C   LIG d   1      -3.231  91.246 118.439  0.00  0.00     0.016 C 
ATOM      3  C   LIG d   1      -3.424  92.514 119.033  0.00  0.00     0.038 C 
ATOM      4  C   LIG d   1      -4.705  93.030 119.281  0.00  0.00     0.028 C 
ATOM      5  C   LIG d   1      -5.764  92.510 118.314  0.00  0.00    -0.047 C 
ATOM      6  C   LIG d   1      -5.694  90.967 118.276  0.00  0.00     0.091 C 
ENDROOT
BRANCH   1   7
ATOM      7  O   LIG d   1      -4.113  89.095 118.312  0.00  0.00    -0.368 OA
BRANCH   7   8
ATOM      8  C   LIG d   1      -2.797  88.723 118.791  0.00  0.00     0.119 C 
BRANCH   8   9
ATOM      9  C   LIG d   1      -2.076  87.991 117.642  0.00  0.00     0.028 C 
ATOM     10  C   LIG d   1      -0.791  88.713 117.202  0.00  0.00     0.006 C 
ENDBRANCH   8   9
BRANCH   8  11
ATOM     11  C   LIG d   1      -2.886  87.702 119.929  0.00  0.00     0.028 C 
ATOM     12  C   LIG d   1      -1.833  86.589 119.815  0.00  0.00     0.006 C 
ENDBRANCH   8  11
ENDBRANCH   7   8
ENDBRANCH   1   7
BRANCH   6  13
ATOM     13  N   LIG d   1      -6.640  90.381 117.291  0.00  0.00    -0.311 N 
ATOM     14  C   LIG d   1      -6.534  90.560 115.976  0.00  0.00     0.210 C 
ATOM     15  C   LIG d   1      -7.626  89.885 115.141  0.00  0.00     0.109 C 
ATOM     16  O   LIG d   1      -5.621  91.188 115.419  0.00  0.00    -0.276 OA
ATOM     17  H   LIG d   1      -7.394  89.831 117.654  0.00  0.00     0.149 HD
ENDBRANCH   6  13
BRANCH   5  18
ATOM     18  N   LIG d   1      -7.071  93.018 118.771  0.00  0.00     0.381 N 
ATOM     19  H   LIG d   1      -7.750  92.909 118.044  0.00  0.00    -0.090 HD
ATOM     20  H   LIG d   1      -6.985  93.998 118.977  0.00  0.00    -0.090 HD
ATOM     21  H   LIG d   1      -7.364  92.524 119.585  0.00  0.00    -0.090 HD
ENDBRANCH   5  18
BRANCH   3  22
ATOM     22  C   LIG d   1      -2.326  93.299 119.351  0.00  0.00     0.382 C 
ATOM     23  O   LIG d   1      -1.277  92.764 119.785  0.00  0.00    -0.241 OA
ATOM     24  O   LIG d   1      -2.385  94.539 119.250  0.00  0.00    -0.241 OA
ENDBRANCH   3  22
TORSDOF 7
ENDMDL
MODEL 5
REMARK VINA RESULT:      -4.5      2.155      4.862
REMARK  7 active torsions:
REMARK  status: ('A' for Active; 'I' for Inactive)
REMARK    1  A    between atoms: C_2  and  C_3 
REMARK    2  A    between atoms: C_3  and  O_6 
REMARK    3  A    between atoms: C_3  and  C_4 
REMARK    4  A    between atoms: C_7  and  O_6 
REMARK    5  A    between atoms: C_9  and  C_10 
REMARK    6  A    between atoms: N_15  and  C_14 
REMARK    7  A    between atoms: N_20  and  C_19 
REMARK       I    between atoms: C_22  and  N_20 
ROOT
ATOM      1  C   LIG d   1      -4.940  90.412 118.236  0.00  0.00     0.161 C 
ATOM      2  C   LIG d   1      -5.700  91.572 118.459  0.00  0.00     0.016 C 
ATOM      3  C   LIG d   1      -5.128  92.840 118.712  0.00  0.00     0.038 C 
ATOM      4  C   LIG d   1      -3.747  93.065 118.608  0.00  0.00     0.028 C 
ATOM      5  C   LIG d   1      -2.909  91.821 118.883  0.00  0.00    -0.047 C 
ATOM      6  C   LIG d   1      -3.433  90.659 118.009  0.00  0.00     0.091 C 
ENDROOT
BRANCH   1   7
ATOM      7  O   LIG d   1      -5.497  89.667 117.135  0.00  0.00    -0.368 OA
BRANCH   7   8
ATOM      8  C   LIG d   1      -6.711  90.202 116.553  0.00  0.00     0.119 C 
BRANCH   8   9
ATOM      9  C   LIG d   1      -7.801  89.121 116.681  0.00  0.00     0.028 C 
ATOM     10  C   LIG d   1      -8.833  89.191 115.543  0.00  0.00     0.006 C 
ENDBRANCH   8   9
BRANCH   8  11
ATOM     11  C   LIG d   1      -6.550  90.440 115.049  0.00  0.00     0.028 C 
ATOM     12  C   LIG d   1      -6.353  91.923 114.697  0.00  0.00     0.006 C 
ENDBRANCH   8  11
ENDBRANCH   7   8
ENDBRANCH   1   7
BRANCH   6  13
ATOM     13  N   LIG d   1      -2.723  89.382 118.278  0.00  0.00    -0.311 N 
ATOM     14  C   LIG d   1      -1.622  89.005 117.630  0.00  0.00     0.210 C 
ATOM     15  C   LIG d   1      -1.060  87.642 118.048  0.00  0.00     0.109 C 
ATOM     16  O   LIG d   1      -1.039  89.684 116.772  0.00  0.00    -0.276 OA
ATOM     17  H   LIG d   1      -3.110  88.784 118.982  0.00  0.00     0.149 HD
ENDBRANCH   6  13
BRANCH   5  18
ATOM     18  N   LIG d   1      -1.500  92.162 118.606  0.00  0.00     0.381 N 
ATOM     19  H   LIG d   1      -0.903  91.682 119.249  0.00  0.00    -0.090 HD
ATOM     20  H   LIG d   1      -1.374  93.151 118.735  0.00  0.00    -0.090 HD
ATOM     21  H   LIG d   1      -1.266  91.910 117.671  0.00  0.00    -0.090 HD
ENDBRANCH   5  18
BRANCH   3  22
ATOM     22  C   LIG d   1      -5.938  93.892 119.112  0.00  0.00     0.382 C 
ATOM     23  O   LIG d   1      -7.183  93.809 118.981  0.00  0.00    -0.241 OA
ATOM     24  O   LIG d   1      -5.436  94.941 119.560  0.00  0.00    -0.241 OA
ENDBRANCH   3  22
TORSDOF 7
ENDMDL
MODEL 6
REMARK VINA RESULT:      -4.3      2.415      4.464
REMARK  7 active torsions:
REMARK  status: ('A' for Active; 'I' for Inactive)
REMARK    1  A    between atoms: C_2  and  C_3 
REMARK    2  A    between atoms: C_3  and  O_6 
REMARK    3  A    between atoms: C_3  and  C_4 
REMARK    4  A    between atoms: C_7  and  O_6 
REMARK    5  A    between atoms: C_9  and  C_10 
REMARK    6  A    between atoms: N_15  and  C_14 
REMARK    7  A    between atoms: N_20  and  C_19 
REMARK       I    between atoms: C_22  and  N_20 
ROOT
ATOM      1  C   LIG d   1      -3.594  91.812 119.563  0.00  0.00     0.161 C 
ATOM      2  C   LIG d   1      -2.848  90.669 119.230  0.00  0.00     0.016 C 
ATOM      3  C   LIG d   1      -3.313  89.667 118.348  0.00  0.00     0.038 C 
ATOM      4  C   LIG d   1      -4.502  89.815 117.617  0.00  0.00     0.028 C 
ATOM      5  C   LIG d   1      -5.526  90.713 118.303  0.00  0.00    -0.047 C 
ATOM      6  C   LIG d   1      -4.845  92.045 118.690  0.00  0.00     0.091 C 
ENDROOT
BRANCH   1   7
ATOM      7  O   LIG d   1      -2.743  92.975 119.540  0.00  0.00    -0.368 OA
BRANCH   7   8
ATOM      8  C   LIG d   1      -1.514  92.851 118.782  0.00  0.00     0.119 C 
BRANCH   8   9
ATOM      9  C   LIG d   1      -0.365  93.352 119.678  0.00  0.00     0.028 C 
ATOM     10  C   LIG d   1       0.861  92.426 119.633  0.00  0.00     0.006 C 
ENDBRANCH   8   9
BRANCH   8  11
ATOM     11  C   LIG d   1      -1.514  93.779 117.564  0.00  0.00     0.028 C 
ATOM     12  C   LIG d   1      -0.950  95.173 117.878  0.00  0.00     0.006 C 
ENDBRANCH   8  11
ENDBRANCH   7   8
ENDBRANCH   1   7
BRANCH   6  13
ATOM     13  N   LIG d   1      -5.755  92.950 119.441  0.00  0.00    -0.311 N 
ATOM     14  C   LIG d   1      -6.588  93.806 118.852  0.00  0.00     0.210 C 
ATOM     15  C   LIG d   1      -7.423  94.659 119.811  0.00  0.00     0.109 C 
ATOM     16  O   LIG d   1      -6.736  93.918 117.626  0.00  0.00    -0.276 OA
ATOM     17  H   LIG d   1      -5.722  92.903 120.441  0.00  0.00     0.149 HD
ENDBRANCH   6  13
BRANCH   5  18
ATOM     18  N   LIG d   1      -6.657  90.891 117.372  0.00  0.00     0.381 N 
ATOM     19  H   LIG d   1      -6.941  91.850 117.363  0.00  0.00    -0.090 HD
ATOM     20  H   LIG d   1      -7.431  90.335 117.690  0.00  0.00    -0.090 HD
ATOM     21  H   LIG d   1      -6.390  90.608 116.454  0.00  0.00    -0.090 HD
ENDBRANCH   5  18
BRANCH   3  22
ATOM     22  C   LIG d   1      -2.605  88.481 118.220  0.00  0.00     0.382 C 
ATOM     23  O   LIG d   1      -1.701  88.382 117.357  0.00  0.00    -0.241 OA
ATOM     24  O   LIG d   1      -2.889  87.497 118.928  0.00  0.00    -0.241 OA
ENDBRANCH   3  22
TORSDOF 7
ENDMDL
MODEL 7
REMARK VINA RESULT:      -4.3      2.458      6.128
REMARK  7 active torsions:
REMARK  status: ('A' for Active; 'I' for Inactive)
REMARK    1  A    between atoms: C_2  and  C_3 
REMARK    2  A    between atoms: C_3  and  O_6 
REMARK    3  A    between atoms: C_3  and  C_4 
REMARK    4  A    between atoms: C_7  and  O_6 
REMARK    5  A    between atoms: C_9  and  C_10 
REMARK    6  A    between atoms: N_15  and  C_14 
REMARK    7  A    between atoms: N_20  and  C_19 
REMARK       I    between atoms: C_22  and  N_20 
ROOT
ATOM      1  C   LIG d   1      -3.170  92.475 119.530  0.00  0.00     0.161 C 
ATOM      2  C   LIG d   1      -3.014  93.871 119.528  0.00  0.00     0.016 C 
ATOM      3  C   LIG d   1      -2.044  94.545 118.751  0.00  0.00     0.038 C 
ATOM      4  C   LIG d   1      -1.259  93.875 117.801  0.00  0.00     0.028 C 
ATOM      5  C   LIG d   1      -1.032  92.403 118.132  0.00  0.00    -0.047 C 
ATOM      6  C   LIG d   1      -2.397  91.737 118.417  0.00  0.00     0.091 C 
ENDROOT
BRANCH   1   7
ATOM      7  O   LIG d   1      -4.570  92.140 119.474  0.00  0.00    -0.368 OA
BRANCH   7   8
ATOM      8  C   LIG d   1      -5.332  92.758 118.407  0.00  0.00     0.119 C 
BRANCH   8   9
ATOM      9  C   LIG d   1      -6.545  93.458 119.050  0.00  0.00     0.028 C 
ATOM     10  C   LIG d   1      -6.888  94.789 118.360  0.00  0.00     0.006 C 
ENDBRANCH   8   9
BRANCH   8  11
ATOM     11  C   LIG d   1      -5.923  91.706 117.464  0.00  0.00     0.028 C 
ATOM     12  C   LIG d   1      -5.796  92.095 115.983  0.00  0.00     0.006 C 
ENDBRANCH   8  11
ENDBRANCH   7   8
ENDBRANCH   1   7
BRANCH   6  13
ATOM     13  N   LIG d   1      -2.259  90.316 118.832  0.00  0.00    -0.311 N 
ATOM     14  C   LIG d   1      -2.819  89.303 118.174  0.00  0.00     0.210 C 
ATOM     15  C   LIG d   1      -2.568  87.919 118.782  0.00  0.00     0.109 C 
ATOM     16  O   LIG d   1      -3.472  89.415 117.126  0.00  0.00    -0.276 OA
ATOM     17  H   LIG d   1      -1.719  90.132 119.654  0.00  0.00     0.149 HD
ENDBRANCH   6  13
BRANCH   5  18
ATOM     18  N   LIG d   1      -0.318  91.795 116.994  0.00  0.00     0.381 N 
ATOM     19  H   LIG d   1      -0.058  90.856 117.220  0.00  0.00    -0.090 HD
ATOM     20  H   LIG d   1       0.521  92.320 116.818  0.00  0.00    -0.090 HD
ATOM     21  H   LIG d   1      -0.898  91.802 116.184  0.00  0.00    -0.090 HD
ENDBRANCH   5  18
BRANCH   3  22
ATOM     22  C   LIG d   1      -1.824  95.900 118.949  0.00  0.00     0.382 C 
ATOM     23  O   LIG d   1      -2.426  96.505 119.868  0.00  0.00    -0.241 OA
ATOM     24  O   LIG d   1      -1.065  96.534 118.191  0.00  0.00    -0.241 OA
ENDBRANCH   3  22
TORSDOF 7
ENDMDL
MODEL 8
REMARK VINA RESULT:      -4.2      1.886      2.219
REMARK  7 active torsions:
REMARK  status: ('A' for Active; 'I' for Inactive)
REMARK    1  A    between atoms: C_2  and  C_3 
REMARK    2  A    between atoms: C_3  and  O_6 
REMARK    3  A    between atoms: C_3  and  C_4 
REMARK    4  A    between atoms: C_7  and  O_6 
REMARK    5  A    between atoms: C_9  and  C_10 
REMARK    6  A    between atoms: N_15  and  C_14 
REMARK    7  A    between atoms: N_20  and  C_19 
REMARK       I    between atoms: C_22  and  N_20 
ROOT
ATOM      1  C   LIG d   1      -2.268  89.709 117.739  0.00  0.00     0.161 C 
ATOM      2  C   LIG d   1      -3.518  89.443 117.155  0.00  0.00     0.016 C 
ATOM      3  C   LIG d   1      -4.533  90.417 117.011  0.00  0.00     0.038 C 
ATOM      4  C   LIG d   1      -4.309  91.770 117.307  0.00  0.00     0.028 C 
ATOM      5  C   LIG d   1      -3.236  91.989 118.368  0.00  0.00    -0.047 C 
ATOM      6  C   LIG d   1      -1.966  91.206 117.966  0.00  0.00     0.091 C 
ENDROOT
BRANCH   1   7
ATOM      7  O   LIG d   1      -1.223  89.101 116.956  0.00  0.00    -0.368 OA
BRANCH   7   8
ATOM      8  C   LIG d   1      -0.842  87.756 117.337  0.00  0.00     0.119 C 
BRANCH   8   9
ATOM      9  C   LIG d   1      -1.131  87.602 118.842  0.00  0.00     0.028 C 
ATOM     10  C   LIG d   1      -0.645  86.253 119.398  0.00  0.00     0.006 C 
ENDBRANCH   8   9
BRANCH   8  11
ATOM     11  C   LIG d   1       0.668  87.542 117.190  0.00  0.00     0.028 C 
ATOM     12  C   LIG d   1       1.025  86.579 116.046  0.00  0.00     0.006 C 
ENDBRANCH   8  11
ENDBRANCH   7   8
ENDBRANCH   1   7
BRANCH   6  13
ATOM     13  N   LIG d   1      -0.895  91.297 118.993  0.00  0.00    -0.311 N 
ATOM     14  C   LIG d   1       0.333  91.744 118.733  0.00  0.00     0.210 C 
ATOM     15  C   LIG d   1       1.290  91.737 119.930  0.00  0.00     0.109 C 
ATOM     16  O   LIG d   1       0.711  92.175 117.634  0.00  0.00    -0.276 OA
ATOM     17  H   LIG d   1      -1.125  90.997 119.920  0.00  0.00     0.149 HD
ENDBRANCH   6  13
BRANCH   5  18
ATOM     18  N   LIG d   1      -3.009  93.442 118.479  0.00  0.00     0.381 N 
ATOM     19  H   LIG d   1      -2.521  93.771 117.670  0.00  0.00    -0.090 HD
ATOM     20  H   LIG d   1      -2.438  93.621 119.286  0.00  0.00    -0.090 HD
ATOM     21  H   LIG d   1      -3.879  93.918 118.567  0.00  0.00    -0.090 HD
ENDBRANCH   5  18
BRANCH   3  22
ATOM     22  C   LIG d   1      -5.801  90.033 116.604  0.00  0.00     0.382 C 
ATOM     23  O   LIG d   1      -6.803  90.350 117.290  0.00  0.00    -0.241 OA
ATOM     24  O   LIG d   1      -5.952  89.334 115.584  0.00  0.00    -0.241 OA
ENDBRANCH   3  22
TORSDOF 7
ENDMDL
MODEL 9
REMARK VINA RESULT:      -4.2      1.956      4.639
REMARK  7 active torsions:
REMARK  status: ('A' for Active; 'I' for Inactive)
REMARK    1  A    between atoms: C_2  and  C_3 
REMARK    2  A    between atoms: C_3  and  O_6 
REMARK    3  A    between atoms: C_3  and  C_4 
REMARK    4  A    between atoms: C_7  and  O_6 
REMARK    5  A    between atoms: C_9  and  C_10 
REMARK    6  A    between atoms: N_15  and  C_14 
REMARK    7  A    between atoms: N_20  and  C_19 
REMARK       I    between atoms: C_22  and  N_20 
ROOT
ATOM      1  C   LIG d   1      -3.706  91.703 118.229  0.00  0.00     0.161 C 
ATOM      2  C   LIG d   1      -3.003  92.821 118.709  0.00  0.00     0.016 C 
ATOM      3  C   LIG d   1      -3.627  93.923 119.337  0.00  0.00     0.038 C 
ATOM      4  C   LIG d   1      -4.991  93.914 119.665  0.00  0.00     0.028 C 
ATOM      5  C   LIG d   1      -5.829  93.028 118.749  0.00  0.00    -0.047 C 
ATOM      6  C   LIG d   1      -5.181  91.626 118.677  0.00  0.00     0.091 C 
ENDROOT
BRANCH   1   7
ATOM      7  O   LIG d   1      -3.009  90.495 118.590  0.00  0.00    -0.368 OA
BRANCH   7   8
ATOM      8  C   LIG d   1      -2.494  89.703 117.491  0.00  0.00     0.119 C 
BRANCH   8   9
ATOM      9  C   LIG d   1      -2.671  88.219 117.867  0.00  0.00     0.028 C 
ATOM     10  C   LIG d   1      -2.903  88.019 119.374  0.00  0.00     0.006 C 
ENDBRANCH   8   9
BRANCH   8  11
ATOM     11  C   LIG d   1      -0.985  89.902 117.320  0.00  0.00     0.028 C 
ATOM     12  C   LIG d   1      -0.287  90.312 118.626  0.00  0.00     0.006 C 
ENDBRANCH   8  11
ENDBRANCH   7   8
ENDBRANCH   1   7
BRANCH   6  13
ATOM     13  N   LIG d   1      -5.890  90.721 117.736  0.00  0.00    -0.311 N 
ATOM     14  C   LIG d   1      -6.074  91.003 116.447  0.00  0.00     0.210 C 
ATOM     15  C   LIG d   1      -6.849  89.942 115.658  0.00  0.00     0.109 C 
ATOM     16  O   LIG d   1      -5.642  92.015 115.875  0.00  0.00    -0.276 OA
ATOM     17  H   LIG d   1      -6.247  89.863 118.109  0.00  0.00     0.149 HD
ENDBRANCH   6  13
BRANCH   5  18
ATOM     18  N   LIG d   1      -7.202  93.003 119.286  0.00  0.00     0.381 N 
ATOM     19  H   LIG d   1      -7.679  92.186 118.960  0.00  0.00    -0.090 HD
ATOM     20  H   LIG d   1      -7.697  93.811 118.952  0.00  0.00    -0.090 HD
ATOM     21  H   LIG d   1      -7.179  93.007 120.282  0.00  0.00    -0.090 HD
ENDBRANCH   5  18
BRANCH   3  22
ATOM     22  C   LIG d   1      -2.892  95.067 119.607  0.00  0.00     0.382 C 
ATOM     23  O   LIG d   1      -3.463  96.183 119.650  0.00  0.00    -0.241 OA
ATOM     24  O   LIG d   1      -1.658  95.002 119.765  0.00  0.00    -0.241 OA
ENDBRANCH   3  22
TORSDOF 7
ENDMDL
