MODEL 1
REMARK VINA RESULT:      -5.7      0.000      0.000
REMARK  7 active torsions:
REMARK  status: ('A' for Active; 'I' for Inactive)
REMARK    1  A    between atoms: C_2  and  C_3 
REMARK    2  A    between atoms: C_3  and  O_6 
REMARK    3  A    between atoms: C_3  and  C_4 
REMARK    4  A    between atoms: C_7  and  O_6 
REMARK    5  A    between atoms: C_9  and  C_10 
REMARK    6  A    between atoms: N_15  and  C_14 
REMARK    7  A    between atoms: N_20  and  C_19 
REMARK       I    between atoms: C_22  and  N_20 
ROOT
ATOM      1  C   LIG d   1      -4.298  89.951 116.925  0.00  0.00     0.161 C 
ATOM      2  C   LIG d   1      -3.776  89.034 115.998  0.00  0.00     0.016 C 
ATOM      3  C   LIG d   1      -4.538  88.466 114.951  0.00  0.00     0.038 C 
ATOM      4  C   LIG d   1      -5.843  88.896 114.667  0.00  0.00     0.028 C 
ATOM      5  C   LIG d   1      -6.576  89.450 115.883  0.00  0.00    -0.047 C 
ATOM      6  C   LIG d   1      -5.687  90.516 116.564  0.00  0.00     0.091 C 
ENDROOT
BRANCH   1   7
ATOM      7  O   LIG d   1      -3.358  91.025 117.132  0.00  0.00    -0.368 OA
BRANCH   7   8
ATOM      8  C   LIG d   1      -2.610  90.987 118.372  0.00  0.00     0.119 C 
BRANCH   8   9
ATOM      9  C   LIG d   1      -2.671  92.397 118.992  0.00  0.00     0.028 C 
ATOM     10  C   LIG d   1      -2.330  93.500 117.976  0.00  0.00     0.006 C 
ENDBRANCH   8   9
BRANCH   8  11
ATOM     11  C   LIG d   1      -1.124  90.719 118.119  0.00  0.00     0.028 C 
ATOM     12  C   LIG d   1      -0.776  89.222 118.141  0.00  0.00     0.006 C 
ENDBRANCH   8  11
ENDBRANCH   7   8
ENDBRANCH   1   7
BRANCH   6  13
ATOM     13  N   LIG d   1      -6.295  91.048 117.811  0.00  0.00    -0.311 N 
ATOM     14  C   LIG d   1      -6.277  92.338 118.143  0.00  0.00     0.210 C 
ATOM     15  C   LIG d   1      -6.942  92.671 119.482  0.00  0.00     0.109 C 
ATOM     16  O   LIG d   1      -5.801  93.243 117.440  0.00  0.00    -0.276 OA
ATOM     17  H   LIG d   1      -6.729  90.387 118.425  0.00  0.00     0.149 HD
ENDBRANCH   6  13
BRANCH   5  18
ATOM     18  N   LIG d   1      -7.869  89.987 115.418  0.00  0.00     0.381 N 
ATOM     19  H   LIG d   1      -7.787  90.970 115.250  0.00  0.00    -0.090 HD
ATOM     20  H   LIG d   1      -8.557  89.847 116.137  0.00  0.00    -0.090 HD
ATOM     21  H   LIG d   1      -8.151  89.522 114.583  0.00  0.00    -0.090 HD
ENDBRANCH   5  18
BRANCH   3  22
ATOM     22  C   LIG d   1      -4.008  87.428 114.200  0.00  0.00     0.382 C 
ATOM     23  O   LIG d   1      -3.906  87.544 112.954  0.00  0.00    -0.241 OA
ATOM     24  O   LIG d   1      -3.672  86.361 114.746  0.00  0.00    -0.241 OA
ENDBRANCH   3  22
TORSDOF 7
ENDMDL
MODEL 2
REMARK VINA RESULT:      -5.3      2.366      4.322
REMARK  7 active torsions:
REMARK  status: ('A' for Active; 'I' for Inactive)
REMARK    1  A    between atoms: C_2  and  C_3 
REMARK    2  A    between atoms: C_3  and  O_6 
REMARK    3  A    between atoms: C_3  and  C_4 
REMARK    4  A    between atoms: C_7  and  O_6 
REMARK    5  A    between atoms: C_9  and  C_10 
REMARK    6  A    between atoms: N_15  and  C_14 
REMARK    7  A    between atoms: N_20  and  C_19 
REMARK       I    between atoms: C_22  and  N_20 
ROOT
ATOM      1  C   LIG d   1      -4.301  91.164 116.942  0.00  0.00     0.161 C 
ATOM      2  C   LIG d   1      -5.403  91.615 116.197  0.00  0.00     0.016 C 
ATOM      3  C   LIG d   1      -5.986  90.875 115.142  0.00  0.00     0.038 C 
ATOM      4  C   LIG d   1      -5.597  89.558 114.858  0.00  0.00     0.028 C 
ATOM      5  C   LIG d   1      -4.155  89.254 115.250  0.00  0.00    -0.047 C 
ATOM      6  C   LIG d   1      -3.934  89.681 116.719  0.00  0.00     0.091 C 
ENDROOT
BRANCH   1   7
ATOM      7  O   LIG d   1      -4.519  91.421 118.343  0.00  0.00    -0.368 OA
BRANCH   7   8
ATOM      8  C   LIG d   1      -3.749  92.503 118.920  0.00  0.00     0.119 C 
BRANCH   8   9
ATOM      9  C   LIG d   1      -4.724  93.659 119.217  0.00  0.00     0.028 C 
ATOM     10  C   LIG d   1      -6.138  93.160 119.561  0.00  0.00     0.006 C 
ENDBRANCH   8   9
BRANCH   8  11
ATOM     11  C   LIG d   1      -2.743  93.070 117.913  0.00  0.00     0.028 C 
ATOM     12  C   LIG d   1      -2.236  94.468 118.300  0.00  0.00     0.006 C 
ENDBRANCH   8  11
ENDBRANCH   7   8
ENDBRANCH   1   7
BRANCH   6  13
ATOM     13  N   LIG d   1      -2.526  89.496 117.158  0.00  0.00    -0.311 N 
ATOM     14  C   LIG d   1      -2.084  88.392 117.757  0.00  0.00     0.210 C 
ATOM     15  C   LIG d   1      -0.602  88.415 118.145  0.00  0.00     0.109 C 
ATOM     16  O   LIG d   1      -2.771  87.382 117.975  0.00  0.00    -0.276 OA
ATOM     17  H   LIG d   1      -1.893  90.254 116.992  0.00  0.00     0.149 HD
ENDBRANCH   6  13
BRANCH   5  18
ATOM     18  N   LIG d   1      -3.927  87.814 115.027  0.00  0.00     0.381 N 
ATOM     19  H   LIG d   1      -4.804  87.341 114.939  0.00  0.00    -0.090 HD
ATOM     20  H   LIG d   1      -3.442  87.434 115.821  0.00  0.00    -0.090 HD
ATOM     21  H   LIG d   1      -3.385  87.678 114.202  0.00  0.00    -0.090 HD
ENDBRANCH   5  18
BRANCH   3  22
ATOM     22  C   LIG d   1      -6.942  91.469 114.333  0.00  0.00     0.382 C 
ATOM     23  O   LIG d   1      -7.459  92.562 114.671  0.00  0.00    -0.241 OA
ATOM     24  O   LIG d   1      -7.328  90.904 113.292  0.00  0.00    -0.241 OA
ENDBRANCH   3  22
TORSDOF 7
ENDMDL
MODEL 3
REMARK VINA RESULT:      -5.1      2.866      6.583
REMARK  7 active torsions:
REMARK  status: ('A' for Active; 'I' for Inactive)
REMARK    1  A    between atoms: C_2  and  C_3 
REMARK    2  A    between atoms: C_3  and  O_6 
REMARK    3  A    between atoms: C_3  and  C_4 
REMARK    4  A    between atoms: C_7  and  O_6 
REMARK    5  A    between atoms: C_9  and  C_10 
REMARK    6  A    between atoms: N_15  and  C_14 
REMARK    7  A    between atoms: N_20  and  C_19 
REMARK       I    between atoms: C_22  and  N_20 
ROOT
ATOM      1  C   LIG d   1      -5.242  92.641 117.697  0.00  0.00     0.161 C 
ATOM      2  C   LIG d   1      -6.501  93.263 117.740  0.00  0.00     0.016 C 
ATOM      3  C   LIG d   1      -6.736  94.500 118.383  0.00  0.00     0.038 C 
ATOM      4  C   LIG d   1      -5.689  95.278 118.900  0.00  0.00     0.028 C 
ATOM      5  C   LIG d   1      -4.476  94.456 119.325  0.00  0.00    -0.047 C 
ATOM      6  C   LIG d   1      -4.066  93.527 118.159  0.00  0.00     0.091 C 
ENDROOT
BRANCH   1   7
ATOM      7  O   LIG d   1      -4.994  92.131 116.372  0.00  0.00    -0.368 OA
BRANCH   7   8
ATOM      8  C   LIG d   1      -5.578  90.841 116.066  0.00  0.00     0.119 C 
BRANCH   8   9
ATOM      9  C   LIG d   1      -4.449  89.795 116.126  0.00  0.00     0.028 C 
ATOM     10  C   LIG d   1      -4.636  88.669 115.095  0.00  0.00     0.006 C 
ENDBRANCH   8   9
BRANCH   8  11
ATOM     11  C   LIG d   1      -6.099  90.793 114.626  0.00  0.00     0.028 C 
ATOM     12  C   LIG d   1      -6.855  92.069 114.223  0.00  0.00     0.006 C 
ENDBRANCH   8  11
ENDBRANCH   7   8
ENDBRANCH   1   7
BRANCH   6  13
ATOM     13  N   LIG d   1      -2.940  92.628 118.520  0.00  0.00    -0.311 N 
ATOM     14  C   LIG d   1      -1.672  92.873 118.192  0.00  0.00     0.210 C 
ATOM     15  C   LIG d   1      -0.670  91.806 118.645  0.00  0.00     0.109 C 
ATOM     16  O   LIG d   1      -1.279  93.887 117.598  0.00  0.00    -0.276 OA
ATOM     17  H   LIG d   1      -3.165  91.796 119.030  0.00  0.00     0.149 HD
ENDBRANCH   6  13
BRANCH   5  18
ATOM     18  N   LIG d   1      -3.412  95.400 119.714  0.00  0.00     0.381 N 
ATOM     19  H   LIG d   1      -3.813  96.287 119.945  0.00  0.00    -0.090 HD
ATOM     20  H   LIG d   1      -2.790  95.528 118.935  0.00  0.00    -0.090 HD
ATOM     21  H   LIG d   1      -2.908  95.042 120.495  0.00  0.00    -0.090 HD
ENDBRANCH   5  18
BRANCH   3  22
ATOM     22  C   LIG d   1      -8.036  94.952 118.549  0.00  0.00     0.382 C 
ATOM     23  O   LIG d   1      -8.933  94.158 118.922  0.00  0.00    -0.241 OA
ATOM     24  O   LIG d   1      -8.332  96.134 118.288  0.00  0.00    -0.241 OA
ENDBRANCH   3  22
TORSDOF 7
ENDMDL
MODEL 4
REMARK VINA RESULT:      -4.8      2.050      2.936
REMARK  7 active torsions:
REMARK  status: ('A' for Active; 'I' for Inactive)
REMARK    1  A    between atoms: C_2  and  C_3 
REMARK    2  A    between atoms: C_3  and  O_6 
REMARK    3  A    between atoms: C_3  and  C_4 
REMARK    4  A    between atoms: C_7  and  O_6 
REMARK    5  A    between atoms: C_9  and  C_10 
REMARK    6  A    between atoms: N_15  and  C_14 
REMARK    7  A    between atoms: N_20  and  C_19 
REMARK       I    between atoms: C_22  and  N_20 
ROOT
ATOM      1  C   LIG d   1      -3.705  90.888 117.723  0.00  0.00     0.161 C 
ATOM      2  C   LIG d   1      -4.277  89.859 116.956  0.00  0.00     0.016 C 
ATOM      3  C   LIG d   1      -5.423  90.036 116.147  0.00  0.00     0.038 C 
ATOM      4  C   LIG d   1      -5.991  91.300 115.932  0.00  0.00     0.028 C 
ATOM      5  C   LIG d   1      -5.754  92.274 117.082  0.00  0.00    -0.047 C 
ATOM      6  C   LIG d   1      -4.245  92.301 117.414  0.00  0.00     0.091 C 
ENDROOT
BRANCH   1   7
ATOM      7  O   LIG d   1      -2.271  90.860 117.588  0.00  0.00    -0.368 OA
BRANCH   7   8
ATOM      8  C   LIG d   1      -1.521  90.616 118.804  0.00  0.00     0.119 C 
BRANCH   8   9
ATOM      9  C   LIG d   1      -0.170  91.344 118.668  0.00  0.00     0.028 C 
ATOM     10  C   LIG d   1       0.145  92.229 119.886  0.00  0.00     0.006 C 
ENDBRANCH   8   9
BRANCH   8  11
ATOM     11  C   LIG d   1      -1.170  89.133 118.954  0.00  0.00     0.028 C 
ATOM     12  C   LIG d   1      -0.723  88.489 117.631  0.00  0.00     0.006 C 
ENDBRANCH   8  11
ENDBRANCH   7   8
ENDBRANCH   1   7
BRANCH   6  13
ATOM     13  N   LIG d   1      -3.937  93.165 118.583  0.00  0.00    -0.311 N 
ATOM     14  C   LIG d   1      -2.909  94.012 118.618  0.00  0.00     0.210 C 
ATOM     15  C   LIG d   1      -2.760  94.794 119.927  0.00  0.00     0.109 C 
ATOM     16  O   LIG d   1      -2.126  94.213 117.678  0.00  0.00    -0.276 OA
ATOM     17  H   LIG d   1      -4.540  93.089 119.378  0.00  0.00     0.149 HD
ENDBRANCH   6  13
BRANCH   5  18
ATOM     18  N   LIG d   1      -6.278  93.589 116.666  0.00  0.00     0.381 N 
ATOM     19  H   LIG d   1      -5.725  93.953 115.916  0.00  0.00    -0.090 HD
ATOM     20  H   LIG d   1      -6.214  94.225 117.442  0.00  0.00    -0.090 HD
ATOM     21  H   LIG d   1      -7.227  93.502 116.377  0.00  0.00    -0.090 HD
ENDBRANCH   5  18
BRANCH   3  22
ATOM     22  C   LIG d   1      -6.037  88.932 115.576  0.00  0.00     0.382 C 
ATOM     23  O   LIG d   1      -7.171  88.570 115.973  0.00  0.00    -0.241 OA
ATOM     24  O   LIG d   1      -5.453  88.268 114.699  0.00  0.00    -0.241 OA
ENDBRANCH   3  22
TORSDOF 7
ENDMDL
MODEL 5
REMARK VINA RESULT:      -4.7      2.010      5.215
REMARK  7 active torsions:
REMARK  status: ('A' for Active; 'I' for Inactive)
REMARK    1  A    between atoms: C_2  and  C_3 
REMARK    2  A    between atoms: C_3  and  O_6 
REMARK    3  A    between atoms: C_3  and  C_4 
REMARK    4  A    between atoms: C_7  and  O_6 
REMARK    5  A    between atoms: C_9  and  C_10 
REMARK    6  A    between atoms: N_15  and  C_14 
REMARK    7  A    between atoms: N_20  and  C_19 
REMARK       I    between atoms: C_22  and  N_20 
ROOT
ATOM      1  C   LIG d   1      -3.160  90.789 117.530  0.00  0.00     0.161 C 
ATOM      2  C   LIG d   1      -3.206  91.953 118.316  0.00  0.00     0.016 C 
ATOM      3  C   LIG d   1      -4.246  92.907 118.233  0.00  0.00     0.038 C 
ATOM      4  C   LIG d   1      -5.396  92.686 117.461  0.00  0.00     0.028 C 
ATOM      5  C   LIG d   1      -5.157  91.765 116.269  0.00  0.00    -0.047 C 
ATOM      6  C   LIG d   1      -4.461  90.476 116.762  0.00  0.00     0.091 C 
ENDROOT
BRANCH   1   7
ATOM      7  O   LIG d   1      -2.775  89.664 118.344  0.00  0.00    -0.368 OA
BRANCH   7   8
ATOM      8  C   LIG d   1      -1.595  88.941 117.916  0.00  0.00     0.119 C 
BRANCH   8   9
ATOM      9  C   LIG d   1      -1.901  87.436 118.050  0.00  0.00     0.028 C 
ATOM     10  C   LIG d   1      -1.905  86.715 116.692  0.00  0.00     0.006 C 
ENDBRANCH   8   9
BRANCH   8  11
ATOM     11  C   LIG d   1      -0.412  89.200 118.853  0.00  0.00     0.028 C 
ATOM     12  C   LIG d   1       0.856  89.641 118.105  0.00  0.00     0.006 C 
ENDBRANCH   8  11
ENDBRANCH   7   8
ENDBRANCH   1   7
BRANCH   6  13
ATOM     13  N   LIG d   1      -4.115  89.556 115.647  0.00  0.00    -0.311 N 
ATOM     14  C   LIG d   1      -4.928  88.597 115.208  0.00  0.00     0.210 C 
ATOM     15  C   LIG d   1      -4.369  87.749 114.062  0.00  0.00     0.109 C 
ATOM     16  O   LIG d   1      -6.073  88.389 115.638  0.00  0.00    -0.276 OA
ATOM     17  H   LIG d   1      -3.217  89.675 115.220  0.00  0.00     0.149 HD
ENDBRANCH   6  13
BRANCH   5  18
ATOM     18  N   LIG d   1      -6.463  91.510 115.633  0.00  0.00     0.381 N 
ATOM     19  H   LIG d   1      -6.418  91.743 114.661  0.00  0.00    -0.090 HD
ATOM     20  H   LIG d   1      -7.155  92.097 116.066  0.00  0.00    -0.090 HD
ATOM     21  H   LIG d   1      -6.714  90.552 115.742  0.00  0.00    -0.090 HD
ENDBRANCH   5  18
BRANCH   3  22
ATOM     22  C   LIG d   1      -4.122  94.118 118.898  0.00  0.00     0.382 C 
ATOM     23  O   LIG d   1      -5.118  94.624 119.469  0.00  0.00    -0.241 OA
ATOM     24  O   LIG d   1      -3.038  94.731 118.897  0.00  0.00    -0.241 OA
ENDBRANCH   3  22
TORSDOF 7
ENDMDL
MODEL 6
REMARK VINA RESULT:      -4.4      2.499      6.354
REMARK  7 active torsions:
REMARK  status: ('A' for Active; 'I' for Inactive)
REMARK    1  A    between atoms: C_2  and  C_3 
REMARK    2  A    between atoms: C_3  and  O_6 
REMARK    3  A    between atoms: C_3  and  C_4 
REMARK    4  A    between atoms: C_7  and  O_6 
REMARK    5  A    between atoms: C_9  and  C_10 
REMARK    6  A    between atoms: N_15  and  C_14 
REMARK    7  A    between atoms: N_20  and  C_19 
REMARK       I    between atoms: C_22  and  N_20 
ROOT
ATOM      1  C   LIG d   1      -5.275  91.428 117.384  0.00  0.00     0.161 C 
ATOM      2  C   LIG d   1      -5.965  92.638 117.561  0.00  0.00     0.016 C 
ATOM      3  C   LIG d   1      -5.457  93.721 118.315  0.00  0.00     0.038 C 
ATOM      4  C   LIG d   1      -4.149  93.723 118.821  0.00  0.00     0.028 C 
ATOM      5  C   LIG d   1      -3.604  92.326 119.097  0.00  0.00    -0.047 C 
ATOM      6  C   LIG d   1      -3.799  91.453 117.836  0.00  0.00     0.091 C 
ENDROOT
BRANCH   1   7
ATOM      7  O   LIG d   1      -5.371  91.007 116.009  0.00  0.00    -0.368 OA
BRANCH   7   8
ATOM      8  C   LIG d   1      -6.569  90.277 115.648  0.00  0.00     0.119 C 
BRANCH   8   9
ATOM      9  C   LIG d   1      -6.165  88.808 115.420  0.00  0.00     0.028 C 
ATOM     10  C   LIG d   1      -4.705  88.665 114.958  0.00  0.00     0.006 C 
ENDBRANCH   8   9
BRANCH   8  11
ATOM     11  C   LIG d   1      -7.131  90.757 114.307  0.00  0.00     0.028 C 
ATOM     12  C   LIG d   1      -6.677  92.180 113.946  0.00  0.00     0.006 C 
ENDBRANCH   8  11
ENDBRANCH   7   8
ENDBRANCH   1   7
BRANCH   6  13
ATOM     13  N   LIG d   1      -3.370  90.046 118.048  0.00  0.00    -0.311 N 
ATOM     14  C   LIG d   1      -2.152  89.598 117.747  0.00  0.00     0.210 C 
ATOM     15  C   LIG d   1      -1.924  88.109 118.026  0.00  0.00     0.109 C 
ATOM     16  O   LIG d   1      -1.230  90.299 117.305  0.00  0.00    -0.276 OA
ATOM     17  H   LIG d   1      -4.046  89.416 118.432  0.00  0.00     0.149 HD
ENDBRANCH   6  13
BRANCH   5  18
ATOM     18  N   LIG d   1      -2.189  92.468 119.488  0.00  0.00     0.381 N 
ATOM     19  H   LIG d   1      -1.602  92.045 118.797  0.00  0.00    -0.090 HD
ATOM     20  H   LIG d   1      -2.043  91.991 120.360  0.00  0.00    -0.090 HD
ATOM     21  H   LIG d   1      -1.957  93.432 119.585  0.00  0.00    -0.090 HD
ENDBRANCH   5  18
BRANCH   3  22
ATOM     22  C   LIG d   1      -6.276  94.802 118.603  0.00  0.00     0.382 C 
ATOM     23  O   LIG d   1      -7.199  95.117 117.814  0.00  0.00    -0.241 OA
ATOM     24  O   LIG d   1      -6.076  95.493 119.620  0.00  0.00    -0.241 OA
ENDBRANCH   3  22
TORSDOF 7
ENDMDL
MODEL 7
REMARK VINA RESULT:      -4.4      2.382      5.298
REMARK  7 active torsions:
REMARK  status: ('A' for Active; 'I' for Inactive)
REMARK    1  A    between atoms: C_2  and  C_3 
REMARK    2  A    between atoms: C_3  and  O_6 
REMARK    3  A    between atoms: C_3  and  C_4 
REMARK    4  A    between atoms: C_7  and  O_6 
REMARK    5  A    between atoms: C_9  and  C_10 
REMARK    6  A    between atoms: N_15  and  C_14 
REMARK    7  A    between atoms: N_20  and  C_19 
REMARK       I    between atoms: C_22  and  N_20 
ROOT
ATOM      1  C   LIG d   1      -5.713  91.408 118.654  0.00  0.00     0.161 C 
ATOM      2  C   LIG d   1      -4.517  91.873 119.226  0.00  0.00     0.016 C 
ATOM      3  C   LIG d   1      -3.238  91.576 118.703  0.00  0.00     0.038 C 
ATOM      4  C   LIG d   1      -3.073  90.913 117.478  0.00  0.00     0.028 C 
ATOM      5  C   LIG d   1      -4.235  89.989 117.128  0.00  0.00    -0.047 C 
ATOM      6  C   LIG d   1      -5.558  90.777 117.254  0.00  0.00     0.091 C 
ENDROOT
BRANCH   1   7
ATOM      7  O   LIG d   1      -6.684  92.473 118.619  0.00  0.00    -0.368 OA
BRANCH   7   8
ATOM      8  C   LIG d   1      -6.173  93.792 118.306  0.00  0.00     0.119 C 
BRANCH   8   9
ATOM      9  C   LIG d   1      -6.287  94.647 119.583  0.00  0.00     0.028 C 
ATOM     10  C   LIG d   1      -4.972  95.367 119.927  0.00  0.00     0.006 C 
ENDBRANCH   8   9
BRANCH   8  11
ATOM     11  C   LIG d   1      -7.049  94.497 117.267  0.00  0.00     0.028 C 
ATOM     12  C   LIG d   1      -8.136  95.378 117.902  0.00  0.00     0.006 C 
ENDBRANCH   8  11
ENDBRANCH   7   8
ENDBRANCH   1   7
BRANCH   6  13
ATOM     13  N   LIG d   1      -6.751  89.925 117.011  0.00  0.00    -0.311 N 
ATOM     14  C   LIG d   1      -7.225  89.657 115.795  0.00  0.00     0.210 C 
ATOM     15  C   LIG d   1      -8.476  88.773 115.769  0.00  0.00     0.109 C 
ATOM     16  O   LIG d   1      -6.708  90.040 114.734  0.00  0.00    -0.276 OA
ATOM     17  H   LIG d   1      -7.213  89.547 117.814  0.00  0.00     0.149 HD
ENDBRANCH   6  13
BRANCH   5  18
ATOM     18  N   LIG d   1      -3.998  89.471 115.767  0.00  0.00     0.381 N 
ATOM     19  H   LIG d   1      -4.769  89.709 115.175  0.00  0.00    -0.090 HD
ATOM     20  H   LIG d   1      -3.929  88.470 115.808  0.00  0.00    -0.090 HD
ATOM     21  H   LIG d   1      -3.156  89.855 115.398  0.00  0.00    -0.090 HD
ENDBRANCH   5  18
BRANCH   3  22
ATOM     22  C   LIG d   1      -2.105  91.908 119.430  0.00  0.00     0.382 C 
ATOM     23  O   LIG d   1      -1.371  91.002 119.895  0.00  0.00    -0.241 OA
ATOM     24  O   LIG d   1      -1.831  93.100 119.664  0.00  0.00    -0.241 OA
ENDBRANCH   3  22
TORSDOF 7
ENDMDL
MODEL 8
REMARK VINA RESULT:      -4.4      2.380      4.679
REMARK  7 active torsions:
REMARK  status: ('A' for Active; 'I' for Inactive)
REMARK    1  A    between atoms: C_2  and  C_3 
REMARK    2  A    between atoms: C_3  and  O_6 
REMARK    3  A    between atoms: C_3  and  C_4 
REMARK    4  A    between atoms: C_7  and  O_6 
REMARK    5  A    between atoms: C_9  and  C_10 
REMARK    6  A    between atoms: N_15  and  C_14 
REMARK    7  A    between atoms: N_20  and  C_19 
REMARK       I    between atoms: C_22  and  N_20 
ROOT
ATOM      1  C   LIG d   1      -3.092  90.479 117.470  0.00  0.00     0.161 C 
ATOM      2  C   LIG d   1      -3.934  91.602 117.530  0.00  0.00     0.016 C 
ATOM      3  C   LIG d   1      -5.171  91.685 116.851  0.00  0.00     0.038 C 
ATOM      4  C   LIG d   1      -5.725  90.583 116.183  0.00  0.00     0.028 C 
ATOM      5  C   LIG d   1      -4.681  89.595 115.674  0.00  0.00    -0.047 C 
ATOM      6  C   LIG d   1      -3.732  89.225 116.837  0.00  0.00     0.091 C 
ENDROOT
BRANCH   1   7
ATOM      7  O   LIG d   1      -2.589  90.174 118.786  0.00  0.00    -0.368 OA
BRANCH   7   8
ATOM      8  C   LIG d   1      -1.260  90.664 119.089  0.00  0.00     0.119 C 
BRANCH   8   9
ATOM      9  C   LIG d   1      -0.493  90.778 117.757  0.00  0.00     0.028 C 
ATOM     10  C   LIG d   1       0.261  92.112 117.626  0.00  0.00     0.006 C 
ENDBRANCH   8   9
BRANCH   8  11
ATOM     11  C   LIG d   1      -0.471  89.653 119.926  0.00  0.00     0.028 C 
ATOM     12  C   LIG d   1       0.502  88.812 119.085  0.00  0.00     0.006 C 
ENDBRANCH   8  11
ENDBRANCH   7   8
ENDBRANCH   1   7
BRANCH   6  13
ATOM     13  N   LIG d   1      -2.629  88.328 116.404  0.00  0.00    -0.311 N 
ATOM     14  C   LIG d   1      -2.168  87.322 117.146  0.00  0.00     0.210 C 
ATOM     15  C   LIG d   1      -1.014  86.533 116.521  0.00  0.00     0.109 C 
ATOM     16  O   LIG d   1      -2.628  86.988 118.248  0.00  0.00    -0.276 OA
ATOM     17  H   LIG d   1      -2.219  88.508 115.508  0.00  0.00     0.149 HD
ENDBRANCH   6  13
BRANCH   5  18
ATOM     18  N   LIG d   1      -5.400  88.432 115.122  0.00  0.00     0.381 N 
ATOM     19  H   LIG d   1      -5.617  88.593 114.159  0.00  0.00    -0.090 HD
ATOM     20  H   LIG d   1      -6.263  88.314 115.624  0.00  0.00    -0.090 HD
ATOM     21  H   LIG d   1      -4.841  87.612 115.211  0.00  0.00    -0.090 HD
ENDBRANCH   5  18
BRANCH   3  22
ATOM     22  C   LIG d   1      -5.849  92.893 116.804  0.00  0.00     0.382 C 
ATOM     23  O   LIG d   1      -5.791  93.684 117.776  0.00  0.00    -0.241 OA
ATOM     24  O   LIG d   1      -6.554  93.184 115.818  0.00  0.00    -0.241 OA
ENDBRANCH   3  22
TORSDOF 7
ENDMDL
MODEL 9
REMARK VINA RESULT:      -4.4      2.785      4.938
REMARK  7 active torsions:
REMARK  status: ('A' for Active; 'I' for Inactive)
REMARK    1  A    between atoms: C_2  and  C_3 
REMARK    2  A    between atoms: C_3  and  O_6 
REMARK    3  A    between atoms: C_3  and  C_4 
REMARK    4  A    between atoms: C_7  and  O_6 
REMARK    5  A    between atoms: C_9  and  C_10 
REMARK    6  A    between atoms: N_15  and  C_14 
REMARK    7  A    between atoms: N_20  and  C_19 
REMARK       I    between atoms: C_22  and  N_20 
ROOT
ATOM      1  C   LIG d   1      -2.510  89.311 117.783  0.00  0.00     0.161 C 
ATOM      2  C   LIG d   1      -3.730  89.042 117.141  0.00  0.00     0.016 C 
ATOM      3  C   LIG d   1      -4.643  90.048 116.751  0.00  0.00     0.038 C 
ATOM      4  C   LIG d   1      -4.327  91.412 116.843  0.00  0.00     0.028 C 
ATOM      5  C   LIG d   1      -3.323  91.728 117.946  0.00  0.00    -0.047 C 
ATOM      6  C   LIG d   1      -2.098  90.798 117.791  0.00  0.00     0.091 C 
ENDROOT
BRANCH   1   7
ATOM      7  O   LIG d   1      -1.465  88.505 117.205  0.00  0.00    -0.368 OA
BRANCH   7   8
ATOM      8  C   LIG d   1      -0.854  87.528 118.083  0.00  0.00     0.119 C 
BRANCH   8   9
ATOM      9  C   LIG d   1      -1.088  86.137 117.463  0.00  0.00     0.028 C 
ATOM     10  C   LIG d   1      -1.591  86.219 116.011  0.00  0.00     0.006 C 
ENDBRANCH   8   9
BRANCH   8  11
ATOM     11  C   LIG d   1      -1.553  87.488 119.445  0.00  0.00     0.028 C 
ATOM     12  C   LIG d   1      -2.175  86.117 119.755  0.00  0.00     0.006 C 
ENDBRANCH   8  11
ENDBRANCH   7   8
ENDBRANCH   1   7
BRANCH   6  13
ATOM     13  N   LIG d   1      -1.104  90.984 118.880  0.00  0.00    -0.311 N 
ATOM     14  C   LIG d   1       0.143  91.401 118.671  0.00  0.00     0.210 C 
ATOM     15  C   LIG d   1       1.010  91.505 119.930  0.00  0.00     0.109 C 
ATOM     16  O   LIG d   1       0.605  91.726 117.567  0.00  0.00    -0.276 OA
ATOM     17  H   LIG d   1      -1.404  90.773 119.812  0.00  0.00     0.149 HD
ENDBRANCH   6  13
BRANCH   5  18
ATOM     18  N   LIG d   1      -2.980  93.159 117.839  0.00  0.00     0.381 N 
ATOM     19  H   LIG d   1      -3.611  93.701 118.395  0.00  0.00    -0.090 HD
ATOM     20  H   LIG d   1      -3.077  93.446 116.881  0.00  0.00    -0.090 HD
ATOM     21  H   LIG d   1      -2.044  93.309 118.145  0.00  0.00    -0.090 HD
ENDBRANCH   5  18
BRANCH   3  22
ATOM     22  C   LIG d   1      -5.906  89.694 116.300  0.00  0.00     0.382 C 
ATOM     23  O   LIG d   1      -6.095  88.563 115.791  0.00  0.00    -0.241 OA
ATOM     24  O   LIG d   1      -6.848  90.507 116.356  0.00  0.00    -0.241 OA
ENDBRANCH   3  22
TORSDOF 7
ENDMDL
