MODEL 1
REMARK VINA RESULT:      -5.5      0.000      0.000
REMARK  7 active torsions:
REMARK  status: ('A' for Active; 'I' for Inactive)
REMARK    1  A    between atoms: C_2  and  C_3 
REMARK    2  A    between atoms: C_3  and  O_6 
REMARK    3  A    between atoms: C_3  and  C_4 
REMARK    4  A    between atoms: C_7  and  O_6 
REMARK    5  A    between atoms: C_9  and  C_10 
REMARK    6  A    between atoms: N_15  and  C_14 
REMARK    7  A    between atoms: N_20  and  C_19 
REMARK       I    between atoms: C_22  and  N_20 
ROOT
ATOM      1  C   LIG d   1      -6.194  91.747 117.365  0.00  0.00     0.161 C 
ATOM      2  C   LIG d   1      -7.189  92.735 117.446  0.00  0.00     0.016 C 
ATOM      3  C   LIG d   1      -7.090  93.873 118.280  0.00  0.00     0.038 C 
ATOM      4  C   LIG d   1      -5.914  94.177 118.982  0.00  0.00     0.028 C 
ATOM      5  C   LIG d   1      -5.077  92.949 119.323  0.00  0.00    -0.047 C 
ATOM      6  C   LIG d   1      -4.856  92.119 118.038  0.00  0.00     0.091 C 
ENDROOT
BRANCH   1   7
ATOM      7  O   LIG d   1      -5.976  91.384 115.987  0.00  0.00    -0.368 OA
BRANCH   7   8
ATOM      8  C   LIG d   1      -6.455  90.075 115.590  0.00  0.00     0.119 C 
BRANCH   8   9
ATOM      9  C   LIG d   1      -5.226  89.232 115.198  0.00  0.00     0.028 C 
ATOM     10  C   LIG d   1      -5.421  88.495 113.862  0.00  0.00     0.006 C 
ENDBRANCH   8   9
BRANCH   8  11
ATOM     11  C   LIG d   1      -7.312  90.156 114.323  0.00  0.00     0.028 C 
ATOM     12  C   LIG d   1      -7.563  91.601 113.865  0.00  0.00     0.006 C 
ENDBRANCH   8  11
ENDBRANCH   7   8
ENDBRANCH   1   7
BRANCH   6  13
ATOM     13  N   LIG d   1      -4.117  90.856 118.300  0.00  0.00    -0.311 N 
ATOM     14  C   LIG d   1      -2.793  90.749 118.207  0.00  0.00     0.210 C 
ATOM     15  C   LIG d   1      -2.236  89.352 118.499  0.00  0.00     0.109 C 
ATOM     16  O   LIG d   1      -2.024  91.686 117.943  0.00  0.00    -0.276 OA
ATOM     17  H   LIG d   1      -4.661  90.053 118.550  0.00  0.00     0.149 HD
ENDBRANCH   6  13
BRANCH   5  18
ATOM     18  N   LIG d   1      -3.818  93.423 119.929  0.00  0.00     0.381 N 
ATOM     19  H   LIG d   1      -3.220  92.644 120.120  0.00  0.00    -0.090 HD
ATOM     20  H   LIG d   1      -4.028  93.880 120.799  0.00  0.00    -0.090 HD
ATOM     21  H   LIG d   1      -3.361  94.058 119.313  0.00  0.00    -0.090 HD
ENDBRANCH   5  18
BRANCH   3  22
ATOM     22  C   LIG d   1      -8.191  94.698 118.449  0.00  0.00     0.382 C 
ATOM     23  O   LIG d   1      -9.249  94.239 118.942  0.00  0.00    -0.241 OA
ATOM     24  O   LIG d   1      -8.154  95.885 118.075  0.00  0.00    -0.241 OA
ENDBRANCH   3  22
TORSDOF 7
ENDMDL
MODEL 2
REMARK VINA RESULT:      -5.2      2.036      5.077
REMARK  7 active torsions:
REMARK  status: ('A' for Active; 'I' for Inactive)
REMARK    1  A    between atoms: C_2  and  C_3 
REMARK    2  A    between atoms: C_3  and  O_6 
REMARK    3  A    between atoms: C_3  and  C_4 
REMARK    4  A    between atoms: C_7  and  O_6 
REMARK    5  A    between atoms: C_9  and  C_10 
REMARK    6  A    between atoms: N_15  and  C_14 
REMARK    7  A    between atoms: N_20  and  C_19 
REMARK       I    between atoms: C_22  and  N_20 
ROOT
ATOM      1  C   LIG d   1      -6.124  92.563 117.506  0.00  0.00     0.161 C 
ATOM      2  C   LIG d   1      -7.100  91.707 116.970  0.00  0.00     0.016 C 
ATOM      3  C   LIG d   1      -6.818  90.405 116.496  0.00  0.00     0.038 C 
ATOM      4  C   LIG d   1      -5.559  89.811 116.667  0.00  0.00     0.028 C 
ATOM      5  C   LIG d   1      -4.418  90.820 116.745  0.00  0.00    -0.047 C 
ATOM      6  C   LIG d   1      -4.767  91.891 117.803  0.00  0.00     0.091 C 
ENDROOT
BRANCH   1   7
ATOM      7  O   LIG d   1      -6.635  93.205 118.691  0.00  0.00    -0.368 OA
BRANCH   7   8
ATOM      8  C   LIG d   1      -6.823  94.639 118.608  0.00  0.00     0.119 C 
BRANCH   8   9
ATOM      9  C   LIG d   1      -5.749  95.299 119.495  0.00  0.00     0.028 C 
ATOM     10  C   LIG d   1      -5.863  96.833 119.512  0.00  0.00     0.006 C 
ENDBRANCH   8   9
BRANCH   8  11
ATOM     11  C   LIG d   1      -8.165  95.061 119.215  0.00  0.00     0.028 C 
ATOM     12  C   LIG d   1      -8.973  93.873 119.758  0.00  0.00     0.006 C 
ENDBRANCH   8  11
ENDBRANCH   7   8
ENDBRANCH   1   7
BRANCH   6  13
ATOM     13  N   LIG d   1      -3.742  92.964 117.882  0.00  0.00    -0.311 N 
ATOM     14  C   LIG d   1      -2.751  92.967 118.773  0.00  0.00     0.210 C 
ATOM     15  C   LIG d   1      -1.816  94.178 118.695  0.00  0.00     0.109 C 
ATOM     16  O   LIG d   1      -2.540  92.066 119.599  0.00  0.00    -0.276 OA
ATOM     17  H   LIG d   1      -3.820  93.719 117.229  0.00  0.00     0.149 HD
ENDBRANCH   6  13
BRANCH   5  18
ATOM     18  N   LIG d   1      -3.185  90.075 117.061  0.00  0.00     0.381 N 
ATOM     19  H   LIG d   1      -3.382  89.365 117.738  0.00  0.00    -0.090 HD
ATOM     20  H   LIG d   1      -2.514  90.710 117.456  0.00  0.00    -0.090 HD
ATOM     21  H   LIG d   1      -2.815  89.661 116.233  0.00  0.00    -0.090 HD
ENDBRANCH   5  18
BRANCH   3  22
ATOM     22  C   LIG d   1      -7.792  89.699 115.807  0.00  0.00     0.382 C 
ATOM     23  O   LIG d   1      -8.276  88.653 116.303  0.00  0.00    -0.241 OA
ATOM     24  O   LIG d   1      -8.161  90.069 114.677  0.00  0.00    -0.241 OA
ENDBRANCH   3  22
TORSDOF 7
ENDMDL
MODEL 3
REMARK VINA RESULT:      -5.2      2.565      6.429
REMARK  7 active torsions:
REMARK  status: ('A' for Active; 'I' for Inactive)
REMARK    1  A    between atoms: C_2  and  C_3 
REMARK    2  A    between atoms: C_3  and  O_6 
REMARK    3  A    between atoms: C_3  and  C_4 
REMARK    4  A    between atoms: C_7  and  O_6 
REMARK    5  A    between atoms: C_9  and  C_10 
REMARK    6  A    between atoms: N_15  and  C_14 
REMARK    7  A    between atoms: N_20  and  C_19 
REMARK       I    between atoms: C_22  and  N_20 
ROOT
ATOM      1  C   LIG d   1      -5.705  90.188 116.385  0.00  0.00     0.161 C 
ATOM      2  C   LIG d   1      -5.090  89.215 115.580  0.00  0.00     0.016 C 
ATOM      3  C   LIG d   1      -5.565  88.851 114.299  0.00  0.00     0.038 C 
ATOM      4  C   LIG d   1      -6.606  89.547 113.669  0.00  0.00     0.028 C 
ATOM      5  C   LIG d   1      -7.578  90.199 114.646  0.00  0.00    -0.047 C 
ATOM      6  C   LIG d   1      -6.776  91.037 115.668  0.00  0.00     0.091 C 
ENDROOT
BRANCH   1   7
ATOM      7  O   LIG d   1      -4.703  91.040 116.974  0.00  0.00    -0.368 OA
BRANCH   7   8
ATOM      8  C   LIG d   1      -4.296  90.705 118.324  0.00  0.00     0.119 C 
BRANCH   8   9
ATOM      9  C   LIG d   1      -4.448  91.977 119.182  0.00  0.00     0.028 C 
ATOM     10  C   LIG d   1      -3.448  93.076 118.783  0.00  0.00     0.006 C 
ENDBRANCH   8   9
BRANCH   8  11
ATOM     11  C   LIG d   1      -2.808  90.350 118.385  0.00  0.00     0.028 C 
ATOM     12  C   LIG d   1      -2.499  89.256 119.420  0.00  0.00     0.006 C 
ENDBRANCH   8  11
ENDBRANCH   7   8
ENDBRANCH   1   7
BRANCH   6  13
ATOM     13  N   LIG d   1      -7.644  91.641 116.712  0.00  0.00    -0.311 N 
ATOM     14  C   LIG d   1      -7.420  92.840 117.248  0.00  0.00     0.210 C 
ATOM     15  C   LIG d   1      -8.426  93.265 118.323  0.00  0.00     0.109 C 
ATOM     16  O   LIG d   1      -6.503  93.604 116.913  0.00  0.00    -0.276 OA
ATOM     17  H   LIG d   1      -8.430  91.102 117.020  0.00  0.00     0.149 HD
ENDBRANCH   6  13
BRANCH   5  18
ATOM     18  N   LIG d   1      -8.530  91.004 113.858  0.00  0.00     0.381 N 
ATOM     19  H   LIG d   1      -8.039  91.518 113.155  0.00  0.00    -0.090 HD
ATOM     20  H   LIG d   1      -8.984  91.660 114.469  0.00  0.00    -0.090 HD
ATOM     21  H   LIG d   1      -9.209  90.411 113.433  0.00  0.00    -0.090 HD
ENDBRANCH   5  18
BRANCH   3  22
ATOM     22  C   LIG d   1      -5.021  87.751 113.652  0.00  0.00     0.382 C 
ATOM     23  O   LIG d   1      -4.307  86.939 114.288  0.00  0.00    -0.241 OA
ATOM     24  O   LIG d   1      -5.199  87.586 112.430  0.00  0.00    -0.241 OA
ENDBRANCH   3  22
TORSDOF 7
ENDMDL
MODEL 4
REMARK VINA RESULT:      -5.0      2.131      4.606
REMARK  7 active torsions:
REMARK  status: ('A' for Active; 'I' for Inactive)
REMARK    1  A    between atoms: C_2  and  C_3 
REMARK    2  A    between atoms: C_3  and  O_6 
REMARK    3  A    between atoms: C_3  and  C_4 
REMARK    4  A    between atoms: C_7  and  O_6 
REMARK    5  A    between atoms: C_9  and  C_10 
REMARK    6  A    between atoms: N_15  and  C_14 
REMARK    7  A    between atoms: N_20  and  C_19 
REMARK       I    between atoms: C_22  and  N_20 
ROOT
ATOM      1  C   LIG d   1      -4.443  92.283 118.276  0.00  0.00     0.161 C 
ATOM      2  C   LIG d   1      -5.581  93.104 118.342  0.00  0.00     0.016 C 
ATOM      3  C   LIG d   1      -6.786  92.821 117.659  0.00  0.00     0.038 C 
ATOM      4  C   LIG d   1      -6.986  91.610 116.980  0.00  0.00     0.028 C 
ATOM      5  C   LIG d   1      -5.694  90.982 116.467  0.00  0.00    -0.047 C 
ATOM      6  C   LIG d   1      -4.679  90.901 117.630  0.00  0.00     0.091 C 
ENDROOT
BRANCH   1   7
ATOM      7  O   LIG d   1      -3.874  92.130 119.591  0.00  0.00    -0.368 OA
BRANCH   7   8
ATOM      8  C   LIG d   1      -2.659  92.877 119.851  0.00  0.00     0.119 C 
BRANCH   8   9
ATOM      9  C   LIG d   1      -2.404  93.783 118.631  0.00  0.00     0.028 C 
ATOM     10  C   LIG d   1      -2.395  95.276 119.001  0.00  0.00     0.006 C 
ENDBRANCH   8   9
BRANCH   8  11
ATOM     11  C   LIG d   1      -1.442  91.950 119.930  0.00  0.00     0.028 C 
ATOM     12  C   LIG d   1      -0.409  92.228 118.827  0.00  0.00     0.006 C 
ENDBRANCH   8  11
ENDBRANCH   7   8
ENDBRANCH   1   7
BRANCH   6  13
ATOM     13  N   LIG d   1      -3.359  90.377 117.195  0.00  0.00    -0.311 N 
ATOM     14  C   LIG d   1      -2.703  89.415 117.842  0.00  0.00     0.210 C 
ATOM     15  C   LIG d   1      -1.348  89.036 117.236  0.00  0.00     0.109 C 
ATOM     16  O   LIG d   1      -3.129  88.817 118.842  0.00  0.00    -0.276 OA
ATOM     17  H   LIG d   1      -2.954  90.783 116.375  0.00  0.00     0.149 HD
ENDBRANCH   6  13
BRANCH   5  18
ATOM     18  N   LIG d   1      -6.033  89.662 115.903  0.00  0.00     0.381 N 
ATOM     19  H   LIG d   1      -6.851  89.738 115.331  0.00  0.00    -0.090 HD
ATOM     20  H   LIG d   1      -6.234  89.028 116.657  0.00  0.00    -0.090 HD
ATOM     21  H   LIG d   1      -5.272  89.316 115.362  0.00  0.00    -0.090 HD
ENDBRANCH   5  18
BRANCH   3  22
ATOM     22  C   LIG d   1      -7.793  93.773 117.618  0.00  0.00     0.382 C 
ATOM     23  O   LIG d   1      -7.730  94.784 118.358  0.00  0.00    -0.241 OA
ATOM     24  O   LIG d   1      -8.785  93.612 116.882  0.00  0.00    -0.241 OA
ENDBRANCH   3  22
TORSDOF 7
ENDMDL
MODEL 5
REMARK VINA RESULT:      -5.0      1.906      4.887
REMARK  7 active torsions:
REMARK  status: ('A' for Active; 'I' for Inactive)
REMARK    1  A    between atoms: C_2  and  C_3 
REMARK    2  A    between atoms: C_3  and  O_6 
REMARK    3  A    between atoms: C_3  and  C_4 
REMARK    4  A    between atoms: C_7  and  O_6 
REMARK    5  A    between atoms: C_9  and  C_10 
REMARK    6  A    between atoms: N_15  and  C_14 
REMARK    7  A    between atoms: N_20  and  C_19 
REMARK       I    between atoms: C_22  and  N_20 
ROOT
ATOM      1  C   LIG d   1      -5.640  92.181 118.085  0.00  0.00     0.161 C 
ATOM      2  C   LIG d   1      -6.465  92.107 116.950  0.00  0.00     0.016 C 
ATOM      3  C   LIG d   1      -6.273  91.170 115.909  0.00  0.00     0.038 C 
ATOM      4  C   LIG d   1      -5.329  90.138 116.005  0.00  0.00     0.028 C 
ATOM      5  C   LIG d   1      -4.143  90.483 116.900  0.00  0.00    -0.047 C 
ATOM      6  C   LIG d   1      -4.673  90.992 118.260  0.00  0.00     0.091 C 
ENDROOT
BRANCH   1   7
ATOM      7  O   LIG d   1      -6.449  92.347 119.266  0.00  0.00    -0.368 OA
BRANCH   7   8
ATOM      8  C   LIG d   1      -6.462  93.674 119.848  0.00  0.00     0.119 C 
BRANCH   8   9
ATOM      9  C   LIG d   1      -7.895  94.225 119.713  0.00  0.00     0.028 C 
ATOM     10  C   LIG d   1      -8.071  95.105 118.463  0.00  0.00     0.006 C 
ENDBRANCH   8   9
BRANCH   8  11
ATOM     11  C   LIG d   1      -5.580  94.641 119.052  0.00  0.00     0.028 C 
ATOM     12  C   LIG d   1      -4.548  95.365 119.930  0.00  0.00     0.006 C 
ENDBRANCH   8  11
ENDBRANCH   7   8
ENDBRANCH   1   7
BRANCH   6  13
ATOM     13  N   LIG d   1      -3.580  91.430 119.166  0.00  0.00    -0.311 N 
ATOM     14  C   LIG d   1      -2.658  92.328 118.821  0.00  0.00     0.210 C 
ATOM     15  C   LIG d   1      -1.609  92.623 119.898  0.00  0.00     0.109 C 
ATOM     16  O   LIG d   1      -2.628  92.931 117.738  0.00  0.00    -0.276 OA
ATOM     17  H   LIG d   1      -3.547  91.015 120.076  0.00  0.00     0.149 HD
ENDBRANCH   6  13
BRANCH   5  18
ATOM     18  N   LIG d   1      -3.309  89.272 117.021  0.00  0.00     0.381 N 
ATOM     19  H   LIG d   1      -3.268  88.800 116.140  0.00  0.00    -0.090 HD
ATOM     20  H   LIG d   1      -3.729  88.653 117.691  0.00  0.00    -0.090 HD
ATOM     21  H   LIG d   1      -2.390  89.520 117.316  0.00  0.00    -0.090 HD
ENDBRANCH   5  18
BRANCH   3  22
ATOM     22  C   LIG d   1      -7.006  91.286 114.737  0.00  0.00     0.382 C 
ATOM     23  O   LIG d   1      -6.720  92.180 113.904  0.00  0.00    -0.241 OA
ATOM     24  O   LIG d   1      -7.977  90.536 114.523  0.00  0.00    -0.241 OA
ENDBRANCH   3  22
TORSDOF 7
ENDMDL
MODEL 6
REMARK VINA RESULT:      -4.8      2.203      5.855
REMARK  7 active torsions:
REMARK  status: ('A' for Active; 'I' for Inactive)
REMARK    1  A    between atoms: C_2  and  C_3 
REMARK    2  A    between atoms: C_3  and  O_6 
REMARK    3  A    between atoms: C_3  and  C_4 
REMARK    4  A    between atoms: C_7  and  O_6 
REMARK    5  A    between atoms: C_9  and  C_10 
REMARK    6  A    between atoms: N_15  and  C_14 
REMARK    7  A    between atoms: N_20  and  C_19 
REMARK       I    between atoms: C_22  and  N_20 
ROOT
ATOM      1  C   LIG d   1      -5.595  91.605 118.241  0.00  0.00     0.161 C 
ATOM      2  C   LIG d   1      -5.144  90.629 117.337  0.00  0.00     0.016 C 
ATOM      3  C   LIG d   1      -5.664  90.479 116.031  0.00  0.00     0.038 C 
ATOM      4  C   LIG d   1      -6.573  91.397 115.484  0.00  0.00     0.028 C 
ATOM      5  C   LIG d   1      -7.430  92.098 116.533  0.00  0.00    -0.047 C 
ATOM      6  C   LIG d   1      -6.507  92.686 117.625  0.00  0.00     0.091 C 
ENDROOT
BRANCH   1   7
ATOM      7  O   LIG d   1      -4.470  92.216 118.902  0.00  0.00    -0.368 OA
BRANCH   7   8
ATOM      8  C   LIG d   1      -3.162  91.723 118.522  0.00  0.00     0.119 C 
BRANCH   8   9
ATOM      9  C   LIG d   1      -2.536  91.062 119.766  0.00  0.00     0.028 C 
ATOM     10  C   LIG d   1      -2.440  89.533 119.633  0.00  0.00     0.006 C 
ENDBRANCH   8   9
BRANCH   8  11
ATOM     11  C   LIG d   1      -2.218  92.872 118.154  0.00  0.00     0.028 C 
ATOM     12  C   LIG d   1      -0.946  92.897 119.017  0.00  0.00     0.006 C 
ENDBRANCH   8  11
ENDBRANCH   7   8
ENDBRANCH   1   7
BRANCH   6  13
ATOM     13  N   LIG d   1      -7.271  93.316 118.733  0.00  0.00    -0.311 N 
ATOM     14  C   LIG d   1      -7.775  94.547 118.669  0.00  0.00     0.210 C 
ATOM     15  C   LIG d   1      -8.510  95.012 119.930  0.00  0.00     0.109 C 
ATOM     16  O   LIG d   1      -7.712  95.286 117.675  0.00  0.00    -0.276 OA
ATOM     17  H   LIG d   1      -7.396  92.775 119.566  0.00  0.00     0.149 HD
ENDBRANCH   6  13
BRANCH   5  18
ATOM     18  N   LIG d   1      -8.232  93.124 115.840  0.00  0.00     0.381 N 
ATOM     19  H   LIG d   1      -9.187  93.063 116.134  0.00  0.00    -0.090 HD
ATOM     20  H   LIG d   1      -8.196  92.952 114.851  0.00  0.00    -0.090 HD
ATOM     21  H   LIG d   1      -7.872  94.031 116.040  0.00  0.00    -0.090 HD
ENDBRANCH   5  18
BRANCH   3  22
ATOM     22  C   LIG d   1      -5.305  89.376 115.271  0.00  0.00     0.382 C 
ATOM     23  O   LIG d   1      -5.703  89.275 114.085  0.00  0.00    -0.241 OA
ATOM     24  O   LIG d   1      -4.626  88.459 115.770  0.00  0.00    -0.241 OA
ENDBRANCH   3  22
TORSDOF 7
ENDMDL
MODEL 7
REMARK VINA RESULT:      -4.6      5.049      7.689
REMARK  7 active torsions:
REMARK  status: ('A' for Active; 'I' for Inactive)
REMARK    1  A    between atoms: C_2  and  C_3 
REMARK    2  A    between atoms: C_3  and  O_6 
REMARK    3  A    between atoms: C_3  and  C_4 
REMARK    4  A    between atoms: C_7  and  O_6 
REMARK    5  A    between atoms: C_9  and  C_10 
REMARK    6  A    between atoms: N_15  and  C_14 
REMARK    7  A    between atoms: N_20  and  C_19 
REMARK       I    between atoms: C_22  and  N_20 
ROOT
ATOM      1  C   LIG d   1       0.948  89.331 117.345  0.00  0.00     0.161 C 
ATOM      2  C   LIG d   1      -0.430  89.063 117.284  0.00  0.00     0.016 C 
ATOM      3  C   LIG d   1      -1.420  89.977 117.712  0.00  0.00     0.038 C 
ATOM      4  C   LIG d   1      -1.103  91.290 118.093  0.00  0.00     0.028 C 
ATOM      5  C   LIG d   1       0.310  91.434 118.649  0.00  0.00    -0.047 C 
ATOM      6  C   LIG d   1       1.308  90.799 117.654  0.00  0.00     0.091 C 
ENDROOT
BRANCH   1   7
ATOM      7  O   LIG d   1       1.583  88.905 116.124  0.00  0.00    -0.368 OA
BRANCH   7   8
ATOM      8  C   LIG d   1       2.530  87.816 116.244  0.00  0.00     0.119 C 
BRANCH   8   9
ATOM      9  C   LIG d   1       3.916  88.360 115.846  0.00  0.00     0.028 C 
ATOM     10  C   LIG d   1       3.822  89.560 114.889  0.00  0.00     0.006 C 
ENDBRANCH   8   9
BRANCH   8  11
ATOM     11  C   LIG d   1       2.229  86.701 115.238  0.00  0.00     0.028 C 
ATOM     12  C   LIG d   1       0.956  85.913 115.585  0.00  0.00     0.006 C 
ENDBRANCH   8  11
ENDBRANCH   7   8
ENDBRANCH   1   7
BRANCH   6  13
ATOM     13  N   LIG d   1       2.705  90.823 118.160  0.00  0.00    -0.311 N 
ATOM     14  C   LIG d   1       3.546  91.833 117.945  0.00  0.00     0.210 C 
ATOM     15  C   LIG d   1       4.946  91.646 118.538  0.00  0.00     0.109 C 
ATOM     16  O   LIG d   1       3.256  92.879 117.346  0.00  0.00    -0.276 OA
ATOM     17  H   LIG d   1       3.014  90.027 118.683  0.00  0.00     0.149 HD
ENDBRANCH   6  13
BRANCH   5  18
ATOM     18  N   LIG d   1       0.554  92.871 118.876  0.00  0.00     0.381 N 
ATOM     19  H   LIG d   1       0.209  93.135 119.777  0.00  0.00    -0.090 HD
ATOM     20  H   LIG d   1       0.057  93.399 118.181  0.00  0.00    -0.090 HD
ATOM     21  H   LIG d   1       1.530  93.065 118.816  0.00  0.00    -0.090 HD
ENDBRANCH   5  18
BRANCH   3  22
ATOM     22  C   LIG d   1      -2.742  89.568 117.800  0.00  0.00     0.382 C 
ATOM     23  O   LIG d   1      -3.589  90.002 116.982  0.00  0.00    -0.241 OA
ATOM     24  O   LIG d   1      -3.107  88.804 118.713  0.00  0.00    -0.241 OA
ENDBRANCH   3  22
TORSDOF 7
ENDMDL
MODEL 8
REMARK VINA RESULT:      -4.3      1.827      2.852
REMARK  7 active torsions:
REMARK  status: ('A' for Active; 'I' for Inactive)
REMARK    1  A    between atoms: C_2  and  C_3 
REMARK    2  A    between atoms: C_3  and  O_6 
REMARK    3  A    between atoms: C_3  and  C_4 
REMARK    4  A    between atoms: C_7  and  O_6 
REMARK    5  A    between atoms: C_9  and  C_10 
REMARK    6  A    between atoms: N_15  and  C_14 
REMARK    7  A    between atoms: N_20  and  C_19 
REMARK       I    between atoms: C_22  and  N_20 
ROOT
ATOM      1  C   LIG d   1      -5.709  92.770 119.624  0.00  0.00     0.161 C 
ATOM      2  C   LIG d   1      -7.001  93.323 119.627  0.00  0.00     0.016 C 
ATOM      3  C   LIG d   1      -7.257  94.703 119.459  0.00  0.00     0.038 C 
ATOM      4  C   LIG d   1      -6.241  95.610 119.124  0.00  0.00     0.028 C 
ATOM      5  C   LIG d   1      -4.860  95.180 119.610  0.00  0.00    -0.047 C 
ATOM      6  C   LIG d   1      -4.597  93.728 119.150  0.00  0.00     0.091 C 
ENDROOT
BRANCH   1   7
ATOM      7  O   LIG d   1      -5.697  91.561 118.840  0.00  0.00    -0.368 OA
BRANCH   7   8
ATOM      8  C   LIG d   1      -5.490  91.726 117.416  0.00  0.00     0.119 C 
BRANCH   8   9
ATOM      9  C   LIG d   1      -6.855  91.538 116.725  0.00  0.00     0.028 C 
ATOM     10  C   LIG d   1      -6.778  91.752 115.204  0.00  0.00     0.006 C 
ENDBRANCH   8   9
BRANCH   8  11
ATOM     11  C   LIG d   1      -4.594  90.621 116.850  0.00  0.00     0.028 C 
ATOM     12  C   LIG d   1      -3.798  89.884 117.939  0.00  0.00     0.006 C 
ENDBRANCH   8  11
ENDBRANCH   7   8
ENDBRANCH   1   7
BRANCH   6  13
ATOM     13  N   LIG d   1      -3.302  93.200 119.655  0.00  0.00    -0.311 N 
ATOM     14  C   LIG d   1      -2.251  92.965 118.872  0.00  0.00     0.210 C 
ATOM     15  C   LIG d   1      -1.021  92.402 119.592  0.00  0.00     0.109 C 
ATOM     16  O   LIG d   1      -2.209  93.200 117.655  0.00  0.00    -0.276 OA
ATOM     17  H   LIG d   1      -3.239  93.011 120.636  0.00  0.00     0.149 HD
ENDBRANCH   6  13
BRANCH   5  18
ATOM     18  N   LIG d   1      -3.880  96.143 119.075  0.00  0.00     0.381 N 
ATOM     19  H   LIG d   1      -3.231  95.670 118.479  0.00  0.00    -0.090 HD
ATOM     20  H   LIG d   1      -3.369  96.546 119.841  0.00  0.00    -0.090 HD
ATOM     21  H   LIG d   1      -4.348  96.860 118.566  0.00  0.00    -0.090 HD
ENDBRANCH   5  18
BRANCH   3  22
ATOM     22  C   LIG d   1      -8.537  95.194 119.666  0.00  0.00     0.382 C 
ATOM     23  O   LIG d   1      -8.707  96.409 119.929  0.00  0.00    -0.241 OA
ATOM     24  O   LIG d   1      -9.520  94.430 119.636  0.00  0.00    -0.241 OA
ENDBRANCH   3  22
TORSDOF 7
ENDMDL
MODEL 9
REMARK VINA RESULT:      -4.2      1.693      2.482
REMARK  7 active torsions:
REMARK  status: ('A' for Active; 'I' for Inactive)
REMARK    1  A    between atoms: C_2  and  C_3 
REMARK    2  A    between atoms: C_3  and  O_6 
REMARK    3  A    between atoms: C_3  and  C_4 
REMARK    4  A    between atoms: C_7  and  O_6 
REMARK    5  A    between atoms: C_9  and  C_10 
REMARK    6  A    between atoms: N_15  and  C_14 
REMARK    7  A    between atoms: N_20  and  C_19 
REMARK       I    between atoms: C_22  and  N_20 
ROOT
ATOM      1  C   LIG d   1      -5.274  92.741 118.588  0.00  0.00     0.161 C 
ATOM      2  C   LIG d   1      -6.577  93.264 118.547  0.00  0.00     0.016 C 
ATOM      3  C   LIG d   1      -6.896  94.587 118.929  0.00  0.00     0.038 C 
ATOM      4  C   LIG d   1      -5.905  95.530 119.238  0.00  0.00     0.028 C 
ATOM      5  C   LIG d   1      -4.623  94.906 119.780  0.00  0.00    -0.047 C 
ATOM      6  C   LIG d   1      -4.163  93.788 118.816  0.00  0.00     0.091 C 
ENDROOT
BRANCH   1   7
ATOM      7  O   LIG d   1      -5.012  91.986 117.389  0.00  0.00    -0.368 OA
BRANCH   7   8
ATOM      8  C   LIG d   1      -5.068  90.544 117.518  0.00  0.00     0.119 C 
BRANCH   8   9
ATOM      9  C   LIG d   1      -3.620  90.018 117.459  0.00  0.00     0.028 C 
ATOM     10  C   LIG d   1      -3.125  89.508 118.823  0.00  0.00     0.006 C 
ENDBRANCH   8   9
BRANCH   8  11
ATOM     11  C   LIG d   1      -5.781  89.904 116.323  0.00  0.00     0.028 C 
ATOM     12  C   LIG d   1      -6.486  90.936 115.429  0.00  0.00     0.006 C 
ENDBRANCH   8  11
ENDBRANCH   7   8
ENDBRANCH   1   7
BRANCH   6  13
ATOM     13  N   LIG d   1      -2.962  93.068 119.315  0.00  0.00    -0.311 N 
ATOM     14  C   LIG d   1      -1.715  93.478 119.088  0.00  0.00     0.210 C 
ATOM     15  C   LIG d   1      -0.622  92.579 119.675  0.00  0.00     0.109 C 
ATOM     16  O   LIG d   1      -1.411  94.518 118.484  0.00  0.00    -0.276 OA
ATOM     17  H   LIG d   1      -3.118  92.231 119.841  0.00  0.00     0.149 HD
ENDBRANCH   6  13
BRANCH   5  18
ATOM     18  N   LIG d   1      -3.629  95.986 119.928  0.00  0.00     0.381 N 
ATOM     19  H   LIG d   1      -3.089  96.067 119.090  0.00  0.00    -0.090 HD
ATOM     20  H   LIG d   1      -3.008  95.754 120.683  0.00  0.00    -0.090 HD
ATOM     21  H   LIG d   1      -4.090  96.848 120.120  0.00  0.00    -0.090 HD
ENDBRANCH   5  18
BRANCH   3  22
ATOM     22  C   LIG d   1      -8.225  94.967 119.044  0.00  0.00     0.382 C 
ATOM     23  O   LIG d   1      -9.133  94.105 118.964  0.00  0.00    -0.241 OA
ATOM     24  O   LIG d   1      -8.529  96.167 119.183  0.00  0.00    -0.241 OA
ENDBRANCH   3  22
TORSDOF 7
ENDMDL
