MODEL 1
REMARK VINA RESULT:      -4.9      0.000      0.000
REMARK  7 active torsions:
REMARK  status: ('A' for Active; 'I' for Inactive)
REMARK    1  A    between atoms: C_2  and  C_3 
REMARK    2  A    between atoms: C_3  and  O_6 
REMARK    3  A    between atoms: C_3  and  C_4 
REMARK    4  A    between atoms: C_7  and  O_6 
REMARK    5  A    between atoms: C_9  and  C_10 
REMARK    6  A    between atoms: N_15  and  C_14 
REMARK    7  A    between atoms: N_20  and  C_19 
REMARK       I    between atoms: C_22  and  N_20 
ROOT
ATOM      1  C   LIG d   1      -5.903  92.503 118.590  0.00  0.00     0.161 C 
ATOM      2  C   LIG d   1      -5.168  91.444 118.032  0.00  0.00     0.016 C 
ATOM      3  C   LIG d   1      -5.227  91.091 116.665  0.00  0.00     0.038 C 
ATOM      4  C   LIG d   1      -5.916  91.873 115.726  0.00  0.00     0.028 C 
ATOM      5  C   LIG d   1      -7.079  92.656 116.327  0.00  0.00    -0.047 C 
ATOM      6  C   LIG d   1      -6.574  93.437 117.562  0.00  0.00     0.091 C 
ENDROOT
BRANCH   1   7
ATOM      7  O   LIG d   1      -5.066  93.261 119.485  0.00  0.00    -0.368 OA
BRANCH   7   8
ATOM      8  C   LIG d   1      -4.331  94.361 118.892  0.00  0.00     0.119 C 
BRANCH   8   9
ATOM      9  C   LIG d   1      -2.830  94.049 119.042  0.00  0.00     0.028 C 
ATOM     10  C   LIG d   1      -2.187  93.607 117.717  0.00  0.00     0.006 C 
ENDBRANCH   8   9
BRANCH   8  11
ATOM     11  C   LIG d   1      -4.555  95.663 119.667  0.00  0.00     0.028 C 
ATOM     12  C   LIG d   1      -3.690  96.822 119.147  0.00  0.00     0.006 C 
ENDBRANCH   8  11
ENDBRANCH   7   8
ENDBRANCH   1   7
BRANCH   6  13
ATOM     13  N   LIG d   1      -7.667  94.163 118.259  0.00  0.00    -0.311 N 
ATOM     14  C   LIG d   1      -7.933  95.453 118.061  0.00  0.00     0.210 C 
ATOM     15  C   LIG d   1      -9.089  96.011 118.897  0.00  0.00     0.109 C 
ATOM     16  O   LIG d   1      -7.341  96.181 117.250  0.00  0.00    -0.276 OA
ATOM     17  H   LIG d   1      -8.217  93.641 118.912  0.00  0.00     0.149 HD
ENDBRANCH   6  13
BRANCH   5  18
ATOM     18  N   LIG d   1      -7.620  93.532 115.270  0.00  0.00     0.381 N 
ATOM     19  H   LIG d   1      -8.041  94.340 115.683  0.00  0.00    -0.090 HD
ATOM     20  H   LIG d   1      -8.329  93.031 114.764  0.00  0.00    -0.090 HD
ATOM     21  H   LIG d   1      -6.891  93.808 114.650  0.00  0.00    -0.090 HD
ENDBRANCH   5  18
BRANCH   3  22
ATOM     22  C   LIG d   1      -4.625  89.919 116.230  0.00  0.00     0.382 C 
ATOM     23  O   LIG d   1      -4.987  89.392 115.151  0.00  0.00    -0.241 OA
ATOM     24  O   LIG d   1      -3.756  89.360 116.926  0.00  0.00    -0.241 OA
ENDBRANCH   3  22
TORSDOF 7
ENDMDL
MODEL 2
REMARK VINA RESULT:      -4.7      2.733      6.283
REMARK  7 active torsions:
REMARK  status: ('A' for Active; 'I' for Inactive)
REMARK    1  A    between atoms: C_2  and  C_3 
REMARK    2  A    between atoms: C_3  and  O_6 
REMARK    3  A    between atoms: C_3  and  C_4 
REMARK    4  A    between atoms: C_7  and  O_6 
REMARK    5  A    between atoms: C_9  and  C_10 
REMARK    6  A    between atoms: N_15  and  C_14 
REMARK    7  A    between atoms: N_20  and  C_19 
REMARK       I    between atoms: C_22  and  N_20 
ROOT
ATOM      1  C   LIG d   1      -5.913  91.077 118.406  0.00  0.00     0.161 C 
ATOM      2  C   LIG d   1      -6.578  92.302 118.232  0.00  0.00     0.016 C 
ATOM      3  C   LIG d   1      -5.937  93.557 118.345  0.00  0.00     0.038 C 
ATOM      4  C   LIG d   1      -4.547  93.670 118.492  0.00  0.00     0.028 C 
ATOM      5  C   LIG d   1      -3.910  92.464 119.176  0.00  0.00    -0.047 C 
ATOM      6  C   LIG d   1      -4.374  91.177 118.457  0.00  0.00     0.091 C 
ENDROOT
BRANCH   1   7
ATOM      7  O   LIG d   1      -6.321  90.150 117.380  0.00  0.00    -0.368 OA
BRANCH   7   8
ATOM      8  C   LIG d   1      -6.827  90.736 116.156  0.00  0.00     0.119 C 
BRANCH   8   9
ATOM      9  C   LIG d   1      -8.007  89.867 115.680  0.00  0.00     0.028 C 
ATOM     10  C   LIG d   1      -8.639  89.058 116.824  0.00  0.00     0.006 C 
ENDBRANCH   8   9
BRANCH   8  11
ATOM     11  C   LIG d   1      -5.789  90.661 115.032  0.00  0.00     0.028 C 
ATOM     12  C   LIG d   1      -4.797  89.501 115.214  0.00  0.00     0.006 C 
ENDBRANCH   8  11
ENDBRANCH   7   8
ENDBRANCH   1   7
BRANCH   6  13
ATOM     13  N   LIG d   1      -3.864  89.945 119.114  0.00  0.00    -0.311 N 
ATOM     14  C   LIG d   1      -2.789  89.281 118.694  0.00  0.00     0.210 C 
ATOM     15  C   LIG d   1      -2.448  88.026 119.503  0.00  0.00     0.109 C 
ATOM     16  O   LIG d   1      -2.067  89.631 117.748  0.00  0.00    -0.276 OA
ATOM     17  H   LIG d   1      -4.372  89.609 119.909  0.00  0.00     0.149 HD
ENDBRANCH   6  13
BRANCH   5  18
ATOM     18  N   LIG d   1      -2.448  92.652 119.139  0.00  0.00     0.381 N 
ATOM     19  H   LIG d   1      -2.012  92.051 119.811  0.00  0.00    -0.090 HD
ATOM     20  H   LIG d   1      -2.236  93.603 119.383  0.00  0.00    -0.090 HD
ATOM     21  H   LIG d   1      -2.100  92.450 118.228  0.00  0.00    -0.090 HD
ENDBRANCH   5  18
BRANCH   3  22
ATOM     22  C   LIG d   1      -6.696  94.718 118.351  0.00  0.00     0.382 C 
ATOM     23  O   LIG d   1      -6.247  95.758 118.891  0.00  0.00    -0.241 OA
ATOM     24  O   LIG d   1      -7.842  94.726 117.863  0.00  0.00    -0.241 OA
ENDBRANCH   3  22
TORSDOF 7
ENDMDL
MODEL 3
REMARK VINA RESULT:      -4.5      2.748      5.155
REMARK  7 active torsions:
REMARK  status: ('A' for Active; 'I' for Inactive)
REMARK    1  A    between atoms: C_2  and  C_3 
REMARK    2  A    between atoms: C_3  and  O_6 
REMARK    3  A    between atoms: C_3  and  C_4 
REMARK    4  A    between atoms: C_7  and  O_6 
REMARK    5  A    between atoms: C_9  and  C_10 
REMARK    6  A    between atoms: N_15  and  C_14 
REMARK    7  A    between atoms: N_20  and  C_19 
REMARK       I    between atoms: C_22  and  N_20 
ROOT
ATOM      1  C   LIG d   1      -3.727  92.364 117.622  0.00  0.00     0.161 C 
ATOM      2  C   LIG d   1      -4.895  93.056 117.260  0.00  0.00     0.016 C 
ATOM      3  C   LIG d   1      -5.889  92.514 116.414  0.00  0.00     0.038 C 
ATOM      4  C   LIG d   1      -5.855  91.177 115.991  0.00  0.00     0.028 C 
ATOM      5  C   LIG d   1      -4.445  90.600 115.919  0.00  0.00    -0.047 C 
ATOM      6  C   LIG d   1      -3.726  90.864 117.261  0.00  0.00     0.091 C 
ENDROOT
BRANCH   1   7
ATOM      7  O   LIG d   1      -3.471  92.541 119.029  0.00  0.00    -0.368 OA
BRANCH   7   8
ATOM      8  C   LIG d   1      -2.386  93.438 119.372  0.00  0.00     0.119 C 
BRANCH   8   9
ATOM      9  C   LIG d   1      -3.008  94.800 119.735  0.00  0.00     0.028 C 
ATOM     10  C   LIG d   1      -1.997  95.954 119.628  0.00  0.00     0.006 C 
ENDBRANCH   8   9
BRANCH   8  11
ATOM     11  C   LIG d   1      -1.486  93.712 118.163  0.00  0.00     0.028 C 
ATOM     12  C   LIG d   1      -0.112  93.033 118.276  0.00  0.00     0.006 C 
ENDBRANCH   8  11
ENDBRANCH   7   8
ENDBRANCH   1   7
BRANCH   6  13
ATOM     13  N   LIG d   1      -2.312  90.406 117.245  0.00  0.00    -0.311 N 
ATOM     14  C   LIG d   1      -1.915  89.235 117.741  0.00  0.00     0.210 C 
ATOM     15  C   LIG d   1      -0.410  88.968 117.642  0.00  0.00     0.109 C 
ATOM     16  O   LIG d   1      -2.671  88.379 118.225  0.00  0.00    -0.276 OA
ATOM     17  H   LIG d   1      -1.636  91.026 116.843  0.00  0.00     0.149 HD
ENDBRANCH   6  13
BRANCH   5  18
ATOM     18  N   LIG d   1      -4.567  89.165 115.600  0.00  0.00     0.381 N 
ATOM     19  H   LIG d   1      -3.774  88.868 115.067  0.00  0.00    -0.090 HD
ATOM     20  H   LIG d   1      -5.391  89.024 115.043  0.00  0.00    -0.090 HD
ATOM     21  H   LIG d   1      -4.629  88.633 116.440  0.00  0.00    -0.090 HD
ENDBRANCH   5  18
BRANCH   3  22
ATOM     22  C   LIG d   1      -6.913  93.326 115.949  0.00  0.00     0.382 C 
ATOM     23  O   LIG d   1      -7.164  93.377 114.721  0.00  0.00    -0.241 OA
ATOM     24  O   LIG d   1      -7.559  94.041 116.738  0.00  0.00    -0.241 OA
ENDBRANCH   3  22
TORSDOF 7
ENDMDL
MODEL 4
REMARK VINA RESULT:      -4.5      2.760      4.759
REMARK  7 active torsions:
REMARK  status: ('A' for Active; 'I' for Inactive)
REMARK    1  A    between atoms: C_2  and  C_3 
REMARK    2  A    between atoms: C_3  and  O_6 
REMARK    3  A    between atoms: C_3  and  C_4 
REMARK    4  A    between atoms: C_7  and  O_6 
REMARK    5  A    between atoms: C_9  and  C_10 
REMARK    6  A    between atoms: N_15  and  C_14 
REMARK    7  A    between atoms: N_20  and  C_19 
REMARK       I    between atoms: C_22  and  N_20 
ROOT
ATOM      1  C   LIG d   1      -4.031  91.044 117.521  0.00  0.00     0.161 C 
ATOM      2  C   LIG d   1      -5.036  90.368 116.808  0.00  0.00     0.016 C 
ATOM      3  C   LIG d   1      -6.254  90.972 116.418  0.00  0.00     0.038 C 
ATOM      4  C   LIG d   1      -6.487  92.345 116.586  0.00  0.00     0.028 C 
ATOM      5  C   LIG d   1      -5.713  92.954 117.750  0.00  0.00    -0.047 C 
ATOM      6  C   LIG d   1      -4.221  92.572 117.615  0.00  0.00     0.091 C 
ENDROOT
BRANCH   1   7
ATOM      7  O   LIG d   1      -2.741  90.733 116.960  0.00  0.00    -0.368 OA
BRANCH   7   8
ATOM      8  C   LIG d   1      -1.770  90.163 117.871  0.00  0.00     0.119 C 
BRANCH   8   9
ATOM      9  C   LIG d   1      -0.369  90.537 117.349  0.00  0.00     0.028 C 
ATOM     10  C   LIG d   1       0.672  89.439 117.623  0.00  0.00     0.006 C 
ENDBRANCH   8   9
BRANCH   8  11
ATOM     11  C   LIG d   1      -1.815  88.632 117.848  0.00  0.00     0.028 C 
ATOM     12  C   LIG d   1      -2.497  88.038 119.091  0.00  0.00     0.006 C 
ENDBRANCH   8  11
ENDBRANCH   7   8
ENDBRANCH   1   7
BRANCH   6  13
ATOM     13  N   LIG d   1      -3.406  93.057 118.759  0.00  0.00    -0.311 N 
ATOM     14  C   LIG d   1      -2.233  93.671 118.615  0.00  0.00     0.210 C 
ATOM     15  C   LIG d   1      -1.548  94.072 119.926  0.00  0.00     0.109 C 
ATOM     16  O   LIG d   1      -1.710  93.952 117.526  0.00  0.00    -0.276 OA
ATOM     17  H   LIG d   1      -3.771  92.899 119.678  0.00  0.00     0.149 HD
ENDBRANCH   6  13
BRANCH   5  18
ATOM     18  N   LIG d   1      -5.942  94.411 117.724  0.00  0.00     0.381 N 
ATOM     19  H   LIG d   1      -6.910  94.599 117.560  0.00  0.00    -0.090 HD
ATOM     20  H   LIG d   1      -5.411  94.810 116.970  0.00  0.00    -0.090 HD
ATOM     21  H   LIG d   1      -5.659  94.816 118.590  0.00  0.00    -0.090 HD
ENDBRANCH   5  18
BRANCH   3  22
ATOM     22  C   LIG d   1      -7.270  90.191 115.890  0.00  0.00     0.382 C 
ATOM     23  O   LIG d   1      -7.734  89.233 116.555  0.00  0.00    -0.241 OA
ATOM     24  O   LIG d   1      -7.698  90.404 114.740  0.00  0.00    -0.241 OA
ENDBRANCH   3  22
TORSDOF 7
ENDMDL
MODEL 5
REMARK VINA RESULT:      -4.5      1.472      2.271
REMARK  7 active torsions:
REMARK  status: ('A' for Active; 'I' for Inactive)
REMARK    1  A    between atoms: C_2  and  C_3 
REMARK    2  A    between atoms: C_3  and  O_6 
REMARK    3  A    between atoms: C_3  and  C_4 
REMARK    4  A    between atoms: C_7  and  O_6 
REMARK    5  A    between atoms: C_9  and  C_10 
REMARK    6  A    between atoms: N_15  and  C_14 
REMARK    7  A    between atoms: N_20  and  C_19 
REMARK       I    between atoms: C_22  and  N_20 
ROOT
ATOM      1  C   LIG d   1      -4.889  92.679 117.516  0.00  0.00     0.161 C 
ATOM      2  C   LIG d   1      -4.555  91.460 116.903  0.00  0.00     0.016 C 
ATOM      3  C   LIG d   1      -5.288  90.902 115.830  0.00  0.00     0.038 C 
ATOM      4  C   LIG d   1      -6.323  91.603 115.195  0.00  0.00     0.028 C 
ATOM      5  C   LIG d   1      -7.018  92.612 116.104  0.00  0.00    -0.047 C 
ATOM      6  C   LIG d   1      -5.949  93.512 116.764  0.00  0.00     0.091 C 
ENDROOT
BRANCH   1   7
ATOM      7  O   LIG d   1      -3.698  93.461 117.732  0.00  0.00    -0.368 OA
BRANCH   7   8
ATOM      8  C   LIG d   1      -3.040  93.280 119.010  0.00  0.00     0.119 C 
BRANCH   8   9
ATOM      9  C   LIG d   1      -3.437  94.469 119.907  0.00  0.00     0.028 C 
ATOM     10  C   LIG d   1      -3.501  95.794 119.130  0.00  0.00     0.006 C 
ENDBRANCH   8   9
BRANCH   8  11
ATOM     11  C   LIG d   1      -1.517  93.369 118.870  0.00  0.00     0.028 C 
ATOM     12  C   LIG d   1      -0.952  92.356 117.861  0.00  0.00     0.006 C 
ENDBRANCH   8  11
ENDBRANCH   7   8
ENDBRANCH   1   7
BRANCH   6  13
ATOM     13  N   LIG d   1      -6.537  94.472 117.734  0.00  0.00    -0.311 N 
ATOM     14  C   LIG d   1      -7.132  94.100 118.866  0.00  0.00     0.210 C 
ATOM     15  C   LIG d   1      -7.688  95.249 119.713  0.00  0.00     0.109 C 
ATOM     16  O   LIG d   1      -7.224  92.929 119.264  0.00  0.00    -0.276 OA
ATOM     17  H   LIG d   1      -6.478  95.445 117.505  0.00  0.00     0.149 HD
ENDBRANCH   6  13
BRANCH   5  18
ATOM     18  N   LIG d   1      -7.980  93.367 115.279  0.00  0.00     0.381 N 
ATOM     19  H   LIG d   1      -8.701  92.755 114.954  0.00  0.00    -0.090 HD
ATOM     20  H   LIG d   1      -7.499  93.740 114.479  0.00  0.00    -0.090 HD
ATOM     21  H   LIG d   1      -8.378  94.108 115.812  0.00  0.00    -0.090 HD
ENDBRANCH   5  18
BRANCH   3  22
ATOM     22  C   LIG d   1      -5.012  89.610 115.409  0.00  0.00     0.382 C 
ATOM     23  O   LIG d   1      -4.292  88.861 116.112  0.00  0.00    -0.241 OA
ATOM     24  O   LIG d   1      -5.438  89.198 114.313  0.00  0.00    -0.241 OA
ENDBRANCH   3  22
TORSDOF 7
ENDMDL
MODEL 6
REMARK VINA RESULT:      -4.4      3.716      6.556
REMARK  7 active torsions:
REMARK  status: ('A' for Active; 'I' for Inactive)
REMARK    1  A    between atoms: C_2  and  C_3 
REMARK    2  A    between atoms: C_3  and  O_6 
REMARK    3  A    between atoms: C_3  and  C_4 
REMARK    4  A    between atoms: C_7  and  O_6 
REMARK    5  A    between atoms: C_9  and  C_10 
REMARK    6  A    between atoms: N_15  and  C_14 
REMARK    7  A    between atoms: N_20  and  C_19 
REMARK       I    between atoms: C_22  and  N_20 
ROOT
ATOM      1  C   LIG d   1      -1.062  91.697 117.691  0.00  0.00     0.161 C 
ATOM      2  C   LIG d   1      -0.274  92.700 118.279  0.00  0.00     0.016 C 
ATOM      3  C   LIG d   1      -0.787  93.951 118.692  0.00  0.00     0.038 C 
ATOM      4  C   LIG d   1      -2.162  94.227 118.684  0.00  0.00     0.028 C 
ATOM      5  C   LIG d   1      -2.933  93.436 117.632  0.00  0.00    -0.047 C 
ATOM      6  C   LIG d   1      -2.584  91.937 117.776  0.00  0.00     0.091 C 
ENDROOT
BRANCH   1   7
ATOM      7  O   LIG d   1      -0.725  90.415 118.258  0.00  0.00    -0.368 OA
BRANCH   7   8
ATOM      8  C   LIG d   1      -0.123  89.457 117.354  0.00  0.00     0.119 C 
BRANCH   8   9
ATOM      9  C   LIG d   1      -0.627  88.058 117.759  0.00  0.00     0.028 C 
ATOM     10  C   LIG d   1      -1.979  88.110 118.490  0.00  0.00     0.006 C 
ENDBRANCH   8   9
BRANCH   8  11
ATOM     11  C   LIG d   1       1.398  89.406 117.528  0.00  0.00     0.028 C 
ATOM     12  C   LIG d   1       2.150  90.155 116.417  0.00  0.00     0.006 C 
ENDBRANCH   8  11
ENDBRANCH   7   8
ENDBRANCH   1   7
BRANCH   6  13
ATOM     13  N   LIG d   1      -3.230  91.102 116.730  0.00  0.00    -0.311 N 
ATOM     14  C   LIG d   1      -4.358  90.422 116.929  0.00  0.00     0.210 C 
ATOM     15  C   LIG d   1      -4.843  89.608 115.724  0.00  0.00     0.109 C 
ATOM     16  O   LIG d   1      -5.020  90.440 117.977  0.00  0.00    -0.276 OA
ATOM     17  H   LIG d   1      -2.777  91.056 115.838  0.00  0.00     0.149 HD
ENDBRANCH   6  13
BRANCH   5  18
ATOM     18  N   LIG d   1      -4.368  93.717 117.826  0.00  0.00     0.381 N 
ATOM     19  H   LIG d   1      -4.490  94.663 118.128  0.00  0.00    -0.090 HD
ATOM     20  H   LIG d   1      -4.724  93.109 118.542  0.00  0.00    -0.090 HD
ATOM     21  H   LIG d   1      -4.863  93.566 116.974  0.00  0.00    -0.090 HD
ENDBRANCH   5  18
BRANCH   3  22
ATOM     22  C   LIG d   1       0.084  94.956 119.084  0.00  0.00     0.382 C 
ATOM     23  O   LIG d   1       1.167  94.663 119.647  0.00  0.00    -0.241 OA
ATOM     24  O   LIG d   1      -0.218  96.153 118.921  0.00  0.00    -0.241 OA
ENDBRANCH   3  22
TORSDOF 7
ENDMDL
MODEL 7
REMARK VINA RESULT:      -4.3      2.329      5.796
REMARK  7 active torsions:
REMARK  status: ('A' for Active; 'I' for Inactive)
REMARK    1  A    between atoms: C_2  and  C_3 
REMARK    2  A    between atoms: C_3  and  O_6 
REMARK    3  A    between atoms: C_3  and  C_4 
REMARK    4  A    between atoms: C_7  and  O_6 
REMARK    5  A    between atoms: C_9  and  C_10 
REMARK    6  A    between atoms: N_15  and  C_14 
REMARK    7  A    between atoms: N_20  and  C_19 
REMARK       I    between atoms: C_22  and  N_20 
ROOT
ATOM      1  C   LIG d   1      -5.584  93.226 118.110  0.00  0.00     0.161 C 
ATOM      2  C   LIG d   1      -6.810  93.904 118.016  0.00  0.00     0.016 C 
ATOM      3  C   LIG d   1      -7.016  95.212 118.513  0.00  0.00     0.038 C 
ATOM      4  C   LIG d   1      -5.960  95.994 119.005  0.00  0.00     0.028 C 
ATOM      5  C   LIG d   1      -4.814  95.169 119.581  0.00  0.00    -0.047 C 
ATOM      6  C   LIG d   1      -4.391  94.104 118.543  0.00  0.00     0.091 C 
ENDROOT
BRANCH   1   7
ATOM      7  O   LIG d   1      -5.293  92.567 116.861  0.00  0.00    -0.368 OA
BRANCH   7   8
ATOM      8  C   LIG d   1      -5.788  91.212 116.726  0.00  0.00     0.119 C 
BRANCH   8   9
ATOM      9  C   LIG d   1      -4.637  90.353 116.166  0.00  0.00     0.028 C 
ATOM     10  C   LIG d   1      -3.642  89.923 117.257  0.00  0.00     0.006 C 
ENDBRANCH   8   9
BRANCH   8  11
ATOM     11  C   LIG d   1      -6.903  91.128 115.679  0.00  0.00     0.028 C 
ATOM     12  C   LIG d   1      -6.546  91.849 114.369  0.00  0.00     0.006 C 
ENDBRANCH   8  11
ENDBRANCH   7   8
ENDBRANCH   1   7
BRANCH   6  13
ATOM     13  N   LIG d   1      -3.331  93.199 119.060  0.00  0.00    -0.311 N 
ATOM     14  C   LIG d   1      -2.134  93.072 118.490  0.00  0.00     0.210 C 
ATOM     15  C   LIG d   1      -1.196  92.070 119.171  0.00  0.00     0.109 C 
ATOM     16  O   LIG d   1      -1.748  93.718 117.504  0.00  0.00    -0.276 OA
ATOM     17  H   LIG d   1      -3.548  92.661 119.875  0.00  0.00     0.149 HD
ENDBRANCH   6  13
BRANCH   5  18
ATOM     18  N   LIG d   1      -3.726  96.101 119.930  0.00  0.00     0.381 N 
ATOM     19  H   LIG d   1      -3.401  95.912 120.857  0.00  0.00    -0.090 HD
ATOM     20  H   LIG d   1      -4.082  97.040 119.906  0.00  0.00    -0.090 HD
ATOM     21  H   LIG d   1      -2.975  96.007 119.281  0.00  0.00    -0.090 HD
ENDBRANCH   5  18
BRANCH   3  22
ATOM     22  C   LIG d   1      -8.299  95.737 118.556  0.00  0.00     0.382 C 
ATOM     23  O   LIG d   1      -8.527  96.784 119.208  0.00  0.00    -0.241 OA
ATOM     24  O   LIG d   1      -9.241  95.151 117.988  0.00  0.00    -0.241 OA
ENDBRANCH   3  22
TORSDOF 7
ENDMDL
MODEL 8
REMARK VINA RESULT:      -4.2      2.279      4.077
REMARK  7 active torsions:
REMARK  status: ('A' for Active; 'I' for Inactive)
REMARK    1  A    between atoms: C_2  and  C_3 
REMARK    2  A    between atoms: C_3  and  O_6 
REMARK    3  A    between atoms: C_3  and  C_4 
REMARK    4  A    between atoms: C_7  and  O_6 
REMARK    5  A    between atoms: C_9  and  C_10 
REMARK    6  A    between atoms: N_15  and  C_14 
REMARK    7  A    between atoms: N_20  and  C_19 
REMARK       I    between atoms: C_22  and  N_20 
ROOT
ATOM      1  C   LIG d   1      -5.805  92.792 117.811  0.00  0.00     0.161 C 
ATOM      2  C   LIG d   1      -6.631  91.845 117.184  0.00  0.00     0.016 C 
ATOM      3  C   LIG d   1      -6.138  90.688 116.539  0.00  0.00     0.038 C 
ATOM      4  C   LIG d   1      -4.786  90.319 116.610  0.00  0.00     0.028 C 
ATOM      5  C   LIG d   1      -3.844  91.504 116.800  0.00  0.00    -0.047 C 
ATOM      6  C   LIG d   1      -4.338  92.351 117.995  0.00  0.00     0.091 C 
ENDROOT
BRANCH   1   7
ATOM      7  O   LIG d   1      -6.376  93.175 119.079  0.00  0.00    -0.368 OA
BRANCH   7   8
ATOM      8  C   LIG d   1      -7.278  94.308 119.056  0.00  0.00     0.119 C 
BRANCH   8   9
ATOM      9  C   LIG d   1      -7.287  94.864 117.619  0.00  0.00     0.028 C 
ATOM     10  C   LIG d   1      -8.560  95.669 117.309  0.00  0.00     0.006 C 
ENDBRANCH   8   9
BRANCH   8  11
ATOM     11  C   LIG d   1      -6.757  95.453 119.930  0.00  0.00     0.028 C 
ATOM     12  C   LIG d   1      -5.505  96.126 119.346  0.00  0.00     0.006 C 
ENDBRANCH   8  11
ENDBRANCH   7   8
ENDBRANCH   1   7
BRANCH   6  13
ATOM     13  N   LIG d   1      -3.522  93.576 118.197  0.00  0.00    -0.311 N 
ATOM     14  C   LIG d   1      -2.500  93.644 119.049  0.00  0.00     0.210 C 
ATOM     15  C   LIG d   1      -1.806  95.008 119.118  0.00  0.00     0.109 C 
ATOM     16  O   LIG d   1      -2.083  92.695 119.730  0.00  0.00    -0.276 OA
ATOM     17  H   LIG d   1      -3.772  94.384 117.662  0.00  0.00     0.149 HD
ENDBRANCH   6  13
BRANCH   5  18
ATOM     18  N   LIG d   1      -2.485  90.966 116.995  0.00  0.00     0.381 N 
ATOM     19  H   LIG d   1      -2.308  90.243 116.327  0.00  0.00    -0.090 HD
ATOM     20  H   LIG d   1      -2.422  90.568 117.915  0.00  0.00    -0.090 HD
ATOM     21  H   LIG d   1      -1.812  91.694 116.893  0.00  0.00    -0.090 HD
ENDBRANCH   5  18
BRANCH   3  22
ATOM     22  C   LIG d   1      -6.994  89.905 115.780  0.00  0.00     0.382 C 
ATOM     23  O   LIG d   1      -8.054  89.463 116.286  0.00  0.00    -0.241 OA
ATOM     24  O   LIG d   1      -6.700  89.599 114.609  0.00  0.00    -0.241 OA
ENDBRANCH   3  22
TORSDOF 7
ENDMDL
MODEL 9
REMARK VINA RESULT:      -4.1      6.661      9.643
REMARK  7 active torsions:
REMARK  status: ('A' for Active; 'I' for Inactive)
REMARK    1  A    between atoms: C_2  and  C_3 
REMARK    2  A    between atoms: C_3  and  O_6 
REMARK    3  A    between atoms: C_3  and  C_4 
REMARK    4  A    between atoms: C_7  and  O_6 
REMARK    5  A    between atoms: C_9  and  C_10 
REMARK    6  A    between atoms: N_15  and  C_14 
REMARK    7  A    between atoms: N_20  and  C_19 
REMARK       I    between atoms: C_22  and  N_20 
ROOT
ATOM      1  C   LIG d   1       1.027  88.340 116.631  0.00  0.00     0.161 C 
ATOM      2  C   LIG d   1      -0.278  88.076 117.079  0.00  0.00     0.016 C 
ATOM      3  C   LIG d   1      -1.136  89.069 117.604  0.00  0.00     0.038 C 
ATOM      4  C   LIG d   1      -0.799  90.431 117.577  0.00  0.00     0.028 C 
ATOM      5  C   LIG d   1       0.705  90.682 117.600  0.00  0.00    -0.047 C 
ATOM      6  C   LIG d   1       1.372  89.837 116.491  0.00  0.00     0.091 C 
ENDROOT
BRANCH   1   7
ATOM      7  O   LIG d   1       1.265  87.652 115.387  0.00  0.00    -0.368 OA
BRANCH   7   8
ATOM      8  C   LIG d   1       1.750  86.290 115.495  0.00  0.00     0.119 C 
BRANCH   8   9
ATOM      9  C   LIG d   1       3.285  86.353 115.613  0.00  0.00     0.028 C 
ATOM     10  C   LIG d   1       3.975  86.475 114.244  0.00  0.00     0.006 C 
ENDBRANCH   8   9
BRANCH   8  11
ATOM     11  C   LIG d   1       1.474  85.498 114.213  0.00  0.00     0.028 C 
ATOM     12  C   LIG d   1       0.288  86.057 113.411  0.00  0.00     0.006 C 
ENDBRANCH   8  11
ENDBRANCH   7   8
ENDBRANCH   1   7
BRANCH   6  13
ATOM     13  N   LIG d   1       2.853  89.960 116.498  0.00  0.00    -0.311 N 
ATOM     14  C   LIG d   1       3.589  90.030 115.389  0.00  0.00     0.210 C 
ATOM     15  C   LIG d   1       5.099  90.133 115.621  0.00  0.00     0.109 C 
ATOM     16  O   LIG d   1       3.131  90.050 114.237  0.00  0.00    -0.276 OA
ATOM     17  H   LIG d   1       3.305  89.983 117.391  0.00  0.00     0.149 HD
ENDBRANCH   6  13
BRANCH   5  18
ATOM     18  N   LIG d   1       0.917  92.132 117.428  0.00  0.00     0.381 N 
ATOM     19  H   LIG d   1       0.714  92.608 118.284  0.00  0.00    -0.090 HD
ATOM     20  H   LIG d   1       0.288  92.471 116.722  0.00  0.00    -0.090 HD
ATOM     21  H   LIG d   1       1.859  92.309 117.157  0.00  0.00    -0.090 HD
ENDBRANCH   5  18
BRANCH   3  22
ATOM     22  C   LIG d   1      -2.332  88.699 118.201  0.00  0.00     0.382 C 
ATOM     23  O   LIG d   1      -3.410  89.208 117.813  0.00  0.00    -0.241 OA
ATOM     24  O   LIG d   1      -2.340  87.896 119.153  0.00  0.00    -0.241 OA
ENDBRANCH   3  22
TORSDOF 7
ENDMDL
