MODEL 1
REMARK VINA RESULT:      -5.5      0.000      0.000
REMARK  7 active torsions:
REMARK  status: ('A' for Active; 'I' for Inactive)
REMARK    1  A    between atoms: C_2  and  C_3 
REMARK    2  A    between atoms: C_3  and  O_6 
REMARK    3  A    between atoms: C_3  and  C_4 
REMARK    4  A    between atoms: C_7  and  O_6 
REMARK    5  A    between atoms: C_9  and  C_10 
REMARK    6  A    between atoms: N_15  and  C_14 
REMARK    7  A    between atoms: N_20  and  C_19 
REMARK       I    between atoms: C_22  and  N_20 
ROOT
ATOM      1  C   LIG d   1      -6.430  92.918 118.208  0.00  0.00     0.161 C 
ATOM      2  C   LIG d   1      -5.326  93.645 118.684  0.00  0.00     0.016 C 
ATOM      3  C   LIG d   1      -3.985  93.238 118.493  0.00  0.00     0.038 C 
ATOM      4  C   LIG d   1      -3.651  92.148 117.676  0.00  0.00     0.028 C 
ATOM      5  C   LIG d   1      -4.750  91.094 117.592  0.00  0.00    -0.047 C 
ATOM      6  C   LIG d   1      -6.081  91.786 117.219  0.00  0.00     0.091 C 
ENDROOT
BRANCH   1   7
ATOM      7  O   LIG d   1      -7.390  93.818 117.620  0.00  0.00    -0.368 OA
BRANCH   7   8
ATOM      8  C   LIG d   1      -7.692  95.014 118.381  0.00  0.00     0.119 C 
BRANCH   8   9
ATOM      9  C   LIG d   1      -8.410  94.572 119.671  0.00  0.00     0.028 C 
ATOM     10  C   LIG d   1      -9.933  94.775 119.594  0.00  0.00     0.006 C 
ENDBRANCH   8   9
BRANCH   8  11
ATOM     11  C   LIG d   1      -8.696  95.905 117.643  0.00  0.00     0.028 C 
ATOM     12  C   LIG d   1      -8.205  97.353 117.489  0.00  0.00     0.006 C 
ENDBRANCH   8  11
ENDBRANCH   7   8
ENDBRANCH   1   7
BRANCH   6  13
ATOM     13  N   LIG d   1      -7.226  90.839 117.198  0.00  0.00    -0.311 N 
ATOM     14  C   LIG d   1      -7.550  90.104 116.136  0.00  0.00     0.210 C 
ATOM     15  C   LIG d   1      -8.778  89.207 116.320  0.00  0.00     0.109 C 
ATOM     16  O   LIG d   1      -6.918  90.086 115.069  0.00  0.00    -0.276 OA
ATOM     17  H   LIG d   1      -7.774  90.767 118.033  0.00  0.00     0.149 HD
ENDBRANCH   6  13
BRANCH   5  18
ATOM     18  N   LIG d   1      -4.326  90.086 116.603  0.00  0.00     0.381 N 
ATOM     19  H   LIG d   1      -3.598  89.518 116.989  0.00  0.00    -0.090 HD
ATOM     20  H   LIG d   1      -3.962  90.557 115.794  0.00  0.00    -0.090 HD
ATOM     21  H   LIG d   1      -5.100  89.515 116.344  0.00  0.00    -0.090 HD
ENDBRANCH   5  18
BRANCH   3  22
ATOM     22  C   LIG d   1      -2.965  93.902 119.156  0.00  0.00     0.382 C 
ATOM     23  O   LIG d   1      -2.202  93.270 119.926  0.00  0.00    -0.241 OA
ATOM     24  O   LIG d   1      -2.825  95.133 119.029  0.00  0.00    -0.241 OA
ENDBRANCH   3  22
TORSDOF 7
ENDMDL
MODEL 2
REMARK VINA RESULT:      -5.2      8.063     10.978
REMARK  7 active torsions:
REMARK  status: ('A' for Active; 'I' for Inactive)
REMARK    1  A    between atoms: C_2  and  C_3 
REMARK    2  A    between atoms: C_3  and  O_6 
REMARK    3  A    between atoms: C_3  and  C_4 
REMARK    4  A    between atoms: C_7  and  O_6 
REMARK    5  A    between atoms: C_9  and  C_10 
REMARK    6  A    between atoms: N_15  and  C_14 
REMARK    7  A    between atoms: N_20  and  C_19 
REMARK       I    between atoms: C_22  and  N_20 
ROOT
ATOM      1  C   LIG d   1       2.976  89.740 116.691  0.00  0.00     0.161 C 
ATOM      2  C   LIG d   1       2.866  89.185 115.406  0.00  0.00     0.016 C 
ATOM      3  C   LIG d   1       3.981  88.829 114.613  0.00  0.00     0.038 C 
ATOM      4  C   LIG d   1       5.290  88.865 115.117  0.00  0.00     0.028 C 
ATOM      5  C   LIG d   1       5.484  89.893 116.226  0.00  0.00    -0.047 C 
ATOM      6  C   LIG d   1       4.393  89.684 117.301  0.00  0.00     0.091 C 
ENDROOT
BRANCH   1   7
ATOM      7  O   LIG d   1       2.025  89.117 117.577  0.00  0.00    -0.368 OA
BRANCH   7   8
ATOM      8  C   LIG d   1       0.677  89.646 117.538  0.00  0.00     0.119 C 
BRANCH   8   9
ATOM      9  C   LIG d   1       0.679  90.978 118.313  0.00  0.00     0.028 C 
ATOM     10  C   LIG d   1       0.184  92.156 117.457  0.00  0.00     0.006 C 
ENDBRANCH   8   9
BRANCH   8  11
ATOM     11  C   LIG d   1      -0.300  88.739 118.293  0.00  0.00     0.028 C 
ATOM     12  C   LIG d   1       0.352  87.433 118.775  0.00  0.00     0.006 C 
ENDBRANCH   8  11
ENDBRANCH   7   8
ENDBRANCH   1   7
BRANCH   6  13
ATOM     13  N   LIG d   1       4.459  90.702 118.381  0.00  0.00    -0.311 N 
ATOM     14  C   LIG d   1       4.156  91.986 118.198  0.00  0.00     0.210 C 
ATOM     15  C   LIG d   1       4.310  92.871 119.439  0.00  0.00     0.109 C 
ATOM     16  O   LIG d   1       3.743  92.470 117.133  0.00  0.00    -0.276 OA
ATOM     17  H   LIG d   1       4.754  90.390 119.285  0.00  0.00     0.149 HD
ENDBRANCH   6  13
BRANCH   5  18
ATOM     18  N   LIG d   1       6.853  89.728 116.752  0.00  0.00     0.381 N 
ATOM     19  H   LIG d   1       7.162  90.585 117.165  0.00  0.00    -0.090 HD
ATOM     20  H   LIG d   1       7.469  89.504 115.991  0.00  0.00    -0.090 HD
ATOM     21  H   LIG d   1       6.872  88.999 117.430  0.00  0.00    -0.090 HD
ENDBRANCH   5  18
BRANCH   3  22
ATOM     22  C   LIG d   1       3.795  88.469 113.287  0.00  0.00     0.382 C 
ATOM     23  O   LIG d   1       4.743  87.967 112.635  0.00  0.00    -0.241 OA
ATOM     24  O   LIG d   1       2.706  88.680 112.722  0.00  0.00    -0.241 OA
ENDBRANCH   3  22
TORSDOF 7
ENDMDL
MODEL 3
REMARK VINA RESULT:      -5.2      8.052     10.840
REMARK  7 active torsions:
REMARK  status: ('A' for Active; 'I' for Inactive)
REMARK    1  A    between atoms: C_2  and  C_3 
REMARK    2  A    between atoms: C_3  and  O_6 
REMARK    3  A    between atoms: C_3  and  C_4 
REMARK    4  A    between atoms: C_7  and  O_6 
REMARK    5  A    between atoms: C_9  and  C_10 
REMARK    6  A    between atoms: N_15  and  C_14 
REMARK    7  A    between atoms: N_20  and  C_19 
REMARK       I    between atoms: C_22  and  N_20 
ROOT
ATOM      1  C   LIG d   1       2.870  89.590 116.623  0.00  0.00     0.161 C 
ATOM      2  C   LIG d   1       2.775  89.042 115.333  0.00  0.00     0.016 C 
ATOM      3  C   LIG d   1       3.900  88.747 114.529  0.00  0.00     0.038 C 
ATOM      4  C   LIG d   1       5.210  88.840 115.023  0.00  0.00     0.028 C 
ATOM      5  C   LIG d   1       5.364  89.865 116.141  0.00  0.00    -0.047 C 
ATOM      6  C   LIG d   1       4.292  89.594 117.221  0.00  0.00     0.091 C 
ENDROOT
BRANCH   1   7
ATOM      7  O   LIG d   1       1.956  88.914 117.509  0.00  0.00    -0.368 OA
BRANCH   7   8
ATOM      8  C   LIG d   1       0.941  89.741 118.130  0.00  0.00     0.119 C 
BRANCH   8   9
ATOM      9  C   LIG d   1      -0.296  88.854 118.369  0.00  0.00     0.028 C 
ATOM     10  C   LIG d   1       0.071  87.478 118.950  0.00  0.00     0.006 C 
ENDBRANCH   8   9
BRANCH   8  11
ATOM     11  C   LIG d   1       0.469  90.849 117.184  0.00  0.00     0.028 C 
ATOM     12  C   LIG d   1       0.252  92.191 117.900  0.00  0.00     0.006 C 
ENDBRANCH   8  11
ENDBRANCH   7   8
ENDBRANCH   1   7
BRANCH   6  13
ATOM     13  N   LIG d   1       4.318  90.604 118.312  0.00  0.00    -0.311 N 
ATOM     14  C   LIG d   1       4.036  91.892 118.125  0.00  0.00     0.210 C 
ATOM     15  C   LIG d   1       4.142  92.765 119.379  0.00  0.00     0.109 C 
ATOM     16  O   LIG d   1       3.676  92.388 117.047  0.00  0.00    -0.276 OA
ATOM     17  H   LIG d   1       4.570  90.281 119.226  0.00  0.00     0.149 HD
ENDBRANCH   6  13
BRANCH   5  18
ATOM     18  N   LIG d   1       6.743  89.760 116.655  0.00  0.00     0.381 N 
ATOM     19  H   LIG d   1       7.241  90.606 116.464  0.00  0.00    -0.090 HD
ATOM     20  H   LIG d   1       7.209  89.006 116.183  0.00  0.00    -0.090 HD
ATOM     21  H   LIG d   1       6.728  89.588 117.637  0.00  0.00    -0.090 HD
ENDBRANCH   5  18
BRANCH   3  22
ATOM     22  C   LIG d   1       3.721  88.392 113.200  0.00  0.00     0.382 C 
ATOM     23  O   LIG d   1       4.655  87.845 112.566  0.00  0.00    -0.241 OA
ATOM     24  O   LIG d   1       2.652  88.652 112.615  0.00  0.00    -0.241 OA
ENDBRANCH   3  22
TORSDOF 7
ENDMDL
MODEL 4
REMARK VINA RESULT:      -5.0      2.221      4.645
REMARK  7 active torsions:
REMARK  status: ('A' for Active; 'I' for Inactive)
REMARK    1  A    between atoms: C_2  and  C_3 
REMARK    2  A    between atoms: C_3  and  O_6 
REMARK    3  A    between atoms: C_3  and  C_4 
REMARK    4  A    between atoms: C_7  and  O_6 
REMARK    5  A    between atoms: C_9  and  C_10 
REMARK    6  A    between atoms: N_15  and  C_14 
REMARK    7  A    between atoms: N_20  and  C_19 
REMARK       I    between atoms: C_22  and  N_20 
ROOT
ATOM      1  C   LIG d   1      -5.478  91.897 117.096  0.00  0.00     0.161 C 
ATOM      2  C   LIG d   1      -4.398  91.048 117.393  0.00  0.00     0.016 C 
ATOM      3  C   LIG d   1      -3.487  91.287 118.447  0.00  0.00     0.038 C 
ATOM      4  C   LIG d   1      -3.684  92.318 119.378  0.00  0.00     0.028 C 
ATOM      5  C   LIG d   1      -4.475  93.496 118.818  0.00  0.00    -0.047 C 
ATOM      6  C   LIG d   1      -5.774  92.966 118.169  0.00  0.00     0.091 C 
ENDROOT
BRANCH   1   7
ATOM      7  O   LIG d   1      -6.658  91.112 116.832  0.00  0.00    -0.368 OA
BRANCH   7   8
ATOM      8  C   LIG d   1      -6.862  90.712 115.455  0.00  0.00     0.119 C 
BRANCH   8   9
ATOM      9  C   LIG d   1      -6.938  91.996 114.606  0.00  0.00     0.028 C 
ATOM     10  C   LIG d   1      -8.339  92.630 114.625  0.00  0.00     0.006 C 
ENDBRANCH   8   9
BRANCH   8  11
ATOM     11  C   LIG d   1      -8.217  90.023 115.269  0.00  0.00     0.028 C 
ATOM     12  C   LIG d   1      -8.657  89.230 116.510  0.00  0.00     0.006 C 
ENDBRANCH   8  11
ENDBRANCH   7   8
ENDBRANCH   1   7
BRANCH   6  13
ATOM     13  N   LIG d   1      -6.566  94.044 117.523  0.00  0.00    -0.311 N 
ATOM     14  C   LIG d   1      -7.749  94.457 117.975  0.00  0.00     0.210 C 
ATOM     15  C   LIG d   1      -8.406  95.567 117.149  0.00  0.00     0.109 C 
ATOM     16  O   LIG d   1      -8.302  94.031 119.001  0.00  0.00    -0.276 OA
ATOM     17  H   LIG d   1      -6.177  94.467 116.702  0.00  0.00     0.149 HD
ENDBRANCH   6  13
BRANCH   5  18
ATOM     18  N   LIG d   1      -4.725  94.433 119.930  0.00  0.00     0.381 N 
ATOM     19  H   LIG d   1      -3.858  94.693 120.355  0.00  0.00    -0.090 HD
ATOM     20  H   LIG d   1      -5.290  93.973 120.622  0.00  0.00    -0.090 HD
ATOM     21  H   LIG d   1      -5.195  95.245 119.593  0.00  0.00    -0.090 HD
ENDBRANCH   5  18
BRANCH   3  22
ATOM     22  C   LIG d   1      -2.342  90.513 118.554  0.00  0.00     0.382 C 
ATOM     23  O   LIG d   1      -1.212  91.058 118.527  0.00  0.00    -0.241 OA
ATOM     24  O   LIG d   1      -2.423  89.273 118.633  0.00  0.00    -0.241 OA
ENDBRANCH   3  22
TORSDOF 7
ENDMDL
MODEL 5
REMARK VINA RESULT:      -5.0      2.146      4.700
REMARK  7 active torsions:
REMARK  status: ('A' for Active; 'I' for Inactive)
REMARK    1  A    between atoms: C_2  and  C_3 
REMARK    2  A    between atoms: C_3  and  O_6 
REMARK    3  A    between atoms: C_3  and  C_4 
REMARK    4  A    between atoms: C_7  and  O_6 
REMARK    5  A    between atoms: C_9  and  C_10 
REMARK    6  A    between atoms: N_15  and  C_14 
REMARK    7  A    between atoms: N_20  and  C_19 
REMARK       I    between atoms: C_22  and  N_20 
ROOT
ATOM      1  C   LIG d   1      -4.580  93.183 118.652  0.00  0.00     0.161 C 
ATOM      2  C   LIG d   1      -3.675  92.119 118.792  0.00  0.00     0.016 C 
ATOM      3  C   LIG d   1      -3.881  90.842 118.221  0.00  0.00     0.038 C 
ATOM      4  C   LIG d   1      -4.941  90.586 117.339  0.00  0.00     0.028 C 
ATOM      5  C   LIG d   1      -6.152  91.483 117.572  0.00  0.00    -0.047 C 
ATOM      6  C   LIG d   1      -5.687  92.957 117.601  0.00  0.00     0.091 C 
ENDROOT
BRANCH   1   7
ATOM      7  O   LIG d   1      -3.863  94.401 118.369  0.00  0.00    -0.368 OA
BRANCH   7   8
ATOM      8  C   LIG d   1      -2.500  94.466 118.855  0.00  0.00     0.119 C 
BRANCH   8   9
ATOM      9  C   LIG d   1      -2.303  95.852 119.498  0.00  0.00     0.028 C 
ATOM     10  C   LIG d   1      -3.378  96.861 119.059  0.00  0.00     0.006 C 
ENDBRANCH   8   9
BRANCH   8  11
ATOM     11  C   LIG d   1      -1.493  94.406 117.703  0.00  0.00     0.028 C 
ATOM     12  C   LIG d   1      -0.546  93.200 117.801  0.00  0.00     0.006 C 
ENDBRANCH   8  11
ENDBRANCH   7   8
ENDBRANCH   1   7
BRANCH   6  13
ATOM     13  N   LIG d   1      -6.798  93.895 117.909  0.00  0.00    -0.311 N 
ATOM     14  C   LIG d   1      -7.661  94.334 116.994  0.00  0.00     0.210 C 
ATOM     15  C   LIG d   1      -8.718  95.312 117.519  0.00  0.00     0.109 C 
ATOM     16  O   LIG d   1      -7.673  93.981 115.805  0.00  0.00    -0.276 OA
ATOM     17  H   LIG d   1      -6.882  94.208 118.856  0.00  0.00     0.149 HD
ENDBRANCH   6  13
BRANCH   5  18
ATOM     18  N   LIG d   1      -7.126  91.204 116.500  0.00  0.00     0.381 N 
ATOM     19  H   LIG d   1      -7.660  92.028 116.305  0.00  0.00    -0.090 HD
ATOM     20  H   LIG d   1      -7.756  90.486 116.811  0.00  0.00    -0.090 HD
ATOM     21  H   LIG d   1      -6.650  90.906 115.677  0.00  0.00    -0.090 HD
ENDBRANCH   5  18
BRANCH   3  22
ATOM     22  C   LIG d   1      -3.041  89.792 118.564  0.00  0.00     0.382 C 
ATOM     23  O   LIG d   1      -3.485  88.826 119.229  0.00  0.00    -0.241 OA
ATOM     24  O   LIG d   1      -1.835  89.821 118.254  0.00  0.00    -0.241 OA
ENDBRANCH   3  22
TORSDOF 7
ENDMDL
MODEL 6
REMARK VINA RESULT:      -4.7      9.337     12.157
REMARK  7 active torsions:
REMARK  status: ('A' for Active; 'I' for Inactive)
REMARK    1  A    between atoms: C_2  and  C_3 
REMARK    2  A    between atoms: C_3  and  O_6 
REMARK    3  A    between atoms: C_3  and  C_4 
REMARK    4  A    between atoms: C_7  and  O_6 
REMARK    5  A    between atoms: C_9  and  C_10 
REMARK    6  A    between atoms: N_15  and  C_14 
REMARK    7  A    between atoms: N_20  and  C_19 
REMARK       I    between atoms: C_22  and  N_20 
ROOT
ATOM      1  C   LIG d   1       4.587  89.947 115.786  0.00  0.00     0.161 C 
ATOM      2  C   LIG d   1       3.683  89.289 114.935  0.00  0.00     0.016 C 
ATOM      3  C   LIG d   1       3.597  87.881 114.832  0.00  0.00     0.038 C 
ATOM      4  C   LIG d   1       4.308  87.030 115.691  0.00  0.00     0.028 C 
ATOM      5  C   LIG d   1       5.602  87.642 116.216  0.00  0.00    -0.047 C 
ATOM      6  C   LIG d   1       5.293  89.035 116.811  0.00  0.00     0.091 C 
ENDROOT
BRANCH   1   7
ATOM      7  O   LIG d   1       3.920  91.034 116.458  0.00  0.00    -0.368 OA
BRANCH   7   8
ATOM      8  C   LIG d   1       3.158  90.682 117.639  0.00  0.00     0.119 C 
BRANCH   8   9
ATOM      9  C   LIG d   1       1.681  91.012 117.352  0.00  0.00     0.028 C 
ATOM     10  C   LIG d   1       0.779  89.768 117.414  0.00  0.00     0.006 C 
ENDBRANCH   8   9
BRANCH   8  11
ATOM     11  C   LIG d   1       3.545  91.559 118.834  0.00  0.00     0.028 C 
ATOM     12  C   LIG d   1       4.542  92.668 118.461  0.00  0.00     0.006 C 
ENDBRANCH   8  11
ENDBRANCH   7   8
ENDBRANCH   1   7
BRANCH   6  13
ATOM     13  N   LIG d   1       6.517  89.740 117.271  0.00  0.00    -0.311 N 
ATOM     14  C   LIG d   1       6.924  89.750 118.539  0.00  0.00     0.210 C 
ATOM     15  C   LIG d   1       8.202  90.553 118.802  0.00  0.00     0.109 C 
ATOM     16  O   LIG d   1       6.366  89.144 119.466  0.00  0.00    -0.276 OA
ATOM     17  H   LIG d   1       7.048  90.232 116.579  0.00  0.00     0.149 HD
ENDBRANCH   6  13
BRANCH   5  18
ATOM     18  N   LIG d   1       6.170  86.705 117.203  0.00  0.00     0.381 N 
ATOM     19  H   LIG d   1       5.444  86.132 117.583  0.00  0.00    -0.090 HD
ATOM     20  H   LIG d   1       6.580  87.233 117.954  0.00  0.00    -0.090 HD
ATOM     21  H   LIG d   1       6.863  86.134 116.772  0.00  0.00    -0.090 HD
ENDBRANCH   5  18
BRANCH   3  22
ATOM     22  C   LIG d   1       2.820  87.311 113.835  0.00  0.00     0.382 C 
ATOM     23  O   LIG d   1       2.298  88.038 112.955  0.00  0.00    -0.241 OA
ATOM     24  O   LIG d   1       2.599  86.086 113.829  0.00  0.00    -0.241 OA
ENDBRANCH   3  22
TORSDOF 7
ENDMDL
MODEL 7
REMARK VINA RESULT:      -4.7      6.180      9.825
REMARK  7 active torsions:
REMARK  status: ('A' for Active; 'I' for Inactive)
REMARK    1  A    between atoms: C_2  and  C_3 
REMARK    2  A    between atoms: C_3  and  O_6 
REMARK    3  A    between atoms: C_3  and  C_4 
REMARK    4  A    between atoms: C_7  and  O_6 
REMARK    5  A    between atoms: C_9  and  C_10 
REMARK    6  A    between atoms: N_15  and  C_14 
REMARK    7  A    between atoms: N_20  and  C_19 
REMARK       I    between atoms: C_22  and  N_20 
ROOT
ATOM      1  C   LIG d   1       0.741  89.302 117.877  0.00  0.00     0.161 C 
ATOM      2  C   LIG d   1      -0.631  89.005 117.929  0.00  0.00     0.016 C 
ATOM      3  C   LIG d   1      -1.589  89.856 118.527  0.00  0.00     0.038 C 
ATOM      4  C   LIG d   1      -1.257  91.141 118.983  0.00  0.00     0.028 C 
ATOM      5  C   LIG d   1       0.201  91.275 119.408  0.00  0.00    -0.047 C 
ATOM      6  C   LIG d   1       1.106  90.749 118.270  0.00  0.00     0.091 C 
ENDROOT
BRANCH   1   7
ATOM      7  O   LIG d   1       1.258  88.993 116.568  0.00  0.00    -0.368 OA
BRANCH   7   8
ATOM      8  C   LIG d   1       2.038  87.777 116.461  0.00  0.00     0.119 C 
BRANCH   8   9
ATOM      9  C   LIG d   1       2.161  87.180 117.876  0.00  0.00     0.028 C 
ATOM     10  C   LIG d   1       1.687  85.718 117.940  0.00  0.00     0.006 C 
ENDBRANCH   8   9
BRANCH   8  11
ATOM     11  C   LIG d   1       3.475  88.073 116.020  0.00  0.00     0.028 C 
ATOM     12  C   LIG d   1       3.563  89.235 115.018  0.00  0.00     0.006 C 
ENDBRANCH   8  11
ENDBRANCH   7   8
ENDBRANCH   1   7
BRANCH   6  13
ATOM     13  N   LIG d   1       2.546  90.766 118.637  0.00  0.00    -0.311 N 
ATOM     14  C   LIG d   1       3.463  91.466 117.972  0.00  0.00     0.210 C 
ATOM     15  C   LIG d   1       4.893  91.328 118.504  0.00  0.00     0.109 C 
ATOM     16  O   LIG d   1       3.224  92.213 117.012  0.00  0.00    -0.276 OA
ATOM     17  H   LIG d   1       2.823  90.212 119.424  0.00  0.00     0.149 HD
ENDBRANCH   6  13
BRANCH   5  18
ATOM     18  N   LIG d   1       0.443  92.694 119.729  0.00  0.00     0.381 N 
ATOM     19  H   LIG d   1       1.420  92.896 119.658  0.00  0.00    -0.090 HD
ATOM     20  H   LIG d   1       0.153  92.868 120.676  0.00  0.00    -0.090 HD
ATOM     21  H   LIG d   1      -0.070  93.277 119.105  0.00  0.00    -0.090 HD
ENDBRANCH   5  18
BRANCH   3  22
ATOM     22  C   LIG d   1      -2.888  89.407 118.710  0.00  0.00     0.382 C 
ATOM     23  O   LIG d   1      -3.817  89.874 118.008  0.00  0.00    -0.241 OA
ATOM     24  O   LIG d   1      -3.149  88.574 119.598  0.00  0.00    -0.241 OA
ENDBRANCH   3  22
TORSDOF 7
ENDMDL
MODEL 8
REMARK VINA RESULT:      -4.6      2.489      4.568
REMARK  7 active torsions:
REMARK  status: ('A' for Active; 'I' for Inactive)
REMARK    1  A    between atoms: C_2  and  C_3 
REMARK    2  A    between atoms: C_3  and  O_6 
REMARK    3  A    between atoms: C_3  and  C_4 
REMARK    4  A    between atoms: C_7  and  O_6 
REMARK    5  A    between atoms: C_9  and  C_10 
REMARK    6  A    between atoms: N_15  and  C_14 
REMARK    7  A    between atoms: N_20  and  C_19 
REMARK       I    between atoms: C_22  and  N_20 
ROOT
ATOM      1  C   LIG d   1      -4.848  92.604 117.815  0.00  0.00     0.161 C 
ATOM      2  C   LIG d   1      -3.678  91.829 117.758  0.00  0.00     0.016 C 
ATOM      3  C   LIG d   1      -2.459  92.213 118.364  0.00  0.00     0.038 C 
ATOM      4  C   LIG d   1      -2.369  93.335 119.202  0.00  0.00     0.028 C 
ATOM      5  C   LIG d   1      -3.394  94.417 118.877  0.00  0.00    -0.047 C 
ATOM      6  C   LIG d   1      -4.799  93.776 118.817  0.00  0.00     0.091 C 
ENDROOT
BRANCH   1   7
ATOM      7  O   LIG d   1      -5.982  91.758 118.088  0.00  0.00    -0.368 OA
BRANCH   7   8
ATOM      8  C   LIG d   1      -6.954  91.630 117.021  0.00  0.00     0.119 C 
BRANCH   8   9
ATOM      9  C   LIG d   1      -6.892  90.179 116.508  0.00  0.00     0.028 C 
ATOM     10  C   LIG d   1      -5.840  89.992 115.402  0.00  0.00     0.006 C 
ENDBRANCH   8   9
BRANCH   8  11
ATOM     11  C   LIG d   1      -6.579  92.502 115.819  0.00  0.00     0.028 C 
ATOM     12  C   LIG d   1      -7.774  93.289 115.258  0.00  0.00     0.006 C 
ENDBRANCH   8  11
ENDBRANCH   7   8
ENDBRANCH   1   7
BRANCH   6  13
ATOM     13  N   LIG d   1      -5.850  94.750 118.422  0.00  0.00    -0.311 N 
ATOM     14  C   LIG d   1      -7.055  94.797 118.987  0.00  0.00     0.210 C 
ATOM     15  C   LIG d   1      -7.995  95.864 118.417  0.00  0.00     0.109 C 
ATOM     16  O   LIG d   1      -7.424  94.078 119.928  0.00  0.00    -0.276 OA
ATOM     17  H   LIG d   1      -5.624  95.391 117.688  0.00  0.00     0.149 HD
ENDBRANCH   6  13
BRANCH   5  18
ATOM     18  N   LIG d   1      -3.279  95.463 119.910  0.00  0.00     0.381 N 
ATOM     19  H   LIG d   1      -2.746  96.232 119.556  0.00  0.00    -0.090 HD
ATOM     20  H   LIG d   1      -2.794  95.084 120.705  0.00  0.00    -0.090 HD
ATOM     21  H   LIG d   1      -4.185  95.775 120.183  0.00  0.00    -0.090 HD
ENDBRANCH   5  18
BRANCH   3  22
ATOM     22  C   LIG d   1      -1.304  91.493 118.101  0.00  0.00     0.382 C 
ATOM     23  O   LIG d   1      -0.322  92.058 117.562  0.00  0.00    -0.241 OA
ATOM     24  O   LIG d   1      -1.247  90.275 118.355  0.00  0.00    -0.241 OA
ENDBRANCH   3  22
TORSDOF 7
ENDMDL
MODEL 9
REMARK VINA RESULT:      -4.6      6.199     10.000
REMARK  7 active torsions:
REMARK  status: ('A' for Active; 'I' for Inactive)
REMARK    1  A    between atoms: C_2  and  C_3 
REMARK    2  A    between atoms: C_3  and  O_6 
REMARK    3  A    between atoms: C_3  and  C_4 
REMARK    4  A    between atoms: C_7  and  O_6 
REMARK    5  A    between atoms: C_9  and  C_10 
REMARK    6  A    between atoms: N_15  and  C_14 
REMARK    7  A    between atoms: N_20  and  C_19 
REMARK       I    between atoms: C_22  and  N_20 
ROOT
ATOM      1  C   LIG d   1       0.843  89.604 118.083  0.00  0.00     0.161 C 
ATOM      2  C   LIG d   1      -0.490  89.164 118.041  0.00  0.00     0.016 C 
ATOM      3  C   LIG d   1      -1.581  89.942 118.494  0.00  0.00     0.038 C 
ATOM      4  C   LIG d   1      -1.426  91.281 118.882  0.00  0.00     0.028 C 
ATOM      5  C   LIG d   1      -0.034  91.599 119.417  0.00  0.00    -0.047 C 
ATOM      6  C   LIG d   1       1.020  91.104 118.400  0.00  0.00     0.091 C 
ENDROOT
BRANCH   1   7
ATOM      7  O   LIG d   1       1.506  89.272 116.847  0.00  0.00    -0.368 OA
BRANCH   7   8
ATOM      8  C   LIG d   1       2.542  88.262 116.931  0.00  0.00     0.119 C 
BRANCH   8   9
ATOM      9  C   LIG d   1       3.840  88.883 116.382  0.00  0.00     0.028 C 
ATOM     10  C   LIG d   1       3.710  89.310 114.910  0.00  0.00     0.006 C 
ENDBRANCH   8   9
BRANCH   8  11
ATOM     11  C   LIG d   1       2.239  87.076 116.010  0.00  0.00     0.028 C 
ATOM     12  C   LIG d   1       3.135  85.859 116.291  0.00  0.00     0.006 C 
ENDBRANCH   8  11
ENDBRANCH   7   8
ENDBRANCH   1   7
BRANCH   6  13
ATOM     13  N   LIG d   1       2.411  91.300 118.884  0.00  0.00    -0.311 N 
ATOM     14  C   LIG d   1       3.373  91.853 118.146  0.00  0.00     0.210 C 
ATOM     15  C   LIG d   1       4.741  91.943 118.830  0.00  0.00     0.109 C 
ATOM     16  O   LIG d   1       3.215  92.307 117.003  0.00  0.00    -0.276 OA
ATOM     17  H   LIG d   1       2.619  90.989 119.813  0.00  0.00     0.149 HD
ENDBRANCH   6  13
BRANCH   5  18
ATOM     18  N   LIG d   1       0.031  93.054 119.654  0.00  0.00     0.381 N 
ATOM     19  H   LIG d   1       0.821  93.268 120.229  0.00  0.00    -0.090 HD
ATOM     20  H   LIG d   1      -0.800  93.341 120.141  0.00  0.00    -0.090 HD
ATOM     21  H   LIG d   1       0.101  93.538 118.786  0.00  0.00    -0.090 HD
ENDBRANCH   5  18
BRANCH   3  22
ATOM     22  C   LIG d   1      -2.838  89.367 118.599  0.00  0.00     0.382 C 
ATOM     23  O   LIG d   1      -3.046  88.463 119.444  0.00  0.00    -0.241 OA
ATOM     24  O   LIG d   1      -3.756  89.710 117.829  0.00  0.00    -0.241 OA
ENDBRANCH   3  22
TORSDOF 7
ENDMDL
