MODEL 1
REMARK VINA RESULT:      -5.3      0.000      0.000
REMARK  7 active torsions:
REMARK  status: ('A' for Active; 'I' for Inactive)
REMARK    1  A    between atoms: C_2  and  C_3 
REMARK    2  A    between atoms: C_3  and  O_6 
REMARK    3  A    between atoms: C_3  and  C_4 
REMARK    4  A    between atoms: C_7  and  O_6 
REMARK    5  A    between atoms: C_9  and  C_10 
REMARK    6  A    between atoms: N_15  and  C_14 
REMARK    7  A    between atoms: N_20  and  C_19 
REMARK       I    between atoms: C_22  and  N_20 
ROOT
ATOM      1  C   LIG d   1      -5.242  92.676 117.569  0.00  0.00     0.161 C 
ATOM      2  C   LIG d   1      -6.462  93.372 117.545  0.00  0.00     0.016 C 
ATOM      3  C   LIG d   1      -6.659  94.619 118.181  0.00  0.00     0.038 C 
ATOM      4  C   LIG d   1      -5.599  95.333 118.759  0.00  0.00     0.028 C 
ATOM      5  C   LIG d   1      -4.462  94.440 119.246  0.00  0.00    -0.047 C 
ATOM      6  C   LIG d   1      -4.044  93.491 118.100  0.00  0.00     0.091 C 
ENDROOT
BRANCH   1   7
ATOM      7  O   LIG d   1      -4.951  92.155 116.257  0.00  0.00    -0.368 OA
BRANCH   7   8
ATOM      8  C   LIG d   1      -5.060  90.718 116.104  0.00  0.00     0.119 C 
BRANCH   8   9
ATOM      9  C   LIG d   1      -6.417  90.425 115.436  0.00  0.00     0.028 C 
ATOM     10  C   LIG d   1      -7.196  89.310 116.153  0.00  0.00     0.006 C 
ENDBRANCH   8   9
BRANCH   8  11
ATOM     11  C   LIG d   1      -5.117  90.016 117.463  0.00  0.00     0.028 C 
ATOM     12  C   LIG d   1      -3.807  89.294 117.817  0.00  0.00     0.006 C 
ENDBRANCH   8  11
ENDBRANCH   7   8
ENDBRANCH   1   7
BRANCH   6  13
ATOM     13  N   LIG d   1      -2.994  92.526 118.518  0.00  0.00    -0.311 N 
ATOM     14  C   LIG d   1      -1.698  92.695 118.262  0.00  0.00     0.210 C 
ATOM     15  C   LIG d   1      -0.787  91.571 118.764  0.00  0.00     0.109 C 
ATOM     16  O   LIG d   1      -1.213  93.685 117.694  0.00  0.00    -0.276 OA
ATOM     17  H   LIG d   1      -3.296  91.709 119.012  0.00  0.00     0.149 HD
ENDBRANCH   6  13
BRANCH   5  18
ATOM     18  N   LIG d   1      -3.368  95.319 119.698  0.00  0.00     0.381 N 
ATOM     19  H   LIG d   1      -2.492  94.966 119.369  0.00  0.00    -0.090 HD
ATOM     20  H   LIG d   1      -3.348  95.323 120.703  0.00  0.00    -0.090 HD
ATOM     21  H   LIG d   1      -3.510  96.244 119.357  0.00  0.00    -0.090 HD
ENDBRANCH   5  18
BRANCH   3  22
ATOM     22  C   LIG d   1      -7.938  95.147 118.276  0.00  0.00     0.382 C 
ATOM     23  O   LIG d   1      -8.131  96.367 118.056  0.00  0.00    -0.241 OA
ATOM     24  O   LIG d   1      -8.894  94.428 118.624  0.00  0.00    -0.241 OA
ENDBRANCH   3  22
TORSDOF 7
ENDMDL
MODEL 2
REMARK VINA RESULT:      -5.2      2.726      4.656
REMARK  7 active torsions:
REMARK  status: ('A' for Active; 'I' for Inactive)
REMARK    1  A    between atoms: C_2  and  C_3 
REMARK    2  A    between atoms: C_3  and  O_6 
REMARK    3  A    between atoms: C_3  and  C_4 
REMARK    4  A    between atoms: C_7  and  O_6 
REMARK    5  A    between atoms: C_9  and  C_10 
REMARK    6  A    between atoms: N_15  and  C_14 
REMARK    7  A    between atoms: N_20  and  C_19 
REMARK       I    between atoms: C_22  and  N_20 
ROOT
ATOM      1  C   LIG d   1      -3.577  90.843 117.688  0.00  0.00     0.161 C 
ATOM      2  C   LIG d   1      -4.353  89.916 116.972  0.00  0.00     0.016 C 
ATOM      3  C   LIG d   1      -5.607  90.229 116.400  0.00  0.00     0.038 C 
ATOM      4  C   LIG d   1      -6.106  91.540 116.377  0.00  0.00     0.028 C 
ATOM      5  C   LIG d   1      -5.595  92.403 117.526  0.00  0.00    -0.047 C 
ATOM      6  C   LIG d   1      -4.053  92.307 117.578  0.00  0.00     0.091 C 
ENDROOT
BRANCH   1   7
ATOM      7  O   LIG d   1      -2.196  90.734 117.292  0.00  0.00    -0.368 OA
BRANCH   7   8
ATOM      8  C   LIG d   1      -1.317  90.058 118.225  0.00  0.00     0.119 C 
BRANCH   8   9
ATOM      9  C   LIG d   1      -0.086  90.961 118.439  0.00  0.00     0.028 C 
ATOM     10  C   LIG d   1       0.516  91.456 117.113  0.00  0.00     0.006 C 
ENDBRANCH   8   9
BRANCH   8  11
ATOM     11  C   LIG d   1      -0.767  88.758 117.631  0.00  0.00     0.028 C 
ATOM     12  C   LIG d   1      -1.692  87.555 117.873  0.00  0.00     0.006 C 
ENDBRANCH   8  11
ENDBRANCH   7   8
ENDBRANCH   1   7
BRANCH   6  13
ATOM     13  N   LIG d   1      -3.477  93.054 118.726  0.00  0.00    -0.311 N 
ATOM     14  C   LIG d   1      -2.425  93.865 118.620  0.00  0.00     0.210 C 
ATOM     15  C   LIG d   1      -1.980  94.522 119.930  0.00  0.00     0.109 C 
ATOM     16  O   LIG d   1      -1.838  94.126 117.559  0.00  0.00    -0.276 OA
ATOM     17  H   LIG d   1      -3.911  92.925 119.619  0.00  0.00     0.149 HD
ENDBRANCH   6  13
BRANCH   5  18
ATOM     18  N   LIG d   1      -6.081  93.777 117.302  0.00  0.00     0.381 N 
ATOM     19  H   LIG d   1      -6.809  93.989 117.954  0.00  0.00    -0.090 HD
ATOM     20  H   LIG d   1      -6.461  93.840 116.374  0.00  0.00    -0.090 HD
ATOM     21  H   LIG d   1      -5.332  94.425 117.406  0.00  0.00    -0.090 HD
ENDBRANCH   5  18
BRANCH   3  22
ATOM     22  C   LIG d   1      -6.396  89.215 115.878  0.00  0.00     0.382 C 
ATOM     23  O   LIG d   1      -6.189  88.796 114.714  0.00  0.00    -0.241 OA
ATOM     24  O   LIG d   1      -7.341  88.746 116.540  0.00  0.00    -0.241 OA
ENDBRANCH   3  22
TORSDOF 7
ENDMDL
MODEL 3
REMARK VINA RESULT:      -5.1      2.648      4.633
REMARK  7 active torsions:
REMARK  status: ('A' for Active; 'I' for Inactive)
REMARK    1  A    between atoms: C_2  and  C_3 
REMARK    2  A    between atoms: C_3  and  O_6 
REMARK    3  A    between atoms: C_3  and  C_4 
REMARK    4  A    between atoms: C_7  and  O_6 
REMARK    5  A    between atoms: C_9  and  C_10 
REMARK    6  A    between atoms: N_15  and  C_14 
REMARK    7  A    between atoms: N_20  and  C_19 
REMARK       I    between atoms: C_22  and  N_20 
ROOT
ATOM      1  C   LIG d   1      -4.078  91.875 116.954  0.00  0.00     0.161 C 
ATOM      2  C   LIG d   1      -3.306  92.762 117.723  0.00  0.00     0.016 C 
ATOM      3  C   LIG d   1      -3.864  93.766 118.547  0.00  0.00     0.038 C 
ATOM      4  C   LIG d   1      -5.246  93.854 118.777  0.00  0.00     0.028 C 
ATOM      5  C   LIG d   1      -6.086  93.303 117.630  0.00  0.00    -0.047 C 
ATOM      6  C   LIG d   1      -5.586  91.883 117.278  0.00  0.00     0.091 C 
ENDROOT
BRANCH   1   7
ATOM      7  O   LIG d   1      -3.547  90.540 117.070  0.00  0.00    -0.368 OA
BRANCH   7   8
ATOM      8  C   LIG d   1      -2.840  90.239 118.298  0.00  0.00     0.119 C 
BRANCH   8   9
ATOM      9  C   LIG d   1      -1.600  89.405 117.926  0.00  0.00     0.028 C 
ATOM     10  C   LIG d   1      -0.541  90.230 117.176  0.00  0.00     0.006 C 
ENDBRANCH   8   9
BRANCH   8  11
ATOM     11  C   LIG d   1      -3.674  89.339 119.215  0.00  0.00     0.028 C 
ATOM     12  C   LIG d   1      -2.955  88.032 119.581  0.00  0.00     0.006 C 
ENDBRANCH   8  11
ENDBRANCH   7   8
ENDBRANCH   1   7
BRANCH   6  13
ATOM     13  N   LIG d   1      -6.300  91.304 116.110  0.00  0.00    -0.311 N 
ATOM     14  C   LIG d   1      -6.720  90.042 116.060  0.00  0.00     0.210 C 
ATOM     15  C   LIG d   1      -7.416  89.643 114.754  0.00  0.00     0.109 C 
ATOM     16  O   LIG d   1      -6.612  89.223 116.985  0.00  0.00    -0.276 OA
ATOM     17  H   LIG d   1      -6.458  91.908 115.327  0.00  0.00     0.149 HD
ENDBRANCH   6  13
BRANCH   5  18
ATOM     18  N   LIG d   1      -7.497  93.329 118.059  0.00  0.00     0.381 N 
ATOM     19  H   LIG d   1      -7.609  93.973 118.816  0.00  0.00    -0.090 HD
ATOM     20  H   LIG d   1      -7.756  92.414 118.382  0.00  0.00    -0.090 HD
ATOM     21  H   LIG d   1      -8.080  93.597 117.297  0.00  0.00    -0.090 HD
ENDBRANCH   5  18
BRANCH   3  22
ATOM     22  C   LIG d   1      -3.040  94.722 119.121  0.00  0.00     0.382 C 
ATOM     23  O   LIG d   1      -3.388  95.928 119.127  0.00  0.00    -0.241 OA
ATOM     24  O   LIG d   1      -1.933  94.401 119.592  0.00  0.00    -0.241 OA
ENDBRANCH   3  22
TORSDOF 7
ENDMDL
MODEL 4
REMARK VINA RESULT:      -4.8      1.738      4.976
REMARK  7 active torsions:
REMARK  status: ('A' for Active; 'I' for Inactive)
REMARK    1  A    between atoms: C_2  and  C_3 
REMARK    2  A    between atoms: C_3  and  O_6 
REMARK    3  A    between atoms: C_3  and  C_4 
REMARK    4  A    between atoms: C_7  and  O_6 
REMARK    5  A    between atoms: C_9  and  C_10 
REMARK    6  A    between atoms: N_15  and  C_14 
REMARK    7  A    between atoms: N_20  and  C_19 
REMARK       I    between atoms: C_22  and  N_20 
ROOT
ATOM      1  C   LIG d   1      -5.459  92.669 117.552  0.00  0.00     0.161 C 
ATOM      2  C   LIG d   1      -6.113  91.961 116.530  0.00  0.00     0.016 C 
ATOM      3  C   LIG d   1      -5.801  90.626 116.186  0.00  0.00     0.038 C 
ATOM      4  C   LIG d   1      -4.910  89.853 116.946  0.00  0.00     0.028 C 
ATOM      5  C   LIG d   1      -3.856  90.683 117.672  0.00  0.00    -0.047 C 
ATOM      6  C   LIG d   1      -4.561  91.807 118.464  0.00  0.00     0.091 C 
ENDROOT
BRANCH   1   7
ATOM      7  O   LIG d   1      -6.424  93.395 118.339  0.00  0.00    -0.368 OA
BRANCH   7   8
ATOM      8  C   LIG d   1      -6.601  94.792 118.000  0.00  0.00     0.119 C 
BRANCH   8   9
ATOM      9  C   LIG d   1      -5.852  95.624 119.059  0.00  0.00     0.028 C 
ATOM     10  C   LIG d   1      -5.738  97.107 118.668  0.00  0.00     0.006 C 
ENDBRANCH   8   9
BRANCH   8  11
ATOM     11  C   LIG d   1      -8.069  95.212 118.119  0.00  0.00     0.028 C 
ATOM     12  C   LIG d   1      -8.708  94.778 119.448  0.00  0.00     0.006 C 
ENDBRANCH   8  11
ENDBRANCH   7   8
ENDBRANCH   1   7
BRANCH   6  13
ATOM     13  N   LIG d   1      -3.598  92.717 119.136  0.00  0.00    -0.311 N 
ATOM     14  C   LIG d   1      -2.616  93.349 118.495  0.00  0.00     0.210 C 
ATOM     15  C   LIG d   1      -1.723  94.224 119.380  0.00  0.00     0.109 C 
ATOM     16  O   LIG d   1      -2.420  93.294 117.272  0.00  0.00    -0.276 OA
ATOM     17  H   LIG d   1      -3.703  92.844 120.124  0.00  0.00     0.149 HD
ENDBRANCH   6  13
BRANCH   5  18
ATOM     18  N   LIG d   1      -3.083  89.767 118.532  0.00  0.00     0.381 N 
ATOM     19  H   LIG d   1      -2.313  89.388 118.017  0.00  0.00    -0.090 HD
ATOM     20  H   LIG d   1      -3.677  89.008 118.815  0.00  0.00    -0.090 HD
ATOM     21  H   LIG d   1      -2.748  90.254 119.334  0.00  0.00    -0.090 HD
ENDBRANCH   5  18
BRANCH   3  22
ATOM     22  C   LIG d   1      -6.354  90.063 115.046  0.00  0.00     0.382 C 
ATOM     23  O   LIG d   1      -7.264  90.665 114.428  0.00  0.00    -0.241 OA
ATOM     24  O   LIG d   1      -5.985  88.940 114.653  0.00  0.00    -0.241 OA
ENDBRANCH   3  22
TORSDOF 7
ENDMDL
MODEL 5
REMARK VINA RESULT:      -4.6      7.405     10.116
REMARK  7 active torsions:
REMARK  status: ('A' for Active; 'I' for Inactive)
REMARK    1  A    between atoms: C_2  and  C_3 
REMARK    2  A    between atoms: C_3  and  O_6 
REMARK    3  A    between atoms: C_3  and  C_4 
REMARK    4  A    between atoms: C_7  and  O_6 
REMARK    5  A    between atoms: C_9  and  C_10 
REMARK    6  A    between atoms: N_15  and  C_14 
REMARK    7  A    between atoms: N_20  and  C_19 
REMARK       I    between atoms: C_22  and  N_20 
ROOT
ATOM      1  C   LIG d   1       3.819  89.769 115.874  0.00  0.00     0.161 C 
ATOM      2  C   LIG d   1       2.652  90.497 116.157  0.00  0.00     0.016 C 
ATOM      3  C   LIG d   1       2.511  91.331 117.291  0.00  0.00     0.038 C 
ATOM      4  C   LIG d   1       3.589  91.613 118.143  0.00  0.00     0.028 C 
ATOM      5  C   LIG d   1       4.636  90.505 118.180  0.00  0.00    -0.047 C 
ATOM      6  C   LIG d   1       5.044  90.150 116.732  0.00  0.00     0.091 C 
ENDROOT
BRANCH   1   7
ATOM      7  O   LIG d   1       4.136  89.879 114.472  0.00  0.00    -0.368 OA
BRANCH   7   8
ATOM      8  C   LIG d   1       3.940  88.683 113.679  0.00  0.00     0.119 C 
BRANCH   8   9
ATOM      9  C   LIG d   1       3.496  87.560 114.636  0.00  0.00     0.028 C 
ATOM     10  C   LIG d   1       4.439  86.346 114.593  0.00  0.00     0.006 C 
ENDBRANCH   8   9
BRANCH   8  11
ATOM     11  C   LIG d   1       5.258  88.198 113.067  0.00  0.00     0.028 C 
ATOM     12  C   LIG d   1       6.379  89.244 113.162  0.00  0.00     0.006 C 
ENDBRANCH   8  11
ENDBRANCH   7   8
ENDBRANCH   1   7
BRANCH   6  13
ATOM     13  N   LIG d   1       6.003  89.017 116.675  0.00  0.00    -0.311 N 
ATOM     14  C   LIG d   1       7.325  89.177 116.646  0.00  0.00     0.210 C 
ATOM     15  C   LIG d   1       8.132  87.877 116.567  0.00  0.00     0.109 C 
ATOM     16  O   LIG d   1       7.907  90.270 116.710  0.00  0.00    -0.276 OA
ATOM     17  H   LIG d   1       5.618  88.093 116.651  0.00  0.00     0.149 HD
ENDBRANCH   6  13
BRANCH   5  18
ATOM     18  N   LIG d   1       5.766  90.988 118.997  0.00  0.00     0.381 N 
ATOM     19  H   LIG d   1       6.612  90.942 118.465  0.00  0.00    -0.090 HD
ATOM     20  H   LIG d   1       5.865  90.392 119.800  0.00  0.00    -0.090 HD
ATOM     21  H   LIG d   1       5.600  91.926 119.289  0.00  0.00    -0.090 HD
ENDBRANCH   5  18
BRANCH   3  22
ATOM     22  C   LIG d   1       1.268  91.862 117.603  0.00  0.00     0.382 C 
ATOM     23  O   LIG d   1       1.189  92.948 118.225  0.00  0.00    -0.241 OA
ATOM     24  O   LIG d   1       0.226  91.246 117.309  0.00  0.00    -0.241 OA
ENDBRANCH   3  22
TORSDOF 7
ENDMDL
MODEL 6
REMARK VINA RESULT:      -4.6      2.623      6.203
REMARK  7 active torsions:
REMARK  status: ('A' for Active; 'I' for Inactive)
REMARK    1  A    between atoms: C_2  and  C_3 
REMARK    2  A    between atoms: C_3  and  O_6 
REMARK    3  A    between atoms: C_3  and  C_4 
REMARK    4  A    between atoms: C_7  and  O_6 
REMARK    5  A    between atoms: C_9  and  C_10 
REMARK    6  A    between atoms: N_15  and  C_14 
REMARK    7  A    between atoms: N_20  and  C_19 
REMARK       I    between atoms: C_22  and  N_20 
ROOT
ATOM      1  C   LIG d   1      -4.455  91.617 119.667  0.00  0.00     0.161 C 
ATOM      2  C   LIG d   1      -3.448  90.705 119.310  0.00  0.00     0.016 C 
ATOM      3  C   LIG d   1      -3.576  89.780 118.248  0.00  0.00     0.038 C 
ATOM      4  C   LIG d   1      -4.668  89.809 117.368  0.00  0.00     0.028 C 
ATOM      5  C   LIG d   1      -5.937  90.377 117.995  0.00  0.00    -0.047 C 
ATOM      6  C   LIG d   1      -5.607  91.739 118.648  0.00  0.00     0.091 C 
ENDROOT
BRANCH   1   7
ATOM      7  O   LIG d   1      -3.873  92.911 119.922  0.00  0.00    -0.368 OA
BRANCH   7   8
ATOM      8  C   LIG d   1      -3.878  93.842 118.812  0.00  0.00     0.119 C 
BRANCH   8   9
ATOM      9  C   LIG d   1      -2.410  94.155 118.463  0.00  0.00     0.028 C 
ATOM     10  C   LIG d   1      -1.877  93.271 117.323  0.00  0.00     0.006 C 
ENDBRANCH   8   9
BRANCH   8  11
ATOM     11  C   LIG d   1      -4.493  95.186 119.214  0.00  0.00     0.028 C 
ATOM     12  C   LIG d   1      -3.477  96.338 119.189  0.00  0.00     0.006 C 
ENDBRANCH   8  11
ENDBRANCH   7   8
ENDBRANCH   1   7
BRANCH   6  13
ATOM     13  N   LIG d   1      -6.774  92.324 119.358  0.00  0.00    -0.311 N 
ATOM     14  C   LIG d   1      -7.605  93.205 118.801  0.00  0.00     0.210 C 
ATOM     15  C   LIG d   1      -8.732  93.697 119.714  0.00  0.00     0.109 C 
ATOM     16  O   LIG d   1      -7.534  93.600 117.628  0.00  0.00    -0.276 OA
ATOM     17  H   LIG d   1      -6.925  92.035 120.304  0.00  0.00     0.149 HD
ENDBRANCH   6  13
BRANCH   5  18
ATOM     18  N   LIG d   1      -6.953  90.477 116.931  0.00  0.00     0.381 N 
ATOM     19  H   LIG d   1      -7.266  91.424 116.849  0.00  0.00    -0.090 HD
ATOM     20  H   LIG d   1      -7.741  89.906 117.179  0.00  0.00    -0.090 HD
ATOM     21  H   LIG d   1      -6.571  90.170 116.064  0.00  0.00    -0.090 HD
ENDBRANCH   5  18
BRANCH   3  22
ATOM     22  C   LIG d   1      -2.623  88.787 118.082  0.00  0.00     0.382 C 
ATOM     23  O   LIG d   1      -1.473  89.083 117.677  0.00  0.00    -0.241 OA
ATOM     24  O   LIG d   1      -2.911  87.594 118.291  0.00  0.00    -0.241 OA
ENDBRANCH   3  22
TORSDOF 7
ENDMDL
MODEL 7
REMARK VINA RESULT:      -4.2      2.451      6.058
REMARK  7 active torsions:
REMARK  status: ('A' for Active; 'I' for Inactive)
REMARK    1  A    between atoms: C_2  and  C_3 
REMARK    2  A    between atoms: C_3  and  O_6 
REMARK    3  A    between atoms: C_3  and  C_4 
REMARK    4  A    between atoms: C_7  and  O_6 
REMARK    5  A    between atoms: C_9  and  C_10 
REMARK    6  A    between atoms: N_15  and  C_14 
REMARK    7  A    between atoms: N_20  and  C_19 
REMARK       I    between atoms: C_22  and  N_20 
ROOT
ATOM      1  C   LIG d   1      -4.177  92.584 118.297  0.00  0.00     0.161 C 
ATOM      2  C   LIG d   1      -3.483  91.387 118.541  0.00  0.00     0.016 C 
ATOM      3  C   LIG d   1      -3.790  90.165 117.899  0.00  0.00     0.038 C 
ATOM      4  C   LIG d   1      -4.720  90.090 116.852  0.00  0.00     0.028 C 
ATOM      5  C   LIG d   1      -5.799  91.166 116.923  0.00  0.00    -0.047 C 
ATOM      6  C   LIG d   1      -5.122  92.547 117.077  0.00  0.00     0.091 C 
ENDROOT
BRANCH   1   7
ATOM      7  O   LIG d   1      -3.243  93.675 118.175  0.00  0.00    -0.368 OA
BRANCH   7   8
ATOM      8  C   LIG d   1      -2.893  94.355 119.405  0.00  0.00     0.119 C 
BRANCH   8   9
ATOM      9  C   LIG d   1      -3.229  95.848 119.220  0.00  0.00     0.028 C 
ATOM     10  C   LIG d   1      -4.705  96.159 119.520  0.00  0.00     0.006 C 
ENDBRANCH   8   9
BRANCH   8  11
ATOM     11  C   LIG d   1      -1.384  94.308 119.658  0.00  0.00     0.028 C 
ATOM     12  C   LIG d   1      -0.575  94.009 118.386  0.00  0.00     0.006 C 
ENDBRANCH   8  11
ENDBRANCH   7   8
ENDBRANCH   1   7
BRANCH   6  13
ATOM     13  N   LIG d   1      -6.108  93.647 117.238  0.00  0.00    -0.311 N 
ATOM     14  C   LIG d   1      -7.089  93.626 118.139  0.00  0.00     0.210 C 
ATOM     15  C   LIG d   1      -8.007  94.853 118.124  0.00  0.00     0.109 C 
ATOM     16  O   LIG d   1      -7.267  92.723 118.971  0.00  0.00    -0.276 OA
ATOM     17  H   LIG d   1      -6.018  94.433 116.625  0.00  0.00     0.149 HD
ENDBRANCH   6  13
BRANCH   5  18
ATOM     18  N   LIG d   1      -6.618  91.057 115.700  0.00  0.00     0.381 N 
ATOM     19  H   LIG d   1      -6.786  90.094 115.490  0.00  0.00    -0.090 HD
ATOM     20  H   LIG d   1      -6.112  91.464 114.933  0.00  0.00    -0.090 HD
ATOM     21  H   LIG d   1      -7.483  91.533 115.826  0.00  0.00    -0.090 HD
ENDBRANCH   5  18
BRANCH   3  22
ATOM     22  C   LIG d   1      -3.190  88.992 118.333  0.00  0.00     0.382 C 
ATOM     23  O   LIG d   1      -2.114  88.610 117.815  0.00  0.00    -0.241 OA
ATOM     24  O   LIG d   1      -3.736  88.289 119.204  0.00  0.00    -0.241 OA
ENDBRANCH   3  22
TORSDOF 7
ENDMDL
MODEL 8
REMARK VINA RESULT:      -4.2      1.979      5.271
REMARK  7 active torsions:
REMARK  status: ('A' for Active; 'I' for Inactive)
REMARK    1  A    between atoms: C_2  and  C_3 
REMARK    2  A    between atoms: C_3  and  O_6 
REMARK    3  A    between atoms: C_3  and  C_4 
REMARK    4  A    between atoms: C_7  and  O_6 
REMARK    5  A    between atoms: C_9  and  C_10 
REMARK    6  A    between atoms: N_15  and  C_14 
REMARK    7  A    between atoms: N_20  and  C_19 
REMARK       I    between atoms: C_22  and  N_20 
ROOT
ATOM      1  C   LIG d   1      -3.489  91.438 117.276  0.00  0.00     0.161 C 
ATOM      2  C   LIG d   1      -2.271  90.742 117.208  0.00  0.00     0.016 C 
ATOM      3  C   LIG d   1      -1.071  91.215 117.788  0.00  0.00     0.038 C 
ATOM      4  C   LIG d   1      -1.042  92.351 118.610  0.00  0.00     0.028 C 
ATOM      5  C   LIG d   1      -2.142  93.358 118.289  0.00  0.00    -0.047 C 
ATOM      6  C   LIG d   1      -3.502  92.625 118.262  0.00  0.00     0.091 C 
ENDROOT
BRANCH   1   7
ATOM      7  O   LIG d   1      -4.560  90.522 117.580  0.00  0.00    -0.368 OA
BRANCH   7   8
ATOM      8  C   LIG d   1      -5.473  90.227 116.495  0.00  0.00     0.119 C 
BRANCH   8   9
ATOM      9  C   LIG d   1      -5.531  91.470 115.587  0.00  0.00     0.028 C 
ATOM     10  C   LIG d   1      -6.587  91.338 114.476  0.00  0.00     0.006 C 
ENDBRANCH   8   9
BRANCH   8  11
ATOM     11  C   LIG d   1      -6.903  90.032 117.008  0.00  0.00     0.028 C 
ATOM     12  C   LIG d   1      -7.652  88.909 116.273  0.00  0.00     0.006 C 
ENDBRANCH   8  11
ENDBRANCH   7   8
ENDBRANCH   1   7
BRANCH   6  13
ATOM     13  N   LIG d   1      -4.622  93.521 117.873  0.00  0.00    -0.311 N 
ATOM     14  C   LIG d   1      -5.744  93.641 118.580  0.00  0.00     0.210 C 
ATOM     15  C   LIG d   1      -6.780  94.604 117.992  0.00  0.00     0.109 C 
ATOM     16  O   LIG d   1      -5.968  93.065 119.656  0.00  0.00    -0.276 OA
ATOM     17  H   LIG d   1      -4.512  94.049 117.030  0.00  0.00     0.149 HD
ENDBRANCH   6  13
BRANCH   5  18
ATOM     18  N   LIG d   1      -2.080  94.425 119.307  0.00  0.00     0.381 N 
ATOM     19  H   LIG d   1      -1.770  95.277 118.886  0.00  0.00    -0.090 HD
ATOM     20  H   LIG d   1      -1.415  94.162 120.013  0.00  0.00    -0.090 HD
ATOM     21  H   LIG d   1      -2.978  94.556 119.718  0.00  0.00    -0.090 HD
ENDBRANCH   5  18
BRANCH   3  22
ATOM     22  C   LIG d   1       0.125  90.570 117.514  0.00  0.00     0.382 C 
ATOM     23  O   LIG d   1       1.044  90.563 118.369  0.00  0.00    -0.241 OA
ATOM     24  O   LIG d   1       0.314  90.032 116.407  0.00  0.00    -0.241 OA
ENDBRANCH   3  22
TORSDOF 7
ENDMDL
MODEL 9
REMARK VINA RESULT:      -4.2      2.513      4.969
REMARK  7 active torsions:
REMARK  status: ('A' for Active; 'I' for Inactive)
REMARK    1  A    between atoms: C_2  and  C_3 
REMARK    2  A    between atoms: C_3  and  O_6 
REMARK    3  A    between atoms: C_3  and  C_4 
REMARK    4  A    between atoms: C_7  and  O_6 
REMARK    5  A    between atoms: C_9  and  C_10 
REMARK    6  A    between atoms: N_15  and  C_14 
REMARK    7  A    between atoms: N_20  and  C_19 
REMARK       I    between atoms: C_22  and  N_20 
ROOT
ATOM      1  C   LIG d   1      -3.152  93.078 118.316  0.00  0.00     0.161 C 
ATOM      2  C   LIG d   1      -4.441  92.926 117.778  0.00  0.00     0.016 C 
ATOM      3  C   LIG d   1      -4.887  91.742 117.147  0.00  0.00     0.038 C 
ATOM      4  C   LIG d   1      -4.118  90.569 117.145  0.00  0.00     0.028 C 
ATOM      5  C   LIG d   1      -2.617  90.828 117.230  0.00  0.00    -0.047 C 
ATOM      6  C   LIG d   1      -2.338  91.772 118.422  0.00  0.00     0.091 C 
ENDROOT
BRANCH   1   7
ATOM      7  O   LIG d   1      -3.232  93.724 119.602  0.00  0.00    -0.368 OA
BRANCH   7   8
ATOM      8  C   LIG d   1      -2.775  95.098 119.655  0.00  0.00     0.119 C 
BRANCH   8   9
ATOM      9  C   LIG d   1      -4.023  96.001 119.662  0.00  0.00     0.028 C 
ATOM     10  C   LIG d   1      -3.798  97.319 118.901  0.00  0.00     0.006 C 
ENDBRANCH   8   9
BRANCH   8  11
ATOM     11  C   LIG d   1      -2.006  95.478 118.386  0.00  0.00     0.028 C 
ATOM     12  C   LIG d   1      -0.502  95.676 118.638  0.00  0.00     0.006 C 
ENDBRANCH   8  11
ENDBRANCH   7   8
ENDBRANCH   1   7
BRANCH   6  13
ATOM     13  N   LIG d   1      -0.903  92.144 118.526  0.00  0.00    -0.311 N 
ATOM     14  C   LIG d   1      -0.025  91.479 119.276  0.00  0.00     0.210 C 
ATOM     15  C   LIG d   1       1.399  92.042 119.257  0.00  0.00     0.109 C 
ATOM     16  O   LIG d   1      -0.285  90.457 119.930  0.00  0.00    -0.276 OA
ATOM     17  H   LIG d   1      -0.599  92.942 118.003  0.00  0.00     0.149 HD
ENDBRANCH   6  13
BRANCH   5  18
ATOM     18  N   LIG d   1      -1.946  89.521 117.358  0.00  0.00     0.381 N 
ATOM     19  H   LIG d   1      -1.022  89.576 116.978  0.00  0.00    -0.090 HD
ATOM     20  H   LIG d   1      -2.463  88.837 116.833  0.00  0.00    -0.090 HD
ATOM     21  H   LIG d   1      -1.903  89.252 118.316  0.00  0.00    -0.090 HD
ENDBRANCH   5  18
BRANCH   3  22
ATOM     22  C   LIG d   1      -6.099  91.736 116.474  0.00  0.00     0.382 C 
ATOM     23  O   LIG d   1      -6.421  92.713 115.755  0.00  0.00    -0.241 OA
ATOM     24  O   LIG d   1      -6.893  90.787 116.611  0.00  0.00    -0.241 OA
ENDBRANCH   3  22
TORSDOF 7
ENDMDL
