MODEL 1
REMARK VINA RESULT:      -5.7      0.000      0.000
REMARK  7 active torsions:
REMARK  status: ('A' for Active; 'I' for Inactive)
REMARK    1  A    between atoms: C_2  and  C_3 
REMARK    2  A    between atoms: C_3  and  O_6 
REMARK    3  A    between atoms: C_3  and  C_4 
REMARK    4  A    between atoms: C_7  and  O_6 
REMARK    5  A    between atoms: C_9  and  C_10 
REMARK    6  A    between atoms: N_15  and  C_14 
REMARK    7  A    between atoms: N_20  and  C_19 
REMARK       I    between atoms: C_22  and  N_20 
ROOT
ATOM      1  C   LIG d   1      -5.549  92.420 117.854  0.00  0.00     0.161 C 
ATOM      2  C   LIG d   1      -6.116  93.558 118.452  0.00  0.00     0.016 C 
ATOM      3  C   LIG d   1      -7.247  94.229 117.933  0.00  0.00     0.038 C 
ATOM      4  C   LIG d   1      -7.985  93.714 116.857  0.00  0.00     0.028 C 
ATOM      5  C   LIG d   1      -7.157  92.848 115.914  0.00  0.00    -0.047 C 
ATOM      6  C   LIG d   1      -6.407  91.780 116.742  0.00  0.00     0.091 C 
ENDROOT
BRANCH   1   7
ATOM      7  O   LIG d   1      -5.229  91.444 118.865  0.00  0.00    -0.368 OA
BRANCH   7   8
ATOM      8  C   LIG d   1      -3.821  91.165 119.059  0.00  0.00     0.119 C 
BRANCH   8   9
ATOM      9  C   LIG d   1      -3.027  92.182 118.216  0.00  0.00     0.028 C 
ATOM     10  C   LIG d   1      -1.999  92.962 119.052  0.00  0.00     0.006 C 
ENDBRANCH   8   9
BRANCH   8  11
ATOM     11  C   LIG d   1      -3.443  89.791 118.498  0.00  0.00     0.028 C 
ATOM     12  C   LIG d   1      -2.438  89.041 119.386  0.00  0.00     0.006 C 
ENDBRANCH   8  11
ENDBRANCH   7   8
ENDBRANCH   1   7
BRANCH   6  13
ATOM     13  N   LIG d   1      -5.507  90.943 115.907  0.00  0.00    -0.311 N 
ATOM     14  C   LIG d   1      -5.831  89.726 115.472  0.00  0.00     0.210 C 
ATOM     15  C   LIG d   1      -4.751  89.027 114.641  0.00  0.00     0.109 C 
ATOM     16  O   LIG d   1      -6.924  89.173 115.668  0.00  0.00    -0.276 OA
ATOM     17  H   LIG d   1      -4.612  91.327 115.673  0.00  0.00     0.149 HD
ENDBRANCH   6  13
BRANCH   5  18
ATOM     18  N   LIG d   1      -8.077  92.266 114.919  0.00  0.00     0.381 N 
ATOM     19  H   LIG d   1      -7.554  91.879 114.159  0.00  0.00    -0.090 HD
ATOM     20  H   LIG d   1      -8.667  92.995 114.557  0.00  0.00    -0.090 HD
ATOM     21  H   LIG d   1      -8.634  91.558 115.343  0.00  0.00    -0.090 HD
ENDBRANCH   5  18
BRANCH   3  22
ATOM     22  C   LIG d   1      -7.628  95.450 118.468  0.00  0.00     0.382 C 
ATOM     23  O   LIG d   1      -7.264  95.768 119.626  0.00  0.00    -0.241 OA
ATOM     24  O   LIG d   1      -8.367  96.219 117.825  0.00  0.00    -0.241 OA
ENDBRANCH   3  22
TORSDOF 7
ENDMDL
MODEL 2
REMARK VINA RESULT:      -5.6      2.096      5.459
REMARK  7 active torsions:
REMARK  status: ('A' for Active; 'I' for Inactive)
REMARK    1  A    between atoms: C_2  and  C_3 
REMARK    2  A    between atoms: C_3  and  O_6 
REMARK    3  A    between atoms: C_3  and  C_4 
REMARK    4  A    between atoms: C_7  and  O_6 
REMARK    5  A    between atoms: C_9  and  C_10 
REMARK    6  A    between atoms: N_15  and  C_14 
REMARK    7  A    between atoms: N_20  and  C_19 
REMARK       I    between atoms: C_22  and  N_20 
ROOT
ATOM      1  C   LIG d   1      -4.658  90.328 116.670  0.00  0.00     0.161 C 
ATOM      2  C   LIG d   1      -4.061  89.374 115.828  0.00  0.00     0.016 C 
ATOM      3  C   LIG d   1      -4.688  88.856 114.672  0.00  0.00     0.038 C 
ATOM      4  C   LIG d   1      -5.901  89.371 114.192  0.00  0.00     0.028 C 
ATOM      5  C   LIG d   1      -6.776  89.977 115.284  0.00  0.00    -0.047 C 
ATOM      6  C   LIG d   1      -5.934  90.983 116.102  0.00  0.00     0.091 C 
ENDROOT
BRANCH   1   7
ATOM      7  O   LIG d   1      -3.693  91.337 117.027  0.00  0.00    -0.368 OA
BRANCH   7   8
ATOM      8  C   LIG d   1      -2.535  90.878 117.766  0.00  0.00     0.119 C 
BRANCH   8   9
ATOM      9  C   LIG d   1      -3.041  90.251 119.079  0.00  0.00     0.028 C 
ATOM     10  C   LIG d   1      -2.329  88.929 119.412  0.00  0.00     0.006 C 
ENDBRANCH   8   9
BRANCH   8  11
ATOM     11  C   LIG d   1      -1.645  92.049 118.193  0.00  0.00     0.028 C 
ATOM     12  C   LIG d   1      -2.143  93.401 117.657  0.00  0.00     0.006 C 
ENDBRANCH   8  11
ENDBRANCH   7   8
ENDBRANCH   1   7
BRANCH   6  13
ATOM     13  N   LIG d   1      -6.691  91.559 117.244  0.00  0.00    -0.311 N 
ATOM     14  C   LIG d   1      -7.446  92.652 117.147  0.00  0.00     0.210 C 
ATOM     15  C   LIG d   1      -8.124  93.088 118.449  0.00  0.00     0.109 C 
ATOM     16  O   LIG d   1      -7.643  93.284 116.098  0.00  0.00    -0.276 OA
ATOM     17  H   LIG d   1      -6.612  91.091 118.126  0.00  0.00     0.149 HD
ENDBRANCH   6  13
BRANCH   5  18
ATOM     18  N   LIG d   1      -7.943  90.597 114.628  0.00  0.00     0.381 N 
ATOM     19  H   LIG d   1      -8.761  90.049 114.802  0.00  0.00    -0.090 HD
ATOM     20  H   LIG d   1      -7.783  90.621 113.636  0.00  0.00    -0.090 HD
ATOM     21  H   LIG d   1      -8.075  91.523 114.973  0.00  0.00    -0.090 HD
ENDBRANCH   5  18
BRANCH   3  22
ATOM     22  C   LIG d   1      -4.118  87.782 114.004  0.00  0.00     0.382 C 
ATOM     23  O   LIG d   1      -4.250  87.676 112.761  0.00  0.00    -0.241 OA
ATOM     24  O   LIG d   1      -3.513  86.895 114.635  0.00  0.00    -0.241 OA
ENDBRANCH   3  22
TORSDOF 7
ENDMDL
MODEL 3
REMARK VINA RESULT:      -5.6      2.148      4.098
REMARK  7 active torsions:
REMARK  status: ('A' for Active; 'I' for Inactive)
REMARK    1  A    between atoms: C_2  and  C_3 
REMARK    2  A    between atoms: C_3  and  O_6 
REMARK    3  A    between atoms: C_3  and  C_4 
REMARK    4  A    between atoms: C_7  and  O_6 
REMARK    5  A    between atoms: C_9  and  C_10 
REMARK    6  A    between atoms: N_15  and  C_14 
REMARK    7  A    between atoms: N_20  and  C_19 
REMARK       I    between atoms: C_22  and  N_20 
ROOT
ATOM      1  C   LIG d   1      -6.270  90.664 117.670  0.00  0.00     0.161 C 
ATOM      2  C   LIG d   1      -7.331  91.512 117.312  0.00  0.00     0.016 C 
ATOM      3  C   LIG d   1      -7.255  92.922 117.374  0.00  0.00     0.038 C 
ATOM      4  C   LIG d   1      -6.053  93.588 117.657  0.00  0.00     0.028 C 
ATOM      5  C   LIG d   1      -5.094  92.769 118.514  0.00  0.00    -0.047 C 
ATOM      6  C   LIG d   1      -4.915  91.374 117.874  0.00  0.00     0.091 C 
ENDROOT
BRANCH   1   7
ATOM      7  O   LIG d   1      -6.140  89.607 116.699  0.00  0.00    -0.368 OA
BRANCH   7   8
ATOM      8  C   LIG d   1      -5.425  89.942 115.484  0.00  0.00     0.119 C 
BRANCH   8   9
ATOM      9  C   LIG d   1      -6.395  89.736 114.304  0.00  0.00     0.028 C 
ATOM     10  C   LIG d   1      -7.070  91.046 113.865  0.00  0.00     0.006 C 
ENDBRANCH   8   9
BRANCH   8  11
ATOM     11  C   LIG d   1      -4.269  88.970 115.232  0.00  0.00     0.028 C 
ATOM     12  C   LIG d   1      -4.419  88.193 113.915  0.00  0.00     0.006 C 
ENDBRANCH   8  11
ENDBRANCH   7   8
ENDBRANCH   1   7
BRANCH   6  13
ATOM     13  N   LIG d   1      -4.058  90.479 118.695  0.00  0.00    -0.311 N 
ATOM     14  C   LIG d   1      -2.769  90.264 118.441  0.00  0.00     0.210 C 
ATOM     15  C   LIG d   1      -2.075  89.290 119.399  0.00  0.00     0.109 C 
ATOM     16  O   LIG d   1      -2.126  90.811 117.532  0.00  0.00    -0.276 OA
ATOM     17  H   LIG d   1      -4.491  90.019 119.472  0.00  0.00     0.149 HD
ENDBRANCH   6  13
BRANCH   5  18
ATOM     18  N   LIG d   1      -3.832  93.525 118.616  0.00  0.00     0.381 N 
ATOM     19  H   LIG d   1      -3.058  92.920 118.422  0.00  0.00    -0.090 HD
ATOM     20  H   LIG d   1      -3.734  93.870 119.555  0.00  0.00    -0.090 HD
ATOM     21  H   LIG d   1      -3.837  94.286 117.973  0.00  0.00    -0.090 HD
ENDBRANCH   5  18
BRANCH   3  22
ATOM     22  C   LIG d   1      -8.401  93.681 117.190  0.00  0.00     0.382 C 
ATOM     23  O   LIG d   1      -8.790  94.458 118.096  0.00  0.00    -0.241 OA
ATOM     24  O   LIG d   1      -9.075  93.566 116.149  0.00  0.00    -0.241 OA
ENDBRANCH   3  22
TORSDOF 7
ENDMDL
MODEL 4
REMARK VINA RESULT:      -5.6      2.582      4.353
REMARK  7 active torsions:
REMARK  status: ('A' for Active; 'I' for Inactive)
REMARK    1  A    between atoms: C_2  and  C_3 
REMARK    2  A    between atoms: C_3  and  O_6 
REMARK    3  A    between atoms: C_3  and  C_4 
REMARK    4  A    between atoms: C_7  and  O_6 
REMARK    5  A    between atoms: C_9  and  C_10 
REMARK    6  A    between atoms: N_15  and  C_14 
REMARK    7  A    between atoms: N_20  and  C_19 
REMARK       I    between atoms: C_22  and  N_20 
ROOT
ATOM      1  C   LIG d   1      -4.476  91.700 116.769  0.00  0.00     0.161 C 
ATOM      2  C   LIG d   1      -5.664  92.042 116.102  0.00  0.00     0.016 C 
ATOM      3  C   LIG d   1      -6.276  91.218 115.130  0.00  0.00     0.038 C 
ATOM      4  C   LIG d   1      -5.819  89.918 114.867  0.00  0.00     0.028 C 
ATOM      5  C   LIG d   1      -4.332  89.730 115.149  0.00  0.00    -0.047 C 
ATOM      6  C   LIG d   1      -4.024  90.238 116.576  0.00  0.00     0.091 C 
ENDROOT
BRANCH   1   7
ATOM      7  O   LIG d   1      -4.598  92.006 118.172  0.00  0.00    -0.368 OA
BRANCH   7   8
ATOM      8  C   LIG d   1      -3.934  93.212 118.622  0.00  0.00     0.119 C 
BRANCH   8   9
ATOM      9  C   LIG d   1      -2.718  92.784 119.465  0.00  0.00     0.028 C 
ATOM     10  C   LIG d   1      -1.382  93.120 118.781  0.00  0.00     0.006 C 
ENDBRANCH   8   9
BRANCH   8  11
ATOM     11  C   LIG d   1      -4.824  94.016 119.574  0.00  0.00     0.028 C 
ATOM     12  C   LIG d   1      -6.161  94.428 118.936  0.00  0.00     0.006 C 
ENDBRANCH   8  11
ENDBRANCH   7   8
ENDBRANCH   1   7
BRANCH   6  13
ATOM     13  N   LIG d   1      -2.576  90.168 116.902  0.00  0.00    -0.311 N 
ATOM     14  C   LIG d   1      -2.081  89.418 117.885  0.00  0.00     0.210 C 
ATOM     15  C   LIG d   1      -0.562  89.507 118.065  0.00  0.00     0.109 C 
ATOM     16  O   LIG d   1      -2.752  88.663 118.605  0.00  0.00    -0.276 OA
ATOM     17  H   LIG d   1      -1.956  90.725 116.347  0.00  0.00     0.149 HD
ENDBRANCH   6  13
BRANCH   5  18
ATOM     18  N   LIG d   1      -4.021  88.300 114.964  0.00  0.00     0.381 N 
ATOM     19  H   LIG d   1      -4.711  87.741 115.425  0.00  0.00    -0.090 HD
ATOM     20  H   LIG d   1      -3.128  88.105 115.381  0.00  0.00    -0.090 HD
ATOM     21  H   LIG d   1      -3.998  88.078 113.993  0.00  0.00    -0.090 HD
ENDBRANCH   5  18
BRANCH   3  22
ATOM     22  C   LIG d   1      -7.334  91.708 114.380  0.00  0.00     0.382 C 
ATOM     23  O   LIG d   1      -8.050  92.633 114.836  0.00  0.00    -0.241 OA
ATOM     24  O   LIG d   1      -7.610  91.208 113.274  0.00  0.00    -0.241 OA
ENDBRANCH   3  22
TORSDOF 7
ENDMDL
MODEL 5
REMARK VINA RESULT:      -5.4      2.438      5.294
REMARK  7 active torsions:
REMARK  status: ('A' for Active; 'I' for Inactive)
REMARK    1  A    between atoms: C_2  and  C_3 
REMARK    2  A    between atoms: C_3  and  O_6 
REMARK    3  A    between atoms: C_3  and  C_4 
REMARK    4  A    between atoms: C_7  and  O_6 
REMARK    5  A    between atoms: C_9  and  C_10 
REMARK    6  A    between atoms: N_15  and  C_14 
REMARK    7  A    between atoms: N_20  and  C_19 
REMARK       I    between atoms: C_22  and  N_20 
ROOT
ATOM      1  C   LIG d   1      -5.623  92.730 117.721  0.00  0.00     0.161 C 
ATOM      2  C   LIG d   1      -6.612  91.822 117.308  0.00  0.00     0.016 C 
ATOM      3  C   LIG d   1      -6.322  90.565 116.729  0.00  0.00     0.038 C 
ATOM      4  C   LIG d   1      -5.013  90.064 116.661  0.00  0.00     0.028 C 
ATOM      5  C   LIG d   1      -3.949  91.155 116.603  0.00  0.00    -0.047 C 
ATOM      6  C   LIG d   1      -4.191  92.155 117.757  0.00  0.00     0.091 C 
ENDROOT
BRANCH   1   7
ATOM      7  O   LIG d   1      -5.973  93.284 119.005  0.00  0.00    -0.368 OA
BRANCH   7   8
ATOM      8  C   LIG d   1      -6.272  94.701 119.027  0.00  0.00     0.119 C 
BRANCH   8   9
ATOM      9  C   LIG d   1      -5.217  95.383 119.920  0.00  0.00     0.028 C 
ATOM     10  C   LIG d   1      -4.853  96.793 119.426  0.00  0.00     0.006 C 
ENDBRANCH   8   9
BRANCH   8  11
ATOM     11  C   LIG d   1      -7.617  94.976 119.706  0.00  0.00     0.028 C 
ATOM     12  C   LIG d   1      -8.443  93.699 119.930  0.00  0.00     0.006 C 
ENDBRANCH   8  11
ENDBRANCH   7   8
ENDBRANCH   1   7
BRANCH   6  13
ATOM     13  N   LIG d   1      -3.245  93.300 117.723  0.00  0.00    -0.311 N 
ATOM     14  C   LIG d   1      -2.110  93.335 118.419  0.00  0.00     0.210 C 
ATOM     15  C   LIG d   1      -1.290  94.618 118.255  0.00  0.00     0.109 C 
ATOM     16  O   LIG d   1      -1.689  92.411 119.131  0.00  0.00    -0.276 OA
ATOM     17  H   LIG d   1      -3.494  94.080 117.146  0.00  0.00     0.149 HD
ENDBRANCH   6  13
BRANCH   5  18
ATOM     18  N   LIG d   1      -2.631  90.497 116.675  0.00  0.00     0.381 N 
ATOM     19  H   LIG d   1      -2.705  89.555 116.346  0.00  0.00    -0.090 HD
ATOM     20  H   LIG d   1      -2.331  90.474 117.633  0.00  0.00    -0.090 HD
ATOM     21  H   LIG d   1      -1.969  90.998 116.124  0.00  0.00    -0.090 HD
ENDBRANCH   5  18
BRANCH   3  22
ATOM     22  C   LIG d   1      -7.345  89.812 116.173  0.00  0.00     0.382 C 
ATOM     23  O   LIG d   1      -7.735  88.766 116.746  0.00  0.00    -0.241 OA
ATOM     24  O   LIG d   1      -7.852  90.141 115.084  0.00  0.00    -0.241 OA
ENDBRANCH   3  22
TORSDOF 7
ENDMDL
MODEL 6
REMARK VINA RESULT:      -5.4      2.693      5.882
REMARK  7 active torsions:
REMARK  status: ('A' for Active; 'I' for Inactive)
REMARK    1  A    between atoms: C_2  and  C_3 
REMARK    2  A    between atoms: C_3  and  O_6 
REMARK    3  A    between atoms: C_3  and  C_4 
REMARK    4  A    between atoms: C_7  and  O_6 
REMARK    5  A    between atoms: C_9  and  C_10 
REMARK    6  A    between atoms: N_15  and  C_14 
REMARK    7  A    between atoms: N_20  and  C_19 
REMARK       I    between atoms: C_22  and  N_20 
ROOT
ATOM      1  C   LIG d   1      -4.300  90.922 116.872  0.00  0.00     0.161 C 
ATOM      2  C   LIG d   1      -3.033  90.321 116.954  0.00  0.00     0.016 C 
ATOM      3  C   LIG d   1      -1.920  90.932 117.575  0.00  0.00     0.038 C 
ATOM      4  C   LIG d   1      -2.037  92.131 118.294  0.00  0.00     0.028 C 
ATOM      5  C   LIG d   1      -3.178  93.019 117.808  0.00  0.00    -0.047 C 
ATOM      6  C   LIG d   1      -4.476  92.181 117.748  0.00  0.00     0.091 C 
ENDROOT
BRANCH   1   7
ATOM      7  O   LIG d   1      -5.322  89.953 117.178  0.00  0.00    -0.368 OA
BRANCH   7   8
ATOM      8  C   LIG d   1      -6.141  89.518 116.064  0.00  0.00     0.119 C 
BRANCH   8   9
ATOM      9  C   LIG d   1      -5.740  90.360 114.838  0.00  0.00     0.028 C 
ATOM     10  C   LIG d   1      -6.932  91.118 114.230  0.00  0.00     0.006 C 
ENDBRANCH   8   9
BRANCH   8  11
ATOM     11  C   LIG d   1      -7.620  89.832 116.305  0.00  0.00     0.028 C 
ATOM     12  C   LIG d   1      -8.446  88.582 116.650  0.00  0.00     0.006 C 
ENDBRANCH   8  11
ENDBRANCH   7   8
ENDBRANCH   1   7
BRANCH   6  13
ATOM     13  N   LIG d   1      -5.623  92.951 117.202  0.00  0.00    -0.311 N 
ATOM     14  C   LIG d   1      -6.785  93.087 117.840  0.00  0.00     0.210 C 
ATOM     15  C   LIG d   1      -7.842  93.905 117.092  0.00  0.00     0.109 C 
ATOM     16  O   LIG d   1      -7.029  92.635 118.969  0.00  0.00    -0.276 OA
ATOM     17  H   LIG d   1      -5.501  93.378 116.305  0.00  0.00     0.149 HD
ENDBRANCH   6  13
BRANCH   5  18
ATOM     18  N   LIG d   1      -3.273  94.166 118.730  0.00  0.00     0.381 N 
ATOM     19  H   LIG d   1      -2.356  94.485 118.970  0.00  0.00    -0.090 HD
ATOM     20  H   LIG d   1      -3.734  93.869 119.572  0.00  0.00    -0.090 HD
ATOM     21  H   LIG d   1      -3.788  94.905 118.304  0.00  0.00    -0.090 HD
ENDBRANCH   5  18
BRANCH   3  22
ATOM     22  C   LIG d   1      -0.662  90.362 117.445  0.00  0.00     0.382 C 
ATOM     23  O   LIG d   1       0.331  91.086 117.192  0.00  0.00    -0.241 OA
ATOM     24  O   LIG d   1      -0.515  89.129 117.535  0.00  0.00    -0.241 OA
ENDBRANCH   3  22
TORSDOF 7
ENDMDL
MODEL 7
REMARK VINA RESULT:      -5.1      2.322      4.310
REMARK  7 active torsions:
REMARK  status: ('A' for Active; 'I' for Inactive)
REMARK    1  A    between atoms: C_2  and  C_3 
REMARK    2  A    between atoms: C_3  and  O_6 
REMARK    3  A    between atoms: C_3  and  C_4 
REMARK    4  A    between atoms: C_7  and  O_6 
REMARK    5  A    between atoms: C_9  and  C_10 
REMARK    6  A    between atoms: N_15  and  C_14 
REMARK    7  A    between atoms: N_20  and  C_19 
REMARK       I    between atoms: C_22  and  N_20 
ROOT
ATOM      1  C   LIG d   1      -5.461  92.331 117.342  0.00  0.00     0.161 C 
ATOM      2  C   LIG d   1      -6.627  93.062 117.624  0.00  0.00     0.016 C 
ATOM      3  C   LIG d   1      -6.685  94.090 118.593  0.00  0.00     0.038 C 
ATOM      4  C   LIG d   1      -5.535  94.562 119.243  0.00  0.00     0.028 C 
ATOM      5  C   LIG d   1      -4.432  93.516 119.358  0.00  0.00    -0.047 C 
ATOM      6  C   LIG d   1      -4.171  92.906 117.962  0.00  0.00     0.091 C 
ENDROOT
BRANCH   1   7
ATOM      7  O   LIG d   1      -5.310  92.184 115.916  0.00  0.00    -0.368 OA
BRANCH   7   8
ATOM      8  C   LIG d   1      -5.472  90.842 115.393  0.00  0.00     0.119 C 
BRANCH   8   9
ATOM      9  C   LIG d   1      -6.620  90.881 114.366  0.00  0.00     0.028 C 
ATOM     10  C   LIG d   1      -7.328  92.246 114.328  0.00  0.00     0.006 C 
ENDBRANCH   8   9
BRANCH   8  11
ATOM     11  C   LIG d   1      -5.936  89.871 116.483  0.00  0.00     0.028 C 
ATOM     12  C   LIG d   1      -7.393  89.420 116.298  0.00  0.00     0.006 C 
ENDBRANCH   8  11
ENDBRANCH   7   8
ENDBRANCH   1   7
BRANCH   6  13
ATOM     13  N   LIG d   1      -3.164  91.814 117.999  0.00  0.00    -0.311 N 
ATOM     14  C   LIG d   1      -1.861  92.011 117.807  0.00  0.00     0.210 C 
ATOM     15  C   LIG d   1      -1.000  90.745 117.868  0.00  0.00     0.109 C 
ATOM     16  O   LIG d   1      -1.332  93.117 117.624  0.00  0.00    -0.276 OA
ATOM     17  H   LIG d   1      -3.502  90.887 118.173  0.00  0.00     0.149 HD
ENDBRANCH   6  13
BRANCH   5  18
ATOM     18  N   LIG d   1      -3.245  94.180 119.930  0.00  0.00     0.381 N 
ATOM     19  H   LIG d   1      -3.321  95.170 119.811  0.00  0.00    -0.090 HD
ATOM     20  H   LIG d   1      -2.428  93.865 119.438  0.00  0.00    -0.090 HD
ATOM     21  H   LIG d   1      -3.165  93.960 120.898  0.00  0.00    -0.090 HD
ENDBRANCH   5  18
BRANCH   3  22
ATOM     22  C   LIG d   1      -7.911  94.631 118.949  0.00  0.00     0.382 C 
ATOM     23  O   LIG d   1      -8.973  94.072 118.582  0.00  0.00    -0.241 OA
ATOM     24  O   LIG d   1      -7.970  95.694 119.594  0.00  0.00    -0.241 OA
ENDBRANCH   3  22
TORSDOF 7
ENDMDL
MODEL 8
REMARK VINA RESULT:      -5.0      2.018      4.737
REMARK  7 active torsions:
REMARK  status: ('A' for Active; 'I' for Inactive)
REMARK    1  A    between atoms: C_2  and  C_3 
REMARK    2  A    between atoms: C_3  and  O_6 
REMARK    3  A    between atoms: C_3  and  C_4 
REMARK    4  A    between atoms: C_7  and  O_6 
REMARK    5  A    between atoms: C_9  and  C_10 
REMARK    6  A    between atoms: N_15  and  C_14 
REMARK    7  A    between atoms: N_20  and  C_19 
REMARK       I    between atoms: C_22  and  N_20 
ROOT
ATOM      1  C   LIG d   1      -5.712  91.542 118.742  0.00  0.00     0.161 C 
ATOM      2  C   LIG d   1      -4.494  92.153 119.082  0.00  0.00     0.016 C 
ATOM      3  C   LIG d   1      -3.294  91.951 118.361  0.00  0.00     0.038 C 
ATOM      4  C   LIG d   1      -3.265  91.236 117.155  0.00  0.00     0.028 C 
ATOM      5  C   LIG d   1      -4.365  90.185 117.047  0.00  0.00    -0.047 C 
ATOM      6  C   LIG d   1      -5.725  90.847 117.364  0.00  0.00     0.091 C 
ENDROOT
BRANCH   1   7
ATOM      7  O   LIG d   1      -6.783  92.503 118.828  0.00  0.00    -0.368 OA
BRANCH   7   8
ATOM      8  C   LIG d   1      -6.721  93.611 117.896  0.00  0.00     0.119 C 
BRANCH   8   9
ATOM      9  C   LIG d   1      -6.592  94.905 118.723  0.00  0.00     0.028 C 
ATOM     10  C   LIG d   1      -7.520  96.021 118.214  0.00  0.00     0.006 C 
ENDBRANCH   8   9
BRANCH   8  11
ATOM     11  C   LIG d   1      -8.032  93.756 117.117  0.00  0.00     0.028 C 
ATOM     12  C   LIG d   1      -7.999  93.040 115.758  0.00  0.00     0.006 C 
ENDBRANCH   8  11
ENDBRANCH   7   8
ENDBRANCH   1   7
BRANCH   6  13
ATOM     13  N   LIG d   1      -6.845  89.870 117.363  0.00  0.00    -0.311 N 
ATOM     14  C   LIG d   1      -7.468  89.470 116.256  0.00  0.00     0.210 C 
ATOM     15  C   LIG d   1      -8.609  88.473 116.481  0.00  0.00     0.109 C 
ATOM     16  O   LIG d   1      -7.163  89.822 115.107  0.00  0.00    -0.276 OA
ATOM     17  H   LIG d   1      -7.136  89.510 118.251  0.00  0.00     0.149 HD
ENDBRANCH   6  13
BRANCH   5  18
ATOM     18  N   LIG d   1      -4.303  89.613 115.689  0.00  0.00     0.381 N 
ATOM     19  H   LIG d   1      -4.907  88.818 115.628  0.00  0.00    -0.090 HD
ATOM     20  H   LIG d   1      -3.363  89.309 115.506  0.00  0.00    -0.090 HD
ATOM     21  H   LIG d   1      -4.575  90.298 115.018  0.00  0.00    -0.090 HD
ENDBRANCH   5  18
BRANCH   3  22
ATOM     22  C   LIG d   1      -2.098  92.434 118.870  0.00  0.00     0.382 C 
ATOM     23  O   LIG d   1      -2.044  93.589 119.356  0.00  0.00    -0.241 OA
ATOM     24  O   LIG d   1      -1.062  91.745 118.809  0.00  0.00    -0.241 OA
ENDBRANCH   3  22
TORSDOF 7
ENDMDL
MODEL 9
REMARK VINA RESULT:      -4.9      2.584      6.089
REMARK  7 active torsions:
REMARK  status: ('A' for Active; 'I' for Inactive)
REMARK    1  A    between atoms: C_2  and  C_3 
REMARK    2  A    between atoms: C_3  and  O_6 
REMARK    3  A    between atoms: C_3  and  C_4 
REMARK    4  A    between atoms: C_7  and  O_6 
REMARK    5  A    between atoms: C_9  and  C_10 
REMARK    6  A    between atoms: N_15  and  C_14 
REMARK    7  A    between atoms: N_20  and  C_19 
REMARK       I    between atoms: C_22  and  N_20 
ROOT
ATOM      1  C   LIG d   1      -4.871  91.758 117.395  0.00  0.00     0.161 C 
ATOM      2  C   LIG d   1      -3.796  90.859 117.300  0.00  0.00     0.016 C 
ATOM      3  C   LIG d   1      -2.531  91.093 117.886  0.00  0.00     0.038 C 
ATOM      4  C   LIG d   1      -2.300  92.180 118.742  0.00  0.00     0.028 C 
ATOM      5  C   LIG d   1      -3.203  93.376 118.458  0.00  0.00    -0.047 C 
ATOM      6  C   LIG d   1      -4.672  92.897 118.417  0.00  0.00     0.091 C 
ENDROOT
BRANCH   1   7
ATOM      7  O   LIG d   1      -6.087  91.038 117.678  0.00  0.00    -0.368 OA
BRANCH   7   8
ATOM      8  C   LIG d   1      -7.060  90.984 116.606  0.00  0.00     0.119 C 
BRANCH   8   9
ATOM      9  C   LIG d   1      -7.104  89.531 116.093  0.00  0.00     0.028 C 
ATOM     10  C   LIG d   1      -8.334  88.765 116.607  0.00  0.00     0.006 C 
ENDBRANCH   8   9
BRANCH   8  11
ATOM     11  C   LIG d   1      -6.613  91.824 115.405  0.00  0.00     0.028 C 
ATOM     12  C   LIG d   1      -7.152  91.288 114.069  0.00  0.00     0.006 C 
ENDBRANCH   8  11
ENDBRANCH   7   8
ENDBRANCH   1   7
BRANCH   6  13
ATOM     13  N   LIG d   1      -5.615  93.990 118.062  0.00  0.00    -0.311 N 
ATOM     14  C   LIG d   1      -6.751  94.221 118.718  0.00  0.00     0.210 C 
ATOM     15  C   LIG d   1      -7.586  95.384 118.175  0.00  0.00     0.109 C 
ATOM     16  O   LIG d   1      -7.130  93.593 119.718  0.00  0.00    -0.276 OA
ATOM     17  H   LIG d   1      -5.370  94.568 117.282  0.00  0.00     0.149 HD
ENDBRANCH   6  13
BRANCH   5  18
ATOM     18  N   LIG d   1      -2.952  94.383 119.507  0.00  0.00     0.381 N 
ATOM     19  H   LIG d   1      -1.970  94.451 119.682  0.00  0.00    -0.090 HD
ATOM     20  H   LIG d   1      -3.404  94.089 120.355  0.00  0.00    -0.090 HD
ATOM     21  H   LIG d   1      -3.309  95.268 119.222  0.00  0.00    -0.090 HD
ENDBRANCH   5  18
BRANCH   3  22
ATOM     22  C   LIG d   1      -1.469  90.254 117.586  0.00  0.00     0.382 C 
ATOM     23  O   LIG d   1      -0.404  90.731 117.124  0.00  0.00    -0.241 OA
ATOM     24  O   LIG d   1      -1.577  89.021 117.731  0.00  0.00    -0.241 OA
ENDBRANCH   3  22
TORSDOF 7
ENDMDL
