MODEL 1
REMARK VINA RESULT:      -4.6      0.000      0.000
REMARK  7 active torsions:
REMARK  status: ('A' for Active; 'I' for Inactive)
REMARK    1  A    between atoms: C_2  and  C_3 
REMARK    2  A    between atoms: C_3  and  O_6 
REMARK    3  A    between atoms: C_3  and  C_4 
REMARK    4  A    between atoms: C_7  and  O_6 
REMARK    5  A    between atoms: C_9  and  C_10 
REMARK    6  A    between atoms: N_15  and  C_14 
REMARK    7  A    between atoms: N_20  and  C_19 
REMARK       I    between atoms: C_22  and  N_20 
ROOT
ATOM      1  C   LIG d   1       4.409  89.322 117.245  0.00  0.00     0.161 C 
ATOM      2  C   LIG d   1       5.397  90.013 117.966  0.00  0.00     0.016 C 
ATOM      3  C   LIG d   1       6.581  90.514 117.379  0.00  0.00     0.038 C 
ATOM      4  C   LIG d   1       6.790  90.489 115.992  0.00  0.00     0.028 C 
ATOM      5  C   LIG d   1       6.053  89.354 115.289  0.00  0.00    -0.047 C 
ATOM      6  C   LIG d   1       4.567  89.383 115.711  0.00  0.00     0.091 C 
ENDROOT
BRANCH   1   7
ATOM      7  O   LIG d   1       3.102  89.791 117.633  0.00  0.00    -0.368 OA
BRANCH   7   8
ATOM      8  C   LIG d   1       2.668  91.036 117.033  0.00  0.00     0.119 C 
BRANCH   8   9
ATOM      9  C   LIG d   1       2.575  92.084 118.159  0.00  0.00     0.028 C 
ATOM     10  C   LIG d   1       3.566  93.244 117.963  0.00  0.00     0.006 C 
ENDBRANCH   8   9
BRANCH   8  11
ATOM     11  C   LIG d   1       1.248  90.918 116.472  0.00  0.00     0.028 C 
ATOM     12  C   LIG d   1       0.213  91.698 117.298  0.00  0.00     0.006 C 
ENDBRANCH   8  11
ENDBRANCH   7   8
ENDBRANCH   1   7
BRANCH   6  13
ATOM     13  N   LIG d   1       3.792  88.253 115.134  0.00  0.00    -0.311 N 
ATOM     14  C   LIG d   1       3.151  88.323 113.969  0.00  0.00     0.210 C 
ATOM     15  C   LIG d   1       2.396  87.052 113.568  0.00  0.00     0.109 C 
ATOM     16  O   LIG d   1       3.162  89.307 113.213  0.00  0.00    -0.276 OA
ATOM     17  H   LIG d   1       3.755  87.406 115.667  0.00  0.00     0.149 HD
ENDBRANCH   6  13
BRANCH   5  18
ATOM     18  N   LIG d   1       6.246  89.529 113.837  0.00  0.00     0.381 N 
ATOM     19  H   LIG d   1       5.624  88.925 113.338  0.00  0.00    -0.090 HD
ATOM     20  H   LIG d   1       7.189  89.274 113.601  0.00  0.00    -0.090 HD
ATOM     21  H   LIG d   1       6.077  90.477 113.583  0.00  0.00    -0.090 HD
ENDBRANCH   5  18
BRANCH   3  22
ATOM     22  C   LIG d   1       7.592  91.012 118.188  0.00  0.00     0.382 C 
ATOM     23  O   LIG d   1       7.309  91.538 119.291  0.00  0.00    -0.241 OA
ATOM     24  O   LIG d   1       8.778  90.982 117.808  0.00  0.00    -0.241 OA
ENDBRANCH   3  22
TORSDOF 7
ENDMDL
MODEL 2
REMARK VINA RESULT:      -4.5      1.874      4.978
REMARK  7 active torsions:
REMARK  status: ('A' for Active; 'I' for Inactive)
REMARK    1  A    between atoms: C_2  and  C_3 
REMARK    2  A    between atoms: C_3  and  O_6 
REMARK    3  A    between atoms: C_3  and  C_4 
REMARK    4  A    between atoms: C_7  and  O_6 
REMARK    5  A    between atoms: C_9  and  C_10 
REMARK    6  A    between atoms: N_15  and  C_14 
REMARK    7  A    between atoms: N_20  and  C_19 
REMARK       I    between atoms: C_22  and  N_20 
ROOT
ATOM      1  C   LIG d   1       4.386  90.333 115.525  0.00  0.00     0.161 C 
ATOM      2  C   LIG d   1       3.749  89.598 114.511  0.00  0.00     0.016 C 
ATOM      3  C   LIG d   1       3.800  88.187 114.424  0.00  0.00     0.038 C 
ATOM      4  C   LIG d   1       4.368  87.402 115.438  0.00  0.00     0.028 C 
ATOM      5  C   LIG d   1       5.461  88.122 116.222  0.00  0.00    -0.047 C 
ATOM      6  C   LIG d   1       4.917  89.488 116.701  0.00  0.00     0.091 C 
ENDROOT
BRANCH   1   7
ATOM      7  O   LIG d   1       3.502  91.365 116.008  0.00  0.00    -0.368 OA
BRANCH   7   8
ATOM      8  C   LIG d   1       2.627  90.994 117.101  0.00  0.00     0.119 C 
BRANCH   8   9
ATOM      9  C   LIG d   1       1.183  91.006 116.563  0.00  0.00     0.028 C 
ATOM     10  C   LIG d   1       0.224  91.790 117.474  0.00  0.00     0.006 C 
ENDBRANCH   8   9
BRANCH   8  11
ATOM     11  C   LIG d   1       2.653  92.043 118.216  0.00  0.00     0.028 C 
ATOM     12  C   LIG d   1       3.671  93.165 117.955  0.00  0.00     0.006 C 
ENDBRANCH   8  11
ENDBRANCH   7   8
ENDBRANCH   1   7
BRANCH   6  13
ATOM     13  N   LIG d   1       5.949  90.294 117.404  0.00  0.00    -0.311 N 
ATOM     14  C   LIG d   1       6.064  90.342 118.730  0.00  0.00     0.210 C 
ATOM     15  C   LIG d   1       7.183  91.250 119.249  0.00  0.00     0.109 C 
ATOM     16  O   LIG d   1       5.366  89.694 119.524  0.00  0.00    -0.276 OA
ATOM     17  H   LIG d   1       6.578  90.826 116.835  0.00  0.00     0.149 HD
ENDBRANCH   6  13
BRANCH   5  18
ATOM     18  N   LIG d   1       5.868  87.241 117.332  0.00  0.00     0.381 N 
ATOM     19  H   LIG d   1       5.285  86.428 117.351  0.00  0.00    -0.090 HD
ATOM     20  H   LIG d   1       5.751  87.734 118.199  0.00  0.00    -0.090 HD
ATOM     21  H   LIG d   1       6.821  86.971 117.221  0.00  0.00    -0.090 HD
ENDBRANCH   5  18
BRANCH   3  22
ATOM     22  C   LIG d   1       3.312  87.550 113.293  0.00  0.00     0.382 C 
ATOM     23  O   LIG d   1       2.678  88.204 112.430  0.00  0.00    -0.241 OA
ATOM     24  O   LIG d   1       3.459  86.322 113.147  0.00  0.00    -0.241 OA
ENDBRANCH   3  22
TORSDOF 7
ENDMDL
MODEL 3
REMARK VINA RESULT:      -4.4      3.358      5.654
REMARK  7 active torsions:
REMARK  status: ('A' for Active; 'I' for Inactive)
REMARK    1  A    between atoms: C_2  and  C_3 
REMARK    2  A    between atoms: C_3  and  O_6 
REMARK    3  A    between atoms: C_3  and  C_4 
REMARK    4  A    between atoms: C_7  and  O_6 
REMARK    5  A    between atoms: C_9  and  C_10 
REMARK    6  A    between atoms: N_15  and  C_14 
REMARK    7  A    between atoms: N_20  and  C_19 
REMARK       I    between atoms: C_22  and  N_20 
ROOT
ATOM      1  C   LIG d   1       1.415  91.554 116.964  0.00  0.00     0.161 C 
ATOM      2  C   LIG d   1       2.636  92.158 117.310  0.00  0.00     0.016 C 
ATOM      3  C   LIG d   1       2.774  93.080 118.373  0.00  0.00     0.038 C 
ATOM      4  C   LIG d   1       1.724  93.347 119.263  0.00  0.00     0.028 C 
ATOM      5  C   LIG d   1       0.342  93.147 118.649  0.00  0.00    -0.047 C 
ATOM      6  C   LIG d   1       0.283  91.748 117.993  0.00  0.00     0.091 C 
ENDROOT
BRANCH   1   7
ATOM      7  O   LIG d   1       1.621  90.151 116.703  0.00  0.00    -0.368 OA
BRANCH   7   8
ATOM      8  C   LIG d   1       2.990  89.741 116.463  0.00  0.00     0.119 C 
BRANCH   8   9
ATOM      9  C   LIG d   1       3.089  89.305 114.988  0.00  0.00     0.028 C 
ATOM     10  C   LIG d   1       4.236  90.010 114.244  0.00  0.00     0.006 C 
ENDBRANCH   8   9
BRANCH   8  11
ATOM     11  C   LIG d   1       3.351  88.497 117.279  0.00  0.00     0.028 C 
ATOM     12  C   LIG d   1       4.184  88.825 118.528  0.00  0.00     0.006 C 
ENDBRANCH   8  11
ENDBRANCH   7   8
ENDBRANCH   1   7
BRANCH   6  13
ATOM     13  N   LIG d   1      -1.006  91.504 117.295  0.00  0.00    -0.311 N 
ATOM     14  C   LIG d   1      -2.106  91.078 117.914  0.00  0.00     0.210 C 
ATOM     15  C   LIG d   1      -3.321  90.871 117.005  0.00  0.00     0.109 C 
ATOM     16  O   LIG d   1      -2.200  90.883 119.136  0.00  0.00    -0.276 OA
ATOM     17  H   LIG d   1      -1.028  91.667 116.308  0.00  0.00     0.149 HD
ENDBRANCH   6  13
BRANCH   5  18
ATOM     18  N   LIG d   1      -0.653  93.325 119.723  0.00  0.00     0.381 N 
ATOM     19  H   LIG d   1      -1.526  92.921 119.446  0.00  0.00    -0.090 HD
ATOM     20  H   LIG d   1      -0.795  94.308 119.875  0.00  0.00    -0.090 HD
ATOM     21  H   LIG d   1      -0.331  92.895 120.562  0.00  0.00    -0.090 HD
ENDBRANCH   5  18
BRANCH   3  22
ATOM     22  C   LIG d   1       3.963  93.776 118.528  0.00  0.00     0.382 C 
ATOM     23  O   LIG d   1       4.180  94.417 119.584  0.00  0.00    -0.241 OA
ATOM     24  O   LIG d   1       4.802  93.806 117.609  0.00  0.00    -0.241 OA
ENDBRANCH   3  22
TORSDOF 7
ENDMDL
MODEL 4
REMARK VINA RESULT:      -4.4      7.525     10.926
REMARK  7 active torsions:
REMARK  status: ('A' for Active; 'I' for Inactive)
REMARK    1  A    between atoms: C_2  and  C_3 
REMARK    2  A    between atoms: C_3  and  O_6 
REMARK    3  A    between atoms: C_3  and  C_4 
REMARK    4  A    between atoms: C_7  and  O_6 
REMARK    5  A    between atoms: C_9  and  C_10 
REMARK    6  A    between atoms: N_15  and  C_14 
REMARK    7  A    between atoms: N_20  and  C_19 
REMARK       I    between atoms: C_22  and  N_20 
ROOT
ATOM      1  C   LIG d   1      -5.395  92.190 118.122  0.00  0.00     0.161 C 
ATOM      2  C   LIG d   1      -6.328  91.497 117.333  0.00  0.00     0.016 C 
ATOM      3  C   LIG d   1      -5.967  90.518 116.380  0.00  0.00     0.038 C 
ATOM      4  C   LIG d   1      -4.648  90.055 116.256  0.00  0.00     0.028 C 
ATOM      5  C   LIG d   1      -3.603  91.083 116.676  0.00  0.00    -0.047 C 
ATOM      6  C   LIG d   1      -3.962  91.619 118.080  0.00  0.00     0.091 C 
ENDROOT
BRANCH   1   7
ATOM      7  O   LIG d   1      -5.865  92.265 119.482  0.00  0.00    -0.368 OA
BRANCH   7   8
ATOM      8  C   LIG d   1      -6.317  93.567 119.930  0.00  0.00     0.119 C 
BRANCH   8   9
ATOM      9  C   LIG d   1      -7.821  93.670 119.611  0.00  0.00     0.028 C 
ATOM     10  C   LIG d   1      -8.383  95.076 119.878  0.00  0.00     0.006 C 
ENDBRANCH   8   9
BRANCH   8  11
ATOM     11  C   LIG d   1      -5.655  94.692 119.128  0.00  0.00     0.028 C 
ATOM     12  C   LIG d   1      -4.578  95.441 119.930  0.00  0.00     0.006 C 
ENDBRANCH   8  11
ENDBRANCH   7   8
ENDBRANCH   1   7
BRANCH   6  13
ATOM     13  N   LIG d   1      -3.037  92.691 118.531  0.00  0.00    -0.311 N 
ATOM     14  C   LIG d   1      -1.910  92.454 119.199  0.00  0.00     0.210 C 
ATOM     15  C   LIG d   1      -1.112  93.703 119.586  0.00  0.00     0.109 C 
ATOM     16  O   LIG d   1      -1.478  91.325 119.479  0.00  0.00    -0.276 OA
ATOM     17  H   LIG d   1      -3.295  93.635 118.319  0.00  0.00     0.149 HD
ENDBRANCH   6  13
BRANCH   5  18
ATOM     18  N   LIG d   1      -2.285  90.423 116.628  0.00  0.00     0.381 N 
ATOM     19  H   LIG d   1      -1.666  90.944 116.041  0.00  0.00    -0.090 HD
ATOM     20  H   LIG d   1      -2.395  89.505 116.235  0.00  0.00    -0.090 HD
ATOM     21  H   LIG d   1      -1.904  90.355 117.547  0.00  0.00    -0.090 HD
ENDBRANCH   5  18
BRANCH   3  22
ATOM     22  C   LIG d   1      -6.924  90.020 115.508  0.00  0.00     0.382 C 
ATOM     23  O   LIG d   1      -7.481  88.923 115.750  0.00  0.00    -0.241 OA
ATOM     24  O   LIG d   1      -7.205  90.634 114.462  0.00  0.00    -0.241 OA
ENDBRANCH   3  22
TORSDOF 7
ENDMDL
MODEL 5
REMARK VINA RESULT:      -4.3      1.783      4.647
REMARK  7 active torsions:
REMARK  status: ('A' for Active; 'I' for Inactive)
REMARK    1  A    between atoms: C_2  and  C_3 
REMARK    2  A    between atoms: C_3  and  O_6 
REMARK    3  A    between atoms: C_3  and  C_4 
REMARK    4  A    between atoms: C_7  and  O_6 
REMARK    5  A    between atoms: C_9  and  C_10 
REMARK    6  A    between atoms: N_15  and  C_14 
REMARK    7  A    between atoms: N_20  and  C_19 
REMARK       I    between atoms: C_22  and  N_20 
ROOT
ATOM      1  C   LIG d   1       4.168  90.958 116.562  0.00  0.00     0.161 C 
ATOM      2  C   LIG d   1       3.753  90.236 115.431  0.00  0.00     0.016 C 
ATOM      3  C   LIG d   1       4.559  89.271 114.784  0.00  0.00     0.038 C 
ATOM      4  C   LIG d   1       5.786  88.852 115.319  0.00  0.00     0.028 C 
ATOM      5  C   LIG d   1       6.468  89.913 116.176  0.00  0.00    -0.047 C 
ATOM      6  C   LIG d   1       5.460  90.434 117.225  0.00  0.00     0.091 C 
ENDROOT
BRANCH   1   7
ATOM      7  O   LIG d   1       3.098  91.014 117.526  0.00  0.00    -0.368 OA
BRANCH   7   8
ATOM      8  C   LIG d   1       2.099  92.041 117.310  0.00  0.00     0.119 C 
BRANCH   8   9
ATOM      9  C   LIG d   1       1.872  92.757 118.656  0.00  0.00     0.028 C 
ATOM     10  C   LIG d   1       3.149  93.434 119.183  0.00  0.00     0.006 C 
ENDBRANCH   8   9
BRANCH   8  11
ATOM     11  C   LIG d   1       0.743  91.431 116.942  0.00  0.00     0.028 C 
ATOM     12  C   LIG d   1      -0.426  92.075 117.703  0.00  0.00     0.006 C 
ENDBRANCH   8  11
ENDBRANCH   7   8
ENDBRANCH   1   7
BRANCH   6  13
ATOM     13  N   LIG d   1       6.019  91.536 118.051  0.00  0.00    -0.311 N 
ATOM     14  C   LIG d   1       6.598  91.343 119.235  0.00  0.00     0.210 C 
ATOM     15  C   LIG d   1       7.090  92.617 119.930  0.00  0.00     0.109 C 
ATOM     16  O   LIG d   1       6.779  90.235 119.762  0.00  0.00    -0.276 OA
ATOM     17  H   LIG d   1       5.943  92.465 117.685  0.00  0.00     0.149 HD
ENDBRANCH   6  13
BRANCH   5  18
ATOM     18  N   LIG d   1       7.665  89.298 116.779  0.00  0.00     0.381 N 
ATOM     19  H   LIG d   1       7.389  88.628 117.470  0.00  0.00    -0.090 HD
ATOM     20  H   LIG d   1       8.205  90.014 117.232  0.00  0.00    -0.090 HD
ATOM     21  H   LIG d   1       8.212  88.854 116.075  0.00  0.00    -0.090 HD
ENDBRANCH   5  18
BRANCH   3  22
ATOM     22  C   LIG d   1       4.156  88.744 113.567  0.00  0.00     0.382 C 
ATOM     23  O   LIG d   1       4.921  88.805 112.574  0.00  0.00    -0.241 OA
ATOM     24  O   LIG d   1       3.021  88.249 113.437  0.00  0.00    -0.241 OA
ENDBRANCH   3  22
TORSDOF 7
ENDMDL
MODEL 6
REMARK VINA RESULT:      -4.2      2.221      4.734
REMARK  7 active torsions:
REMARK  status: ('A' for Active; 'I' for Inactive)
REMARK    1  A    between atoms: C_2  and  C_3 
REMARK    2  A    between atoms: C_3  and  O_6 
REMARK    3  A    between atoms: C_3  and  C_4 
REMARK    4  A    between atoms: C_7  and  O_6 
REMARK    5  A    between atoms: C_9  and  C_10 
REMARK    6  A    between atoms: N_15  and  C_14 
REMARK    7  A    between atoms: N_20  and  C_19 
REMARK       I    between atoms: C_22  and  N_20 
ROOT
ATOM      1  C   LIG d   1       4.359  91.124 116.953  0.00  0.00     0.161 C 
ATOM      2  C   LIG d   1       4.297  92.179 117.879  0.00  0.00     0.016 C 
ATOM      3  C   LIG d   1       3.083  92.743 118.335  0.00  0.00     0.038 C 
ATOM      4  C   LIG d   1       1.838  92.186 118.008  0.00  0.00     0.028 C 
ATOM      5  C   LIG d   1       1.838  91.438 116.679  0.00  0.00    -0.047 C 
ATOM      6  C   LIG d   1       3.010  90.430 116.671  0.00  0.00     0.091 C 
ENDROOT
BRANCH   1   7
ATOM      7  O   LIG d   1       5.340  90.157 117.379  0.00  0.00    -0.368 OA
BRANCH   7   8
ATOM      8  C   LIG d   1       6.540  90.068 116.572  0.00  0.00     0.119 C 
BRANCH   8   9
ATOM      9  C   LIG d   1       6.575  88.658 115.950  0.00  0.00     0.028 C 
ATOM     10  C   LIG d   1       6.367  87.550 116.996  0.00  0.00     0.006 C 
ENDBRANCH   8   9
BRANCH   8  11
ATOM     11  C   LIG d   1       7.801  90.162 117.435  0.00  0.00     0.028 C 
ATOM     12  C   LIG d   1       7.966  91.537 118.101  0.00  0.00     0.006 C 
ENDBRANCH   8  11
ENDBRANCH   7   8
ENDBRANCH   1   7
BRANCH   6  13
ATOM     13  N   LIG d   1       3.134  89.716 115.374  0.00  0.00    -0.311 N 
ATOM     14  C   LIG d   1       3.079  88.390 115.259  0.00  0.00     0.210 C 
ATOM     15  C   LIG d   1       3.249  87.857 113.833  0.00  0.00     0.109 C 
ATOM     16  O   LIG d   1       2.873  87.606 116.198  0.00  0.00    -0.276 OA
ATOM     17  H   LIG d   1       3.272  90.276 114.556  0.00  0.00     0.149 HD
ENDBRANCH   6  13
BRANCH   5  18
ATOM     18  N   LIG d   1       0.520  90.794 116.530  0.00  0.00     0.381 N 
ATOM     19  H   LIG d   1       0.292  90.292 117.365  0.00  0.00    -0.090 HD
ATOM     20  H   LIG d   1       0.563  90.138 115.770  0.00  0.00    -0.090 HD
ATOM     21  H   LIG d   1      -0.177  91.481 116.347  0.00  0.00    -0.090 HD
ENDBRANCH   5  18
BRANCH   3  22
ATOM     22  C   LIG d   1       3.108  93.902 119.095  0.00  0.00     0.382 C 
ATOM     23  O   LIG d   1       2.042  94.524 119.325  0.00  0.00    -0.241 OA
ATOM     24  O   LIG d   1       4.187  94.359 119.517  0.00  0.00    -0.241 OA
ENDBRANCH   3  22
TORSDOF 7
ENDMDL
MODEL 7
REMARK VINA RESULT:      -4.2      2.518      5.997
REMARK  7 active torsions:
REMARK  status: ('A' for Active; 'I' for Inactive)
REMARK    1  A    between atoms: C_2  and  C_3 
REMARK    2  A    between atoms: C_3  and  O_6 
REMARK    3  A    between atoms: C_3  and  C_4 
REMARK    4  A    between atoms: C_7  and  O_6 
REMARK    5  A    between atoms: C_9  and  C_10 
REMARK    6  A    between atoms: N_15  and  C_14 
REMARK    7  A    between atoms: N_20  and  C_19 
REMARK       I    between atoms: C_22  and  N_20 
ROOT
ATOM      1  C   LIG d   1       2.726  90.569 116.543  0.00  0.00     0.161 C 
ATOM      2  C   LIG d   1       1.381  90.975 116.559  0.00  0.00     0.016 C 
ATOM      3  C   LIG d   1       0.828  91.797 117.567  0.00  0.00     0.038 C 
ATOM      4  C   LIG d   1       1.624  92.398 118.554  0.00  0.00     0.028 C 
ATOM      5  C   LIG d   1       2.892  91.612 118.870  0.00  0.00    -0.047 C 
ATOM      6  C   LIG d   1       3.635  91.305 117.550  0.00  0.00     0.091 C 
ENDROOT
BRANCH   1   7
ATOM      7  O   LIG d   1       3.257  90.689 115.209  0.00  0.00    -0.368 OA
BRANCH   7   8
ATOM      8  C   LIG d   1       3.297  89.469 114.427  0.00  0.00     0.119 C 
BRANCH   8   9
ATOM      9  C   LIG d   1       3.358  88.288 115.415  0.00  0.00     0.028 C 
ATOM     10  C   LIG d   1       2.510  87.092 114.952  0.00  0.00     0.006 C 
ENDBRANCH   8   9
BRANCH   8  11
ATOM     11  C   LIG d   1       4.587  89.377 113.606  0.00  0.00     0.028 C 
ATOM     12  C   LIG d   1       5.853  89.430 114.476  0.00  0.00     0.006 C 
ENDBRANCH   8  11
ENDBRANCH   7   8
ENDBRANCH   1   7
BRANCH   6  13
ATOM     13  N   LIG d   1       4.843  90.466 117.761  0.00  0.00    -0.311 N 
ATOM     14  C   LIG d   1       6.052  90.970 118.002  0.00  0.00     0.210 C 
ATOM     15  C   LIG d   1       7.164  89.929 118.170  0.00  0.00     0.109 C 
ATOM     16  O   LIG d   1       6.304  92.178 118.125  0.00  0.00    -0.276 OA
ATOM     17  H   LIG d   1       4.724  89.473 117.710  0.00  0.00     0.149 HD
ENDBRANCH   6  13
BRANCH   5  18
ATOM     18  N   LIG d   1       3.693  92.418 119.811  0.00  0.00     0.381 N 
ATOM     19  H   LIG d   1       3.561  93.391 119.621  0.00  0.00    -0.090 HD
ATOM     20  H   LIG d   1       4.665  92.200 119.680  0.00  0.00    -0.090 HD
ATOM     21  H   LIG d   1       3.423  92.215 120.749  0.00  0.00    -0.090 HD
ENDBRANCH   5  18
BRANCH   3  22
ATOM     22  C   LIG d   1      -0.544  91.994 117.618  0.00  0.00     0.382 C 
ATOM     23  O   LIG d   1      -1.299  91.056 117.970  0.00  0.00    -0.241 OA
ATOM     24  O   LIG d   1      -1.039  93.084 117.274  0.00  0.00    -0.241 OA
ENDBRANCH   3  22
TORSDOF 7
ENDMDL
MODEL 8
REMARK VINA RESULT:      -4.2      2.363      4.860
REMARK  7 active torsions:
REMARK  status: ('A' for Active; 'I' for Inactive)
REMARK    1  A    between atoms: C_2  and  C_3 
REMARK    2  A    between atoms: C_3  and  O_6 
REMARK    3  A    between atoms: C_3  and  C_4 
REMARK    4  A    between atoms: C_7  and  O_6 
REMARK    5  A    between atoms: C_9  and  C_10 
REMARK    6  A    between atoms: N_15  and  C_14 
REMARK    7  A    between atoms: N_20  and  C_19 
REMARK       I    between atoms: C_22  and  N_20 
ROOT
ATOM      1  C   LIG d   1       2.838  91.353 117.387  0.00  0.00     0.161 C 
ATOM      2  C   LIG d   1       2.584  90.635 116.207  0.00  0.00     0.016 C 
ATOM      3  C   LIG d   1       3.548  89.821 115.568  0.00  0.00     0.038 C 
ATOM      4  C   LIG d   1       4.793  89.548 116.154  0.00  0.00     0.028 C 
ATOM      5  C   LIG d   1       5.277  90.651 117.089  0.00  0.00    -0.047 C 
ATOM      6  C   LIG d   1       4.155  90.980 118.100  0.00  0.00     0.091 C 
ENDROOT
BRANCH   1   7
ATOM      7  O   LIG d   1       1.723  91.218 118.291  0.00  0.00    -0.368 OA
BRANCH   7   8
ATOM      8  C   LIG d   1       0.698  92.237 118.196  0.00  0.00     0.119 C 
BRANCH   8   9
ATOM      9  C   LIG d   1       1.147  93.427 119.066  0.00  0.00     0.028 C 
ATOM     10  C   LIG d   1       0.080  94.532 119.145  0.00  0.00     0.006 C 
ENDBRANCH   8   9
BRANCH   8  11
ATOM     11  C   LIG d   1      -0.621  91.760 118.810  0.00  0.00     0.028 C 
ATOM     12  C   LIG d   1      -1.680  91.412 117.752  0.00  0.00     0.006 C 
ENDBRANCH   8  11
ENDBRANCH   7   8
ENDBRANCH   1   7
BRANCH   6  13
ATOM     13  N   LIG d   1       4.514  92.107 118.999  0.00  0.00    -0.311 N 
ATOM     14  C   LIG d   1       4.683  93.358 118.574  0.00  0.00     0.210 C 
ATOM     15  C   LIG d   1       5.071  94.364 119.663  0.00  0.00     0.109 C 
ATOM     16  O   LIG d   1       4.517  93.737 117.405  0.00  0.00    -0.276 OA
ATOM     17  H   LIG d   1       4.638  91.895 119.970  0.00  0.00     0.149 HD
ENDBRANCH   6  13
BRANCH   5  18
ATOM     18  N   LIG d   1       6.516  90.177 117.734  0.00  0.00     0.381 N 
ATOM     19  H   LIG d   1       7.116  90.953 117.927  0.00  0.00    -0.090 HD
ATOM     20  H   LIG d   1       6.993  89.557 117.104  0.00  0.00    -0.090 HD
ATOM     21  H   LIG d   1       6.298  89.698 118.581  0.00  0.00    -0.090 HD
ENDBRANCH   5  18
BRANCH   3  22
ATOM     22  C   LIG d   1       3.284  89.301 114.310  0.00  0.00     0.382 C 
ATOM     23  O   LIG d   1       3.529  89.984 113.286  0.00  0.00    -0.241 OA
ATOM     24  O   LIG d   1       2.762  88.177 114.187  0.00  0.00    -0.241 OA
ENDBRANCH   3  22
TORSDOF 7
ENDMDL
MODEL 9
REMARK VINA RESULT:      -4.1      2.566      5.335
REMARK  7 active torsions:
REMARK  status: ('A' for Active; 'I' for Inactive)
REMARK    1  A    between atoms: C_2  and  C_3 
REMARK    2  A    between atoms: C_3  and  O_6 
REMARK    3  A    between atoms: C_3  and  C_4 
REMARK    4  A    between atoms: C_7  and  O_6 
REMARK    5  A    between atoms: C_9  and  C_10 
REMARK    6  A    between atoms: N_15  and  C_14 
REMARK    7  A    between atoms: N_20  and  C_19 
REMARK       I    between atoms: C_22  and  N_20 
ROOT
ATOM      1  C   LIG d   1       3.862  87.722 116.359  0.00  0.00     0.161 C 
ATOM      2  C   LIG d   1       2.894  88.728 116.205  0.00  0.00     0.016 C 
ATOM      3  C   LIG d   1       3.063  90.049 116.681  0.00  0.00     0.038 C 
ATOM      4  C   LIG d   1       4.282  90.495 117.213  0.00  0.00     0.028 C 
ATOM      5  C   LIG d   1       5.110  89.383 117.846  0.00  0.00    -0.047 C 
ATOM      6  C   LIG d   1       5.242  88.219 116.837  0.00  0.00     0.091 C 
ENDROOT
BRANCH   1   7
ATOM      7  O   LIG d   1       3.995  86.980 115.130  0.00  0.00    -0.368 OA
BRANCH   7   8
ATOM      8  C   LIG d   1       3.147  87.405 114.034  0.00  0.00     0.119 C 
BRANCH   8   9
ATOM      9  C   LIG d   1       2.387  86.164 113.528  0.00  0.00     0.028 C 
ATOM     10  C   LIG d   1       1.110  85.887 114.339  0.00  0.00     0.006 C 
ENDBRANCH   8   9
BRANCH   8  11
ATOM     11  C   LIG d   1       3.979  87.886 112.841  0.00  0.00     0.028 C 
ATOM     12  C   LIG d   1       5.035  88.932 113.233  0.00  0.00     0.006 C 
ENDBRANCH   8  11
ENDBRANCH   7   8
ENDBRANCH   1   7
BRANCH   6  13
ATOM     13  N   LIG d   1       5.967  87.053 117.407  0.00  0.00    -0.311 N 
ATOM     14  C   LIG d   1       7.266  86.832 117.215  0.00  0.00     0.210 C 
ATOM     15  C   LIG d   1       7.811  85.562 117.875  0.00  0.00     0.109 C 
ATOM     16  O   LIG d   1       8.026  87.584 116.586  0.00  0.00    -0.276 OA
ATOM     17  H   LIG d   1       5.433  86.409 117.957  0.00  0.00     0.149 HD
ENDBRANCH   6  13
BRANCH   5  18
ATOM     18  N   LIG d   1       6.411  89.961 118.235  0.00  0.00     0.381 N 
ATOM     19  H   LIG d   1       7.142  89.304 118.050  0.00  0.00    -0.090 HD
ATOM     20  H   LIG d   1       6.399  90.152 119.221  0.00  0.00    -0.090 HD
ATOM     21  H   LIG d   1       6.575  90.802 117.728  0.00  0.00    -0.090 HD
ENDBRANCH   5  18
BRANCH   3  22
ATOM     22  C   LIG d   1       1.991  90.928 116.663  0.00  0.00     0.382 C 
ATOM     23  O   LIG d   1       2.069  92.024 117.268  0.00  0.00    -0.241 OA
ATOM     24  O   LIG d   1       0.930  90.620 116.087  0.00  0.00    -0.241 OA
ENDBRANCH   3  22
TORSDOF 7
ENDMDL
