MODEL 1
REMARK VINA RESULT:      -4.8      0.000      0.000
REMARK  7 active torsions:
REMARK  status: ('A' for Active; 'I' for Inactive)
REMARK    1  A    between atoms: C_2  and  C_3 
REMARK    2  A    between atoms: C_3  and  O_6 
REMARK    3  A    between atoms: C_3  and  C_4 
REMARK    4  A    between atoms: C_7  and  O_6 
REMARK    5  A    between atoms: C_9  and  C_10 
REMARK    6  A    between atoms: N_15  and  C_14 
REMARK    7  A    between atoms: N_20  and  C_19 
REMARK       I    between atoms: C_22  and  N_20 
ROOT
ATOM      1  C   LIG d   1       0.613  90.018 117.717  0.00  0.00     0.161 C 
ATOM      2  C   LIG d   1      -0.745  89.667 117.628  0.00  0.00     0.016 C 
ATOM      3  C   LIG d   1      -1.788  90.451 118.173  0.00  0.00     0.038 C 
ATOM      4  C   LIG d   1      -1.554  91.723 118.716  0.00  0.00     0.028 C 
ATOM      5  C   LIG d   1      -0.147  91.891 119.280  0.00  0.00    -0.047 C 
ATOM      6  C   LIG d   1       0.878  91.456 118.208  0.00  0.00     0.091 C 
ENDROOT
BRANCH   1   7
ATOM      7  O   LIG d   1       1.259  89.794 116.448  0.00  0.00    -0.368 OA
BRANCH   7   8
ATOM      8  C   LIG d   1       2.162  88.662 116.384  0.00  0.00     0.119 C 
BRANCH   8   9
ATOM      9  C   LIG d   1       2.340  88.130 117.819  0.00  0.00     0.028 C 
ATOM     10  C   LIG d   1       3.804  88.186 118.288  0.00  0.00     0.006 C 
ENDBRANCH   8   9
BRANCH   8  11
ATOM     11  C   LIG d   1       3.561  89.090 115.933  0.00  0.00     0.028 C 
ATOM     12  C   LIG d   1       3.554  89.825 114.583  0.00  0.00     0.006 C 
ENDBRANCH   8  11
ENDBRANCH   7   8
ENDBRANCH   1   7
BRANCH   6  13
ATOM     13  N   LIG d   1       2.277  91.510 118.707  0.00  0.00    -0.311 N 
ATOM     14  C   LIG d   1       3.282  92.045 118.016  0.00  0.00     0.210 C 
ATOM     15  C   LIG d   1       4.649  91.979 118.706  0.00  0.00     0.109 C 
ATOM     16  O   LIG d   1       3.166  92.597 116.911  0.00  0.00    -0.276 OA
ATOM     17  H   LIG d   1       2.455  91.113 119.609  0.00  0.00     0.149 HD
ENDBRANCH   6  13
BRANCH   5  18
ATOM     18  N   LIG d   1       0.004  93.301 119.686  0.00  0.00     0.381 N 
ATOM     19  H   LIG d   1       0.024  93.887 118.876  0.00  0.00    -0.090 HD
ATOM     20  H   LIG d   1       0.877  93.407 120.174  0.00  0.00    -0.090 HD
ATOM     21  H   LIG d   1      -0.750  93.568 120.280  0.00  0.00    -0.090 HD
ENDBRANCH   5  18
BRANCH   3  22
ATOM     22  C   LIG d   1      -3.078  89.944 118.213  0.00  0.00     0.382 C 
ATOM     23  O   LIG d   1      -3.309  88.864 118.808  0.00  0.00    -0.241 OA
ATOM     24  O   LIG d   1      -4.006  90.531 117.625  0.00  0.00    -0.241 OA
ENDBRANCH   3  22
TORSDOF 7
ENDMDL
MODEL 2
REMARK VINA RESULT:      -4.6      4.092      6.090
REMARK  7 active torsions:
REMARK  status: ('A' for Active; 'I' for Inactive)
REMARK    1  A    between atoms: C_2  and  C_3 
REMARK    2  A    between atoms: C_3  and  O_6 
REMARK    3  A    between atoms: C_3  and  C_4 
REMARK    4  A    between atoms: C_7  and  O_6 
REMARK    5  A    between atoms: C_9  and  C_10 
REMARK    6  A    between atoms: N_15  and  C_14 
REMARK    7  A    between atoms: N_20  and  C_19 
REMARK       I    between atoms: C_22  and  N_20 
ROOT
ATOM      1  C   LIG d   1       5.222  88.336 116.395  0.00  0.00     0.161 C 
ATOM      2  C   LIG d   1       4.199  89.296 116.318  0.00  0.00     0.016 C 
ATOM      3  C   LIG d   1       4.251  90.544 116.980  0.00  0.00     0.038 C 
ATOM      4  C   LIG d   1       5.405  90.982 117.647  0.00  0.00     0.028 C 
ATOM      5  C   LIG d   1       6.269  89.841 118.174  0.00  0.00    -0.047 C 
ATOM      6  C   LIG d   1       6.536  88.841 117.026  0.00  0.00     0.091 C 
ENDROOT
BRANCH   1   7
ATOM      7  O   LIG d   1       5.473  87.785 115.087  0.00  0.00    -0.368 OA
BRANCH   7   8
ATOM      8  C   LIG d   1       4.343  87.751 114.181  0.00  0.00     0.119 C 
BRANCH   8   9
ATOM      9  C   LIG d   1       4.024  86.271 113.895  0.00  0.00     0.028 C 
ATOM     10  C   LIG d   1       3.614  86.031 112.432  0.00  0.00     0.006 C 
ENDBRANCH   8   9
BRANCH   8  11
ATOM     11  C   LIG d   1       4.700  88.359 112.822  0.00  0.00     0.028 C 
ATOM     12  C   LIG d   1       5.941  89.264 112.881  0.00  0.00     0.006 C 
ENDBRANCH   8  11
ENDBRANCH   7   8
ENDBRANCH   1   7
BRANCH   6  13
ATOM     13  N   LIG d   1       7.304  87.652 117.477  0.00  0.00    -0.311 N 
ATOM     14  C   LIG d   1       8.632  87.568 117.413  0.00  0.00     0.210 C 
ATOM     15  C   LIG d   1       9.222  86.246 117.912  0.00  0.00     0.109 C 
ATOM     16  O   LIG d   1       9.379  88.476 117.019  0.00  0.00    -0.276 OA
ATOM     17  H   LIG d   1       6.779  86.880 117.840  0.00  0.00     0.149 HD
ENDBRANCH   6  13
BRANCH   5  18
ATOM     18  N   LIG d   1       7.504  90.434 118.723  0.00  0.00     0.381 N 
ATOM     19  H   LIG d   1       7.616  91.365 118.375  0.00  0.00    -0.090 HD
ATOM     20  H   LIG d   1       8.290  89.887 118.420  0.00  0.00    -0.090 HD
ATOM     21  H   LIG d   1       7.463  90.446 119.718  0.00  0.00    -0.090 HD
ENDBRANCH   5  18
BRANCH   3  22
ATOM     22  C   LIG d   1       3.125  91.353 117.013  0.00  0.00     0.382 C 
ATOM     23  O   LIG d   1       1.993  90.844 117.195  0.00  0.00    -0.241 OA
ATOM     24  O   LIG d   1       3.222  92.579 116.820  0.00  0.00    -0.241 OA
ENDBRANCH   3  22
TORSDOF 7
ENDMDL
MODEL 3
REMARK VINA RESULT:      -4.6      3.146      5.821
REMARK  7 active torsions:
REMARK  status: ('A' for Active; 'I' for Inactive)
REMARK    1  A    between atoms: C_2  and  C_3 
REMARK    2  A    between atoms: C_3  and  O_6 
REMARK    3  A    between atoms: C_3  and  C_4 
REMARK    4  A    between atoms: C_7  and  O_6 
REMARK    5  A    between atoms: C_9  and  C_10 
REMARK    6  A    between atoms: N_15  and  C_14 
REMARK    7  A    between atoms: N_20  and  C_19 
REMARK       I    between atoms: C_22  and  N_20 
ROOT
ATOM      1  C   LIG d   1       3.793  90.511 116.301  0.00  0.00     0.161 C 
ATOM      2  C   LIG d   1       3.375  89.905 115.104  0.00  0.00     0.016 C 
ATOM      3  C   LIG d   1       4.209  89.075 114.320  0.00  0.00     0.038 C 
ATOM      4  C   LIG d   1       5.477  88.671 114.760  0.00  0.00     0.028 C 
ATOM      5  C   LIG d   1       6.131  89.661 115.718  0.00  0.00    -0.047 C 
ATOM      6  C   LIG d   1       5.136  89.991 116.854  0.00  0.00     0.091 C 
ENDROOT
BRANCH   1   7
ATOM      7  O   LIG d   1       2.759  90.387 117.298  0.00  0.00    -0.368 OA
BRANCH   7   8
ATOM      8  C   LIG d   1       1.826  89.294 117.116  0.00  0.00     0.119 C 
BRANCH   8   9
ATOM      9  C   LIG d   1       0.420  89.824 117.460  0.00  0.00     0.028 C 
ATOM     10  C   LIG d   1      -0.134  89.216 118.760  0.00  0.00     0.006 C 
ENDBRANCH   8   9
BRANCH   8  11
ATOM     11  C   LIG d   1       2.089  88.164 118.116  0.00  0.00     0.028 C 
ATOM     12  C   LIG d   1       2.944  87.032 117.524  0.00  0.00     0.006 C 
ENDBRANCH   8  11
ENDBRANCH   7   8
ENDBRANCH   1   7
BRANCH   6  13
ATOM     13  N   LIG d   1       5.665  91.018 117.789  0.00  0.00    -0.311 N 
ATOM     14  C   LIG d   1       5.804  90.815 119.098  0.00  0.00     0.210 C 
ATOM     15  C   LIG d   1       6.348  92.013 119.884  0.00  0.00     0.109 C 
ATOM     16  O   LIG d   1       5.559  89.747 119.678  0.00  0.00    -0.276 OA
ATOM     17  H   LIG d   1       5.918  91.905 117.398  0.00  0.00     0.149 HD
ENDBRANCH   6  13
BRANCH   5  18
ATOM     18  N   LIG d   1       7.383  89.051 116.204  0.00  0.00     0.381 N 
ATOM     19  H   LIG d   1       7.732  89.572 116.984  0.00  0.00    -0.090 HD
ATOM     20  H   LIG d   1       8.068  89.085 115.470  0.00  0.00    -0.090 HD
ATOM     21  H   LIG d   1       7.220  88.106 116.473  0.00  0.00    -0.090 HD
ENDBRANCH   5  18
BRANCH   3  22
ATOM     22  C   LIG d   1       3.789  88.674 113.060  0.00  0.00     0.382 C 
ATOM     23  O   LIG d   1       4.430  87.793 112.438  0.00  0.00    -0.241 OA
ATOM     24  O   LIG d   1       2.805  89.213 112.521  0.00  0.00    -0.241 OA
ENDBRANCH   3  22
TORSDOF 7
ENDMDL
MODEL 4
REMARK VINA RESULT:      -4.5      3.769      5.033
REMARK  7 active torsions:
REMARK  status: ('A' for Active; 'I' for Inactive)
REMARK    1  A    between atoms: C_2  and  C_3 
REMARK    2  A    between atoms: C_3  and  O_6 
REMARK    3  A    between atoms: C_3  and  C_4 
REMARK    4  A    between atoms: C_7  and  O_6 
REMARK    5  A    between atoms: C_9  and  C_10 
REMARK    6  A    between atoms: N_15  and  C_14 
REMARK    7  A    between atoms: N_20  and  C_19 
REMARK       I    between atoms: C_22  and  N_20 
ROOT
ATOM      1  C   LIG d   1       4.153  90.128 116.378  0.00  0.00     0.161 C 
ATOM      2  C   LIG d   1       3.155  91.031 116.781  0.00  0.00     0.016 C 
ATOM      3  C   LIG d   1       3.282  91.881 117.903  0.00  0.00     0.038 C 
ATOM      4  C   LIG d   1       4.486  91.995 118.615  0.00  0.00     0.028 C 
ATOM      5  C   LIG d   1       5.347  90.738 118.553  0.00  0.00    -0.047 C 
ATOM      6  C   LIG d   1       5.516  90.317 117.076  0.00  0.00     0.091 C 
ENDROOT
BRANCH   1   7
ATOM      7  O   LIG d   1       4.311  90.181 114.947  0.00  0.00    -0.368 OA
BRANCH   7   8
ATOM      8  C   LIG d   1       3.714  89.093 114.199  0.00  0.00     0.119 C 
BRANCH   8   9
ATOM      9  C   LIG d   1       3.488  87.926 115.179  0.00  0.00     0.028 C 
ATOM     10  C   LIG d   1       4.334  86.691 114.827  0.00  0.00     0.006 C 
ENDBRANCH   8   9
BRANCH   8  11
ATOM     11  C   LIG d   1       4.678  88.551 113.139  0.00  0.00     0.028 C 
ATOM     12  C   LIG d   1       5.960  89.389 113.015  0.00  0.00     0.006 C 
ENDBRANCH   8  11
ENDBRANCH   7   8
ENDBRANCH   1   7
BRANCH   6  13
ATOM     13  N   LIG d   1       6.276  89.048 116.931  0.00  0.00    -0.311 N 
ATOM     14  C   LIG d   1       7.597  88.999 116.772  0.00  0.00     0.210 C 
ATOM     15  C   LIG d   1       8.178  87.589 116.622  0.00  0.00     0.109 C 
ATOM     16  O   LIG d   1       8.347  89.986 116.772  0.00  0.00    -0.276 OA
ATOM     17  H   LIG d   1       5.749  88.197 116.951  0.00  0.00     0.149 HD
ENDBRANCH   6  13
BRANCH   5  18
ATOM     18  N   LIG d   1       6.628  91.043 119.219  0.00  0.00     0.381 N 
ATOM     19  H   LIG d   1       6.457  91.363 120.151  0.00  0.00    -0.090 HD
ATOM     20  H   LIG d   1       7.090  91.777 118.712  0.00  0.00    -0.090 HD
ATOM     21  H   LIG d   1       7.203  90.230 119.239  0.00  0.00    -0.090 HD
ENDBRANCH   5  18
BRANCH   3  22
ATOM     22  C   LIG d   1       2.183  92.601 118.348  0.00  0.00     0.382 C 
ATOM     23  O   LIG d   1       1.272  92.914 117.545  0.00  0.00    -0.241 OA
ATOM     24  O   LIG d   1       2.113  92.979 119.533  0.00  0.00    -0.241 OA
ENDBRANCH   3  22
TORSDOF 7
ENDMDL
MODEL 5
REMARK VINA RESULT:      -4.5      0.517      1.758
REMARK  7 active torsions:
REMARK  status: ('A' for Active; 'I' for Inactive)
REMARK    1  A    between atoms: C_2  and  C_3 
REMARK    2  A    between atoms: C_3  and  O_6 
REMARK    3  A    between atoms: C_3  and  C_4 
REMARK    4  A    between atoms: C_7  and  O_6 
REMARK    5  A    between atoms: C_9  and  C_10 
REMARK    6  A    between atoms: N_15  and  C_14 
REMARK    7  A    between atoms: N_20  and  C_19 
REMARK       I    between atoms: C_22  and  N_20 
ROOT
ATOM      1  C   LIG d   1       0.791  89.953 117.599  0.00  0.00     0.161 C 
ATOM      2  C   LIG d   1      -0.521  89.479 117.438  0.00  0.00     0.016 C 
ATOM      3  C   LIG d   1      -1.657  90.136 117.965  0.00  0.00     0.038 C 
ATOM      4  C   LIG d   1      -1.569  91.402 118.563  0.00  0.00     0.028 C 
ATOM      5  C   LIG d   1      -0.209  91.681 119.194  0.00  0.00    -0.047 C 
ATOM      6  C   LIG d   1       0.896  91.390 118.153  0.00  0.00     0.091 C 
ENDROOT
BRANCH   1   7
ATOM      7  O   LIG d   1       1.507  89.844 116.353  0.00  0.00    -0.368 OA
BRANCH   7   8
ATOM      8  C   LIG d   1       2.797  89.187 116.415  0.00  0.00     0.119 C 
BRANCH   8   9
ATOM      9  C   LIG d   1       3.093  88.615 115.014  0.00  0.00     0.028 C 
ATOM     10  C   LIG d   1       3.656  89.677 114.055  0.00  0.00     0.006 C 
ENDBRANCH   8   9
BRANCH   8  11
ATOM     11  C   LIG d   1       2.760  87.973 117.348  0.00  0.00     0.028 C 
ATOM     12  C   LIG d   1       3.865  88.010 118.416  0.00  0.00     0.006 C 
ENDBRANCH   8  11
ENDBRANCH   7   8
ENDBRANCH   1   7
BRANCH   6  13
ATOM     13  N   LIG d   1       2.262  91.556 118.715  0.00  0.00    -0.311 N 
ATOM     14  C   LIG d   1       3.247  92.181 118.073  0.00  0.00     0.210 C 
ATOM     15  C   LIG d   1       4.582  92.224 118.823  0.00  0.00     0.109 C 
ATOM     16  O   LIG d   1       3.134  92.732 116.967  0.00  0.00    -0.276 OA
ATOM     17  H   LIG d   1       2.433  91.167 119.621  0.00  0.00     0.149 HD
ENDBRANCH   6  13
BRANCH   5  18
ATOM     18  N   LIG d   1      -0.212  93.081 119.658  0.00  0.00     0.381 N 
ATOM     19  H   LIG d   1      -0.747  93.158 120.500  0.00  0.00    -0.090 HD
ATOM     20  H   LIG d   1      -0.645  93.656 118.956  0.00  0.00    -0.090 HD
ATOM     21  H   LIG d   1       0.722  93.389 119.820  0.00  0.00    -0.090 HD
ENDBRANCH   5  18
BRANCH   3  22
ATOM     22  C   LIG d   1      -2.892  89.508 117.930  0.00  0.00     0.382 C 
ATOM     23  O   LIG d   1      -3.629  89.628 116.922  0.00  0.00    -0.241 OA
ATOM     24  O   LIG d   1      -3.299  88.860 118.913  0.00  0.00    -0.241 OA
ENDBRANCH   3  22
TORSDOF 7
ENDMDL
MODEL 6
REMARK VINA RESULT:      -4.4      3.159      4.949
REMARK  7 active torsions:
REMARK  status: ('A' for Active; 'I' for Inactive)
REMARK    1  A    between atoms: C_2  and  C_3 
REMARK    2  A    between atoms: C_3  and  O_6 
REMARK    3  A    between atoms: C_3  and  C_4 
REMARK    4  A    between atoms: C_7  and  O_6 
REMARK    5  A    between atoms: C_9  and  C_10 
REMARK    6  A    between atoms: N_15  and  C_14 
REMARK    7  A    between atoms: N_20  and  C_19 
REMARK       I    between atoms: C_22  and  N_20 
ROOT
ATOM      1  C   LIG d   1       4.109  87.750 116.081  0.00  0.00     0.161 C 
ATOM      2  C   LIG d   1       2.782  88.164 116.285  0.00  0.00     0.016 C 
ATOM      3  C   LIG d   1       2.414  89.170 117.207  0.00  0.00     0.038 C 
ATOM      4  C   LIG d   1       3.371  89.941 117.884  0.00  0.00     0.028 C 
ATOM      5  C   LIG d   1       4.698  89.218 118.088  0.00  0.00    -0.047 C 
ATOM      6  C   LIG d   1       5.176  88.656 116.729  0.00  0.00     0.091 C 
ENDROOT
BRANCH   1   7
ATOM      7  O   LIG d   1       4.364  87.605 114.670  0.00  0.00    -0.368 OA
BRANCH   7   8
ATOM      8  C   LIG d   1       3.611  88.479 113.793  0.00  0.00     0.119 C 
BRANCH   8   9
ATOM      9  C   LIG d   1       3.270  87.677 112.522  0.00  0.00     0.028 C 
ATOM     10  C   LIG d   1       3.583  86.179 112.672  0.00  0.00     0.006 C 
ENDBRANCH   8   9
BRANCH   8  11
ATOM     11  C   LIG d   1       4.465  89.656 113.313  0.00  0.00     0.028 C 
ATOM     12  C   LIG d   1       5.911  89.251 112.990  0.00  0.00     0.006 C 
ENDBRANCH   8  11
ENDBRANCH   7   8
ENDBRANCH   1   7
BRANCH   6  13
ATOM     13  N   LIG d   1       6.426  87.861 116.853  0.00  0.00    -0.311 N 
ATOM     14  C   LIG d   1       7.644  88.392 116.761  0.00  0.00     0.210 C 
ATOM     15  C   LIG d   1       8.797  87.392 116.898  0.00  0.00     0.109 C 
ATOM     16  O   LIG d   1       7.880  89.600 116.611  0.00  0.00    -0.276 OA
ATOM     17  H   LIG d   1       6.327  86.877 117.007  0.00  0.00     0.149 HD
ENDBRANCH   6  13
BRANCH   5  18
ATOM     18  N   LIG d   1       5.644  90.182 118.680  0.00  0.00     0.381 N 
ATOM     19  H   LIG d   1       6.527  89.737 118.836  0.00  0.00    -0.090 HD
ATOM     20  H   LIG d   1       5.284  90.487 119.567  0.00  0.00    -0.090 HD
ATOM     21  H   LIG d   1       5.760  90.963 118.073  0.00  0.00    -0.090 HD
ENDBRANCH   5  18
BRANCH   3  22
ATOM     22  C   LIG d   1       1.074  89.386 117.490  0.00  0.00     0.382 C 
ATOM     23  O   LIG d   1       0.607  89.054 118.606  0.00  0.00    -0.241 OA
ATOM     24  O   LIG d   1       0.316  89.868 116.627  0.00  0.00    -0.241 OA
ENDBRANCH   3  22
TORSDOF 7
ENDMDL
MODEL 7
REMARK VINA RESULT:      -4.2      3.547      6.112
REMARK  7 active torsions:
REMARK  status: ('A' for Active; 'I' for Inactive)
REMARK    1  A    between atoms: C_2  and  C_3 
REMARK    2  A    between atoms: C_3  and  O_6 
REMARK    3  A    between atoms: C_3  and  C_4 
REMARK    4  A    between atoms: C_7  and  O_6 
REMARK    5  A    between atoms: C_9  and  C_10 
REMARK    6  A    between atoms: N_15  and  C_14 
REMARK    7  A    between atoms: N_20  and  C_19 
REMARK       I    between atoms: C_22  and  N_20 
ROOT
ATOM      1  C   LIG d   1       4.270  90.279 116.630  0.00  0.00     0.161 C 
ATOM      2  C   LIG d   1       3.548  90.088 115.441  0.00  0.00     0.016 C 
ATOM      3  C   LIG d   1       4.018  89.305 114.362  0.00  0.00     0.038 C 
ATOM      4  C   LIG d   1       5.184  88.530 114.461  0.00  0.00     0.028 C 
ATOM      5  C   LIG d   1       6.200  89.088 115.452  0.00  0.00    -0.047 C 
ATOM      6  C   LIG d   1       5.492  89.352 116.801  0.00  0.00     0.091 C 
ENDROOT
BRANCH   1   7
ATOM      7  O   LIG d   1       3.387  90.157 117.763  0.00  0.00    -0.368 OA
BRANCH   7   8
ATOM      8  C   LIG d   1       3.124  91.376 118.500  0.00  0.00     0.119 C 
BRANCH   8   9
ATOM      9  C   LIG d   1       1.638  91.729 118.296  0.00  0.00     0.028 C 
ATOM     10  C   LIG d   1       0.764  90.484 118.070  0.00  0.00     0.006 C 
ENDBRANCH   8   9
BRANCH   8  11
ATOM     11  C   LIG d   1       3.906  92.558 117.920  0.00  0.00     0.028 C 
ATOM     12  C   LIG d   1       4.869  93.192 118.936  0.00  0.00     0.006 C 
ENDBRANCH   8  11
ENDBRANCH   7   8
ENDBRANCH   1   7
BRANCH   6  13
ATOM     13  N   LIG d   1       6.395  89.978 117.802  0.00  0.00    -0.311 N 
ATOM     14  C   LIG d   1       6.508  89.548 119.057  0.00  0.00     0.210 C 
ATOM     15  C   LIG d   1       7.481  90.347 119.930  0.00  0.00     0.109 C 
ATOM     16  O   LIG d   1       5.919  88.560 119.522  0.00  0.00    -0.276 OA
ATOM     17  H   LIG d   1       6.934  90.766 117.500  0.00  0.00     0.149 HD
ENDBRANCH   6  13
BRANCH   5  18
ATOM     18  N   LIG d   1       7.301  88.112 115.558  0.00  0.00     0.381 N 
ATOM     19  H   LIG d   1       7.602  87.841 114.643  0.00  0.00    -0.090 HD
ATOM     20  H   LIG d   1       6.966  87.294 116.035  0.00  0.00    -0.090 HD
ATOM     21  H   LIG d   1       8.062  88.511 116.062  0.00  0.00    -0.090 HD
ENDBRANCH   5  18
BRANCH   3  22
ATOM     22  C   LIG d   1       3.340  89.322 113.153  0.00  0.00     0.382 C 
ATOM     23  O   LIG d   1       3.304  88.291 112.439  0.00  0.00    -0.241 OA
ATOM     24  O   LIG d   1       2.802  90.369 112.746  0.00  0.00    -0.241 OA
ENDBRANCH   3  22
TORSDOF 7
ENDMDL
MODEL 8
REMARK VINA RESULT:      -4.0      3.523      5.450
REMARK  7 active torsions:
REMARK  status: ('A' for Active; 'I' for Inactive)
REMARK    1  A    between atoms: C_2  and  C_3 
REMARK    2  A    between atoms: C_3  and  O_6 
REMARK    3  A    between atoms: C_3  and  C_4 
REMARK    4  A    between atoms: C_7  and  O_6 
REMARK    5  A    between atoms: C_9  and  C_10 
REMARK    6  A    between atoms: N_15  and  C_14 
REMARK    7  A    between atoms: N_20  and  C_19 
REMARK       I    between atoms: C_22  and  N_20 
ROOT
ATOM      1  C   LIG d   1       5.218  89.743 116.453  0.00  0.00     0.161 C 
ATOM      2  C   LIG d   1       3.960  90.369 116.461  0.00  0.00     0.016 C 
ATOM      3  C   LIG d   1       3.541  91.260 117.475  0.00  0.00     0.038 C 
ATOM      4  C   LIG d   1       4.414  91.707 118.477  0.00  0.00     0.028 C 
ATOM      5  C   LIG d   1       5.528  90.716 118.795  0.00  0.00    -0.047 C 
ATOM      6  C   LIG d   1       6.225  90.304 117.478  0.00  0.00     0.091 C 
ENDROOT
BRANCH   1   7
ATOM      7  O   LIG d   1       5.777  89.788 115.125  0.00  0.00    -0.368 OA
BRANCH   7   8
ATOM      8  C   LIG d   1       5.921  88.513 114.451  0.00  0.00     0.119 C 
BRANCH   8   9
ATOM      9  C   LIG d   1       5.270  88.649 113.061  0.00  0.00     0.028 C 
ATOM     10  C   LIG d   1       3.781  88.261 113.070  0.00  0.00     0.006 C 
ENDBRANCH   8   9
BRANCH   8  11
ATOM     11  C   LIG d   1       5.129  87.413 115.164  0.00  0.00     0.028 C 
ATOM     12  C   LIG d   1       6.033  86.359 115.822  0.00  0.00     0.006 C 
ENDBRANCH   8  11
ENDBRANCH   7   8
ENDBRANCH   1   7
BRANCH   6  13
ATOM     13  N   LIG d   1       7.273  89.272 117.690  0.00  0.00    -0.311 N 
ATOM     14  C   LIG d   1       8.566  89.477 117.442  0.00  0.00     0.210 C 
ATOM     15  C   LIG d   1       9.475  88.274 117.710  0.00  0.00     0.109 C 
ATOM     16  O   LIG d   1       9.050  90.552 117.056  0.00  0.00    -0.276 OA
ATOM     17  H   LIG d   1       6.972  88.380 118.031  0.00  0.00     0.149 HD
ENDBRANCH   6  13
BRANCH   5  18
ATOM     18  N   LIG d   1       6.442  91.365 119.754  0.00  0.00     0.381 N 
ATOM     19  H   LIG d   1       6.716  92.262 119.407  0.00  0.00    -0.090 HD
ATOM     20  H   LIG d   1       7.267  90.799 119.852  0.00  0.00    -0.090 HD
ATOM     21  H   LIG d   1       5.993  91.465 120.638  0.00  0.00    -0.090 HD
ENDBRANCH   5  18
BRANCH   3  22
ATOM     22  C   LIG d   1       2.221  91.684 117.514  0.00  0.00     0.382 C 
ATOM     23  O   LIG d   1       1.956  92.910 117.530  0.00  0.00    -0.241 OA
ATOM     24  O   LIG d   1       1.293  90.855 117.580  0.00  0.00    -0.241 OA
ENDBRANCH   3  22
TORSDOF 7
ENDMDL
MODEL 9
REMARK VINA RESULT:      -3.8      2.291      5.699
REMARK  7 active torsions:
REMARK  status: ('A' for Active; 'I' for Inactive)
REMARK    1  A    between atoms: C_2  and  C_3 
REMARK    2  A    between atoms: C_3  and  O_6 
REMARK    3  A    between atoms: C_3  and  C_4 
REMARK    4  A    between atoms: C_7  and  O_6 
REMARK    5  A    between atoms: C_9  and  C_10 
REMARK    6  A    between atoms: N_15  and  C_14 
REMARK    7  A    between atoms: N_20  and  C_19 
REMARK       I    between atoms: C_22  and  N_20 
ROOT
ATOM      1  C   LIG d   1       3.006  89.791 116.303  0.00  0.00     0.161 C 
ATOM      2  C   LIG d   1       4.383  90.018 116.457  0.00  0.00     0.016 C 
ATOM      3  C   LIG d   1       4.968  90.468 117.663  0.00  0.00     0.038 C 
ATOM      4  C   LIG d   1       4.229  90.577 118.850  0.00  0.00     0.028 C 
ATOM      5  C   LIG d   1       2.746  90.843 118.617  0.00  0.00    -0.047 C 
ATOM      6  C   LIG d   1       2.199  89.798 117.618  0.00  0.00     0.091 C 
ENDROOT
BRANCH   1   7
ATOM      7  O   LIG d   1       2.790  88.557 115.590  0.00  0.00    -0.368 OA
BRANCH   7   8
ATOM      8  C   LIG d   1       3.978  87.892 115.094  0.00  0.00     0.119 C 
BRANCH   8   9
ATOM      9  C   LIG d   1       3.815  87.730 113.570  0.00  0.00     0.028 C 
ATOM     10  C   LIG d   1       4.881  88.507 112.780  0.00  0.00     0.006 C 
ENDBRANCH   8   9
BRANCH   8  11
ATOM     11  C   LIG d   1       4.090  86.467 115.644  0.00  0.00     0.028 C 
ATOM     12  C   LIG d   1       3.649  86.359 117.112  0.00  0.00     0.006 C 
ENDBRANCH   8  11
ENDBRANCH   7   8
ENDBRANCH   1   7
BRANCH   6  13
ATOM     13  N   LIG d   1       0.774  90.037 117.271  0.00  0.00    -0.311 N 
ATOM     14  C   LIG d   1      -0.245  89.509 117.947  0.00  0.00     0.210 C 
ATOM     15  C   LIG d   1      -1.634  89.868 117.409  0.00  0.00     0.109 C 
ATOM     16  O   LIG d   1      -0.131  88.804 118.961  0.00  0.00    -0.276 OA
ATOM     17  H   LIG d   1       0.590  90.623 116.480  0.00  0.00     0.149 HD
ENDBRANCH   6  13
BRANCH   5  18
ATOM     18  N   LIG d   1       2.073  90.797 119.929  0.00  0.00     0.381 N 
ATOM     19  H   LIG d   1       1.400  90.057 119.939  0.00  0.00    -0.090 HD
ATOM     20  H   LIG d   1       1.590  91.665 120.078  0.00  0.00    -0.090 HD
ATOM     21  H   LIG d   1       2.744  90.654 120.651  0.00  0.00    -0.090 HD
ENDBRANCH   5  18
BRANCH   3  22
ATOM     22  C   LIG d   1       6.301  90.852 117.679  0.00  0.00     0.382 C 
ATOM     23  O   LIG d   1       7.145  90.216 117.003  0.00  0.00    -0.241 OA
ATOM     24  O   LIG d   1       6.676  91.799 118.395  0.00  0.00    -0.241 OA
ENDBRANCH   3  22
TORSDOF 7
ENDMDL
