MODEL 1
REMARK VINA RESULT:      -5.2      0.000      0.000
REMARK  7 active torsions:
REMARK  status: ('A' for Active; 'I' for Inactive)
REMARK    1  A    between atoms: C_2  and  C_3 
REMARK    2  A    between atoms: C_3  and  O_6 
REMARK    3  A    between atoms: C_3  and  C_4 
REMARK    4  A    between atoms: C_7  and  O_6 
REMARK    5  A    between atoms: C_9  and  C_10 
REMARK    6  A    between atoms: N_15  and  C_14 
REMARK    7  A    between atoms: N_20  and  C_19 
REMARK       I    between atoms: C_22  and  N_20 
ROOT
ATOM      1  C   LIG d   1      -4.193  91.199 117.623  0.00  0.00     0.161 C 
ATOM      2  C   LIG d   1      -3.283  92.143 118.125  0.00  0.00     0.016 C 
ATOM      3  C   LIG d   1      -3.669  93.260 118.901  0.00  0.00     0.038 C 
ATOM      4  C   LIG d   1      -4.985  93.427 119.357  0.00  0.00     0.028 C 
ATOM      5  C   LIG d   1      -6.026  92.773 118.456  0.00  0.00    -0.047 C 
ATOM      6  C   LIG d   1      -5.619  91.303 118.204  0.00  0.00     0.091 C 
ENDROOT
BRANCH   1   7
ATOM      7  O   LIG d   1      -3.671  89.869 117.812  0.00  0.00    -0.368 OA
BRANCH   7   8
ATOM      8  C   LIG d   1      -2.393  89.775 118.488  0.00  0.00     0.119 C 
BRANCH   8   9
ATOM      9  C   LIG d   1      -1.459  88.933 117.597  0.00  0.00     0.028 C 
ATOM     10  C   LIG d   1      -0.222  89.721 117.134  0.00  0.00     0.006 C 
ENDBRANCH   8   9
BRANCH   8  11
ATOM     11  C   LIG d   1      -2.513  88.996 119.801  0.00  0.00     0.028 C 
ATOM     12  C   LIG d   1      -2.438  87.474 119.600  0.00  0.00     0.006 C 
ENDBRANCH   8  11
ENDBRANCH   7   8
ENDBRANCH   1   7
BRANCH   6  13
ATOM     13  N   LIG d   1      -6.540  90.613 117.263  0.00  0.00    -0.311 N 
ATOM     14  C   LIG d   1      -6.592  90.882 115.959  0.00  0.00     0.210 C 
ATOM     15  C   LIG d   1      -7.626  90.070 115.172  0.00  0.00     0.109 C 
ATOM     16  O   LIG d   1      -5.858  91.693 115.374  0.00  0.00    -0.276 OA
ATOM     17  H   LIG d   1      -7.149  89.918 117.647  0.00  0.00     0.149 HD
ENDBRANCH   6  13
BRANCH   5  18
ATOM     18  N   LIG d   1      -7.336  92.904 119.120  0.00  0.00     0.381 N 
ATOM     19  H   LIG d   1      -7.244  93.462 119.945  0.00  0.00    -0.090 HD
ATOM     20  H   LIG d   1      -7.657  91.991 119.391  0.00  0.00    -0.090 HD
ATOM     21  H   LIG d   1      -7.993  93.323 118.499  0.00  0.00    -0.090 HD
ENDBRANCH   5  18
BRANCH   3  22
ATOM     22  C   LIG d   1      -2.740  94.247 119.195  0.00  0.00     0.382 C 
ATOM     23  O   LIG d   1      -3.119  95.429 119.383  0.00  0.00    -0.241 OA
ATOM     24  O   LIG d   1      -1.524  93.980 119.230  0.00  0.00    -0.241 OA
ENDBRANCH   3  22
TORSDOF 7
ENDMDL
MODEL 2
REMARK VINA RESULT:      -5.1      2.108      4.879
REMARK  7 active torsions:
REMARK  status: ('A' for Active; 'I' for Inactive)
REMARK    1  A    between atoms: C_2  and  C_3 
REMARK    2  A    between atoms: C_3  and  O_6 
REMARK    3  A    between atoms: C_3  and  C_4 
REMARK    4  A    between atoms: C_7  and  O_6 
REMARK    5  A    between atoms: C_9  and  C_10 
REMARK    6  A    between atoms: N_15  and  C_14 
REMARK    7  A    between atoms: N_20  and  C_19 
REMARK       I    between atoms: C_22  and  N_20 
ROOT
ATOM      1  C   LIG d   1      -5.396  91.178 116.973  0.00  0.00     0.161 C 
ATOM      2  C   LIG d   1      -4.323  90.271 116.985  0.00  0.00     0.016 C 
ATOM      3  C   LIG d   1      -3.245  90.353 117.897  0.00  0.00     0.038 C 
ATOM      4  C   LIG d   1      -3.244  91.265 118.963  0.00  0.00     0.028 C 
ATOM      5  C   LIG d   1      -4.059  92.523 118.685  0.00  0.00    -0.047 C 
ATOM      6  C   LIG d   1      -5.467  92.112 118.199  0.00  0.00     0.091 C 
ENDROOT
BRANCH   1   7
ATOM      7  O   LIG d   1      -6.637  90.464 116.814  0.00  0.00    -0.368 OA
BRANCH   7   8
ATOM      8  C   LIG d   1      -6.834  89.804 115.539  0.00  0.00     0.119 C 
BRANCH   8   9
ATOM      9  C   LIG d   1      -6.287  90.739 114.444  0.00  0.00     0.028 C 
ATOM     10  C   LIG d   1      -7.349  91.724 113.928  0.00  0.00     0.006 C 
ENDBRANCH   8   9
BRANCH   8  11
ATOM     11  C   LIG d   1      -8.324  89.637 115.223  0.00  0.00     0.028 C 
ATOM     12  C   LIG d   1      -9.031  88.665 116.180  0.00  0.00     0.006 C 
ENDBRANCH   8  11
ENDBRANCH   7   8
ENDBRANCH   1   7
BRANCH   6  13
ATOM     13  N   LIG d   1      -6.302  93.283 117.824  0.00  0.00    -0.311 N 
ATOM     14  C   LIG d   1      -7.027  93.977 118.700  0.00  0.00     0.210 C 
ATOM     15  C   LIG d   1      -7.831  95.135 118.101  0.00  0.00     0.109 C 
ATOM     16  O   LIG d   1      -7.057  93.762 119.921  0.00  0.00    -0.276 OA
ATOM     17  H   LIG d   1      -6.312  93.546 116.858  0.00  0.00     0.149 HD
ENDBRANCH   6  13
BRANCH   5  18
ATOM     18  N   LIG d   1      -4.085  93.320 119.926  0.00  0.00     0.381 N 
ATOM     19  H   LIG d   1      -3.852  94.272 119.723  0.00  0.00    -0.090 HD
ATOM     20  H   LIG d   1      -3.397  92.956 120.561  0.00  0.00    -0.090 HD
ATOM     21  H   LIG d   1      -4.989  93.274 120.342  0.00  0.00    -0.090 HD
ENDBRANCH   5  18
BRANCH   3  22
ATOM     22  C   LIG d   1      -2.134  89.542 117.722  0.00  0.00     0.382 C 
ATOM     23  O   LIG d   1      -2.217  88.310 117.942  0.00  0.00    -0.241 OA
ATOM     24  O   LIG d   1      -1.039  90.034 117.391  0.00  0.00    -0.241 OA
ENDBRANCH   3  22
TORSDOF 7
ENDMDL
MODEL 3
REMARK VINA RESULT:      -5.0      2.527      6.020
REMARK  7 active torsions:
REMARK  status: ('A' for Active; 'I' for Inactive)
REMARK    1  A    between atoms: C_2  and  C_3 
REMARK    2  A    between atoms: C_3  and  O_6 
REMARK    3  A    between atoms: C_3  and  C_4 
REMARK    4  A    between atoms: C_7  and  O_6 
REMARK    5  A    between atoms: C_9  and  C_10 
REMARK    6  A    between atoms: N_15  and  C_14 
REMARK    7  A    between atoms: N_20  and  C_19 
REMARK       I    between atoms: C_22  and  N_20 
ROOT
ATOM      1  C   LIG d   1      -5.334  92.051 118.187  0.00  0.00     0.161 C 
ATOM      2  C   LIG d   1      -6.178  91.981 117.067  0.00  0.00     0.016 C 
ATOM      3  C   LIG d   1      -5.999  91.055 116.014  0.00  0.00     0.038 C 
ATOM      4  C   LIG d   1      -5.046  90.028 116.084  0.00  0.00     0.028 C 
ATOM      5  C   LIG d   1      -3.847  90.374 116.960  0.00  0.00    -0.047 C 
ATOM      6  C   LIG d   1      -4.355  90.867 118.334  0.00  0.00     0.091 C 
ENDROOT
BRANCH   1   7
ATOM      7  O   LIG d   1      -6.122  92.202 119.385  0.00  0.00    -0.368 OA
BRANCH   7   8
ATOM      8  C   LIG d   1      -6.204  93.541 119.930  0.00  0.00     0.119 C 
BRANCH   8   9
ATOM      9  C   LIG d   1      -7.272  94.305 119.122  0.00  0.00     0.028 C 
ATOM     10  C   LIG d   1      -8.563  94.533 119.926  0.00  0.00     0.006 C 
ENDBRANCH   8   9
BRANCH   8  11
ATOM     11  C   LIG d   1      -4.900  94.314 119.709  0.00  0.00     0.028 C 
ATOM     12  C   LIG d   1      -5.107  95.836 119.679  0.00  0.00     0.006 C 
ENDBRANCH   8  11
ENDBRANCH   7   8
ENDBRANCH   1   7
BRANCH   6  13
ATOM     13  N   LIG d   1      -3.249  91.306 119.224  0.00  0.00    -0.311 N 
ATOM     14  C   LIG d   1      -2.336  92.209 118.869  0.00  0.00     0.210 C 
ATOM     15  C   LIG d   1      -1.270  92.503 119.929  0.00  0.00     0.109 C 
ATOM     16  O   LIG d   1      -2.328  92.818 117.788  0.00  0.00    -0.276 OA
ATOM     17  H   LIG d   1      -3.199  90.886 120.131  0.00  0.00     0.149 HD
ENDBRANCH   6  13
BRANCH   5  18
ATOM     18  N   LIG d   1      -3.002  89.169 117.055  0.00  0.00     0.381 N 
ATOM     19  H   LIG d   1      -2.603  89.106 117.971  0.00  0.00    -0.090 HD
ATOM     20  H   LIG d   1      -2.252  89.244 116.390  0.00  0.00    -0.090 HD
ATOM     21  H   LIG d   1      -3.545  88.356 116.864  0.00  0.00    -0.090 HD
ENDBRANCH   5  18
BRANCH   3  22
ATOM     22  C   LIG d   1      -6.754  91.175 114.857  0.00  0.00     0.382 C 
ATOM     23  O   LIG d   1      -6.568  92.147 114.086  0.00  0.00    -0.241 OA
ATOM     24  O   LIG d   1      -7.648  90.348 114.597  0.00  0.00    -0.241 OA
ENDBRANCH   3  22
TORSDOF 7
ENDMDL
MODEL 4
REMARK VINA RESULT:      -4.9      3.991      5.742
REMARK  7 active torsions:
REMARK  status: ('A' for Active; 'I' for Inactive)
REMARK    1  A    between atoms: C_2  and  C_3 
REMARK    2  A    between atoms: C_3  and  O_6 
REMARK    3  A    between atoms: C_3  and  C_4 
REMARK    4  A    between atoms: C_7  and  O_6 
REMARK    5  A    between atoms: C_9  and  C_10 
REMARK    6  A    between atoms: N_15  and  C_14 
REMARK    7  A    between atoms: N_20  and  C_19 
REMARK       I    between atoms: C_22  and  N_20 
ROOT
ATOM      1  C   LIG d   1       0.411  90.567 116.618  0.00  0.00     0.161 C 
ATOM      2  C   LIG d   1       1.810  90.623 116.498  0.00  0.00     0.016 C 
ATOM      3  C   LIG d   1       2.621  91.503 117.250  0.00  0.00     0.038 C 
ATOM      4  C   LIG d   1       2.099  92.286 118.291  0.00  0.00     0.028 C 
ATOM      5  C   LIG d   1       0.626  92.633 118.107  0.00  0.00    -0.047 C 
ATOM      6  C   LIG d   1      -0.165  91.334 117.827  0.00  0.00     0.091 C 
ENDROOT
BRANCH   1   7
ATOM      7  O   LIG d   1      -0.022  89.192 116.645  0.00  0.00    -0.368 OA
BRANCH   7   8
ATOM      8  C   LIG d   1       0.956  88.224 117.096  0.00  0.00     0.119 C 
BRANCH   8   9
ATOM      9  C   LIG d   1       0.836  86.986 116.187  0.00  0.00     0.028 C 
ATOM     10  C   LIG d   1       2.062  86.805 115.276  0.00  0.00     0.006 C 
ENDBRANCH   8   9
BRANCH   8  11
ATOM     11  C   LIG d   1       0.635  87.724 118.508  0.00  0.00     0.028 C 
ATOM     12  C   LIG d   1       1.467  88.426 119.593  0.00  0.00     0.006 C 
ENDBRANCH   8  11
ENDBRANCH   7   8
ENDBRANCH   1   7
BRANCH   6  13
ATOM     13  N   LIG d   1      -1.602  91.594 117.551  0.00  0.00    -0.311 N 
ATOM     14  C   LIG d   1      -2.546  91.564 118.491  0.00  0.00     0.210 C 
ATOM     15  C   LIG d   1      -3.966  91.840 117.989  0.00  0.00     0.109 C 
ATOM     16  O   LIG d   1      -2.337  91.366 119.697  0.00  0.00    -0.276 OA
ATOM     17  H   LIG d   1      -1.856  91.793 116.603  0.00  0.00     0.149 HD
ENDBRANCH   6  13
BRANCH   5  18
ATOM     18  N   LIG d   1       0.177  93.332 119.326  0.00  0.00     0.381 N 
ATOM     19  H   LIG d   1       0.937  93.851 119.718  0.00  0.00    -0.090 HD
ATOM     20  H   LIG d   1      -0.120  92.649 120.001  0.00  0.00    -0.090 HD
ATOM     21  H   LIG d   1      -0.578  93.945 119.109  0.00  0.00    -0.090 HD
ENDBRANCH   5  18
BRANCH   3  22
ATOM     22  C   LIG d   1       3.966  91.635 116.938  0.00  0.00     0.382 C 
ATOM     23  O   LIG d   1       4.584  92.679 117.256  0.00  0.00    -0.241 OA
ATOM     24  O   LIG d   1       4.557  90.742 116.302  0.00  0.00    -0.241 OA
ENDBRANCH   3  22
TORSDOF 7
ENDMDL
MODEL 5
REMARK VINA RESULT:      -4.9      5.401      8.324
REMARK  7 active torsions:
REMARK  status: ('A' for Active; 'I' for Inactive)
REMARK    1  A    between atoms: C_2  and  C_3 
REMARK    2  A    between atoms: C_3  and  O_6 
REMARK    3  A    between atoms: C_3  and  C_4 
REMARK    4  A    between atoms: C_7  and  O_6 
REMARK    5  A    between atoms: C_9  and  C_10 
REMARK    6  A    between atoms: N_15  and  C_14 
REMARK    7  A    between atoms: N_20  and  C_19 
REMARK       I    between atoms: C_22  and  N_20 
ROOT
ATOM      1  C   LIG d   1       2.365  89.399 116.538  0.00  0.00     0.161 C 
ATOM      2  C   LIG d   1       0.996  89.094 116.614  0.00  0.00     0.016 C 
ATOM      3  C   LIG d   1       0.080  89.820 117.409  0.00  0.00     0.038 C 
ATOM      4  C   LIG d   1       0.446  91.003 118.070  0.00  0.00     0.028 C 
ATOM      5  C   LIG d   1       1.928  91.063 118.427  0.00  0.00    -0.047 C 
ATOM      6  C   LIG d   1       2.762  90.753 117.164  0.00  0.00     0.091 C 
ENDROOT
BRANCH   1   7
ATOM      7  O   LIG d   1       2.805  89.333 115.167  0.00  0.00    -0.368 OA
BRANCH   7   8
ATOM      8  C   LIG d   1       3.746  88.278 114.849  0.00  0.00     0.119 C 
BRANCH   8   9
ATOM      9  C   LIG d   1       5.105  88.942 114.556  0.00  0.00     0.028 C 
ATOM     10  C   LIG d   1       5.765  88.391 113.281  0.00  0.00     0.006 C 
ENDBRANCH   8   9
BRANCH   8  11
ATOM     11  C   LIG d   1       3.359  87.557 113.555  0.00  0.00     0.028 C 
ATOM     12  C   LIG d   1       2.412  86.371 113.793  0.00  0.00     0.006 C 
ENDBRANCH   8  11
ENDBRANCH   7   8
ENDBRANCH   1   7
BRANCH   6  13
ATOM     13  N   LIG d   1       4.221  90.708 117.445  0.00  0.00    -0.311 N 
ATOM     14  C   LIG d   1       5.015  91.775 117.371  0.00  0.00     0.210 C 
ATOM     15  C   LIG d   1       6.491  91.505 117.680  0.00  0.00     0.109 C 
ATOM     16  O   LIG d   1       4.631  92.925 117.109  0.00  0.00    -0.276 OA
ATOM     17  H   LIG d   1       4.610  89.820 117.695  0.00  0.00     0.149 HD
ENDBRANCH   6  13
BRANCH   5  18
ATOM     18  N   LIG d   1       2.198  92.402 118.985  0.00  0.00     0.381 N 
ATOM     19  H   LIG d   1       2.963  92.353 119.627  0.00  0.00    -0.090 HD
ATOM     20  H   LIG d   1       1.385  92.716 119.485  0.00  0.00    -0.090 HD
ATOM     21  H   LIG d   1       2.412  93.040 118.250  0.00  0.00    -0.090 HD
ENDBRANCH   5  18
BRANCH   3  22
ATOM     22  C   LIG d   1      -1.210  89.342 117.582  0.00  0.00     0.382 C 
ATOM     23  O   LIG d   1      -2.137  90.132 117.883  0.00  0.00    -0.241 OA
ATOM     24  O   LIG d   1      -1.450  88.124 117.485  0.00  0.00    -0.241 OA
ENDBRANCH   3  22
TORSDOF 7
ENDMDL
MODEL 6
REMARK VINA RESULT:      -4.8      6.029      8.826
REMARK  7 active torsions:
REMARK  status: ('A' for Active; 'I' for Inactive)
REMARK    1  A    between atoms: C_2  and  C_3 
REMARK    2  A    between atoms: C_3  and  O_6 
REMARK    3  A    between atoms: C_3  and  C_4 
REMARK    4  A    between atoms: C_7  and  O_6 
REMARK    5  A    between atoms: C_9  and  C_10 
REMARK    6  A    between atoms: N_15  and  C_14 
REMARK    7  A    between atoms: N_20  and  C_19 
REMARK       I    between atoms: C_22  and  N_20 
ROOT
ATOM      1  C   LIG d   1       3.095  88.439 116.874  0.00  0.00     0.161 C 
ATOM      2  C   LIG d   1       4.001  88.983 115.949  0.00  0.00     0.016 C 
ATOM      3  C   LIG d   1       4.131  88.516 114.620  0.00  0.00     0.038 C 
ATOM      4  C   LIG d   1       3.251  87.568 114.078  0.00  0.00     0.028 C 
ATOM      5  C   LIG d   1       2.650  86.633 115.122  0.00  0.00    -0.047 C 
ATOM      6  C   LIG d   1       2.050  87.479 116.268  0.00  0.00     0.091 C 
ENDROOT
BRANCH   1   7
ATOM      7  O   LIG d   1       2.440  89.500 117.598  0.00  0.00    -0.368 OA
BRANCH   7   8
ATOM      8  C   LIG d   1       2.282  90.753 116.888  0.00  0.00     0.119 C 
BRANCH   8   9
ATOM      9  C   LIG d   1       2.699  91.884 117.847  0.00  0.00     0.028 C 
ATOM     10  C   LIG d   1       4.199  92.210 117.755  0.00  0.00     0.006 C 
ENDBRANCH   8   9
BRANCH   8  11
ATOM     11  C   LIG d   1       0.812  91.024 116.555  0.00  0.00     0.028 C 
ATOM     12  C   LIG d   1       0.261  92.272 117.263  0.00  0.00     0.006 C 
ENDBRANCH   8  11
ENDBRANCH   7   8
ENDBRANCH   1   7
BRANCH   6  13
ATOM     13  N   LIG d   1       1.516  86.640 117.373  0.00  0.00    -0.311 N 
ATOM     14  C   LIG d   1       0.331  86.848 117.944  0.00  0.00     0.210 C 
ATOM     15  C   LIG d   1      -0.019  85.880 119.079  0.00  0.00     0.109 C 
ATOM     16  O   LIG d   1      -0.477  87.723 117.598  0.00  0.00    -0.276 OA
ATOM     17  H   LIG d   1       2.093  85.888 117.695  0.00  0.00     0.149 HD
ENDBRANCH   6  13
BRANCH   5  18
ATOM     18  N   LIG d   1       1.650  85.788 114.442  0.00  0.00     0.381 N 
ATOM     19  H   LIG d   1       1.461  86.155 113.530  0.00  0.00    -0.090 HD
ATOM     20  H   LIG d   1       0.797  85.804 114.972  0.00  0.00    -0.090 HD
ATOM     21  H   LIG d   1       1.987  84.853 114.368  0.00  0.00    -0.090 HD
ENDBRANCH   5  18
BRANCH   3  22
ATOM     22  C   LIG d   1       5.176  88.971 113.831  0.00  0.00     0.382 C 
ATOM     23  O   LIG d   1       5.650  90.118 114.019  0.00  0.00    -0.241 OA
ATOM     24  O   LIG d   1       5.622  88.267 112.905  0.00  0.00    -0.241 OA
ENDBRANCH   3  22
TORSDOF 7
ENDMDL
MODEL 7
REMARK VINA RESULT:      -4.7      6.521      8.839
REMARK  7 active torsions:
REMARK  status: ('A' for Active; 'I' for Inactive)
REMARK    1  A    between atoms: C_2  and  C_3 
REMARK    2  A    between atoms: C_3  and  O_6 
REMARK    3  A    between atoms: C_3  and  C_4 
REMARK    4  A    between atoms: C_7  and  O_6 
REMARK    5  A    between atoms: C_9  and  C_10 
REMARK    6  A    between atoms: N_15  and  C_14 
REMARK    7  A    between atoms: N_20  and  C_19 
REMARK       I    between atoms: C_22  and  N_20 
ROOT
ATOM      1  C   LIG d   1       3.269  88.212 116.644  0.00  0.00     0.161 C 
ATOM      2  C   LIG d   1       3.618  89.137 117.642  0.00  0.00     0.016 C 
ATOM      3  C   LIG d   1       4.489  90.229 117.422  0.00  0.00     0.038 C 
ATOM      4  C   LIG d   1       4.954  90.559 116.140  0.00  0.00     0.028 C 
ATOM      5  C   LIG d   1       5.034  89.362 115.198  0.00  0.00    -0.047 C 
ATOM      6  C   LIG d   1       3.678  88.620 115.213  0.00  0.00     0.091 C 
ENDROOT
BRANCH   1   7
ATOM      7  O   LIG d   1       1.854  87.941 116.702  0.00  0.00    -0.368 OA
BRANCH   7   8
ATOM      8  C   LIG d   1       1.103  88.684 117.693  0.00  0.00     0.119 C 
BRANCH   8   9
ATOM      9  C   LIG d   1       0.316  87.665 118.538  0.00  0.00     0.028 C 
ATOM     10  C   LIG d   1      -1.205  87.880 118.452  0.00  0.00     0.006 C 
ENDBRANCH   8   9
BRANCH   8  11
ATOM     11  C   LIG d   1       0.042  89.572 117.037  0.00  0.00     0.028 C 
ATOM     12  C   LIG d   1       0.606  90.918 116.555  0.00  0.00     0.006 C 
ENDBRANCH   8  11
ENDBRANCH   7   8
ENDBRANCH   1   7
BRANCH   6  13
ATOM     13  N   LIG d   1       3.697  87.388 114.382  0.00  0.00    -0.311 N 
ATOM     14  C   LIG d   1       3.357  87.367 113.095  0.00  0.00     0.210 C 
ATOM     15  C   LIG d   1       3.427  85.988 112.430  0.00  0.00     0.109 C 
ATOM     16  O   LIG d   1       3.034  88.364 112.432  0.00  0.00    -0.276 OA
ATOM     17  H   LIG d   1       3.976  86.538 114.833  0.00  0.00     0.149 HD
ENDBRANCH   6  13
BRANCH   5  18
ATOM     18  N   LIG d   1       5.399  89.871 113.862  0.00  0.00     0.381 N 
ATOM     19  H   LIG d   1       6.203  90.462 113.933  0.00  0.00    -0.090 HD
ATOM     20  H   LIG d   1       4.637  90.416 113.502  0.00  0.00    -0.090 HD
ATOM     21  H   LIG d   1       5.592  89.109 113.249  0.00  0.00    -0.090 HD
ENDBRANCH   5  18
BRANCH   3  22
ATOM     22  C   LIG d   1       4.935  90.980 118.498  0.00  0.00     0.382 C 
ATOM     23  O   LIG d   1       4.224  91.909 118.952  0.00  0.00    -0.241 OA
ATOM     24  O   LIG d   1       6.059  90.770 118.992  0.00  0.00    -0.241 OA
ENDBRANCH   3  22
TORSDOF 7
ENDMDL
MODEL 8
REMARK VINA RESULT:      -4.4      6.880     10.244
REMARK  7 active torsions:
REMARK  status: ('A' for Active; 'I' for Inactive)
REMARK    1  A    between atoms: C_2  and  C_3 
REMARK    2  A    between atoms: C_3  and  O_6 
REMARK    3  A    between atoms: C_3  and  C_4 
REMARK    4  A    between atoms: C_7  and  O_6 
REMARK    5  A    between atoms: C_9  and  C_10 
REMARK    6  A    between atoms: N_15  and  C_14 
REMARK    7  A    between atoms: N_20  and  C_19 
REMARK       I    between atoms: C_22  and  N_20 
ROOT
ATOM      1  C   LIG d   1       3.655  89.374 116.325  0.00  0.00     0.161 C 
ATOM      2  C   LIG d   1       3.256  88.894 115.067  0.00  0.00     0.016 C 
ATOM      3  C   LIG d   1       3.964  87.898 114.355  0.00  0.00     0.038 C 
ATOM      4  C   LIG d   1       5.040  87.202 114.925  0.00  0.00     0.028 C 
ATOM      5  C   LIG d   1       5.784  88.003 115.988  0.00  0.00    -0.047 C 
ATOM      6  C   LIG d   1       4.763  88.549 117.012  0.00  0.00     0.091 C 
ENDROOT
BRANCH   1   7
ATOM      7  O   LIG d   1       2.507  89.489 117.190  0.00  0.00    -0.368 OA
BRANCH   7   8
ATOM      8  C   LIG d   1       1.289  88.862 116.719  0.00  0.00     0.119 C 
BRANCH   8   9
ATOM      9  C   LIG d   1       0.141  89.870 116.921  0.00  0.00     0.028 C 
ATOM     10  C   LIG d   1       0.593  91.324 116.708  0.00  0.00     0.006 C 
ENDBRANCH   8   9
BRANCH   8  11
ATOM     11  C   LIG d   1       0.919  87.648 117.577  0.00  0.00     0.028 C 
ATOM     12  C   LIG d   1       1.295  86.313 116.915  0.00  0.00     0.006 C 
ENDBRANCH   8  11
ENDBRANCH   7   8
ENDBRANCH   1   7
BRANCH   6  13
ATOM     13  N   LIG d   1       5.398  89.415 118.039  0.00  0.00    -0.311 N 
ATOM     14  C   LIG d   1       6.079  90.521 117.746  0.00  0.00     0.210 C 
ATOM     15  C   LIG d   1       6.669  91.256 118.954  0.00  0.00     0.109 C 
ATOM     16  O   LIG d   1       6.223  90.981 116.604  0.00  0.00    -0.276 OA
ATOM     17  H   LIG d   1       5.303  89.132 118.995  0.00  0.00     0.149 HD
ENDBRANCH   6  13
BRANCH   5  18
ATOM     18  N   LIG d   1       6.791  87.112 116.594  0.00  0.00     0.381 N 
ATOM     19  H   LIG d   1       7.610  87.637 116.830  0.00  0.00    -0.090 HD
ATOM     20  H   LIG d   1       7.050  86.410 115.923  0.00  0.00    -0.090 HD
ATOM     21  H   LIG d   1       6.418  86.681 117.410  0.00  0.00    -0.090 HD
ENDBRANCH   5  18
BRANCH   3  22
ATOM     22  C   LIG d   1       3.619  87.616 113.041  0.00  0.00     0.382 C 
ATOM     23  O   LIG d   1       4.156  86.652 112.445  0.00  0.00    -0.241 OA
ATOM     24  O   LIG d   1       2.811  88.342 112.431  0.00  0.00    -0.241 OA
ENDBRANCH   3  22
TORSDOF 7
ENDMDL
MODEL 9
REMARK VINA RESULT:      -4.4      1.236      1.848
REMARK  7 active torsions:
REMARK  status: ('A' for Active; 'I' for Inactive)
REMARK    1  A    between atoms: C_2  and  C_3 
REMARK    2  A    between atoms: C_3  and  O_6 
REMARK    3  A    between atoms: C_3  and  C_4 
REMARK    4  A    between atoms: C_7  and  O_6 
REMARK    5  A    between atoms: C_9  and  C_10 
REMARK    6  A    between atoms: N_15  and  C_14 
REMARK    7  A    between atoms: N_20  and  C_19 
REMARK       I    between atoms: C_22  and  N_20 
ROOT
ATOM      1  C   LIG d   1      -3.637  92.152 118.341  0.00  0.00     0.161 C 
ATOM      2  C   LIG d   1      -3.138  93.374 118.823  0.00  0.00     0.016 C 
ATOM      3  C   LIG d   1      -3.951  94.364 119.422  0.00  0.00     0.038 C 
ATOM      4  C   LIG d   1      -5.303  94.134 119.718  0.00  0.00     0.028 C 
ATOM      5  C   LIG d   1      -5.960  93.114 118.794  0.00  0.00    -0.047 C 
ATOM      6  C   LIG d   1      -5.089  91.838 118.755  0.00  0.00     0.091 C 
ENDROOT
BRANCH   1   7
ATOM      7  O   LIG d   1      -2.760  91.078 118.733  0.00  0.00    -0.368 OA
BRANCH   7   8
ATOM      8  C   LIG d   1      -2.071  90.392 117.659  0.00  0.00     0.119 C 
BRANCH   8   9
ATOM      9  C   LIG d   1      -2.397  88.892 117.783  0.00  0.00     0.028 C 
ATOM     10  C   LIG d   1      -1.154  88.004 117.605  0.00  0.00     0.006 C 
ENDBRANCH   8   9
BRANCH   8  11
ATOM     11  C   LIG d   1      -0.551  90.491 117.818  0.00  0.00     0.028 C 
ATOM     12  C   LIG d   1      -0.133  91.178 119.128  0.00  0.00     0.006 C 
ENDBRANCH   8  11
ENDBRANCH   7   8
ENDBRANCH   1   7
BRANCH   6  13
ATOM     13  N   LIG d   1      -5.616  90.820 117.809  0.00  0.00    -0.311 N 
ATOM     14  C   LIG d   1      -6.222  91.128 116.663  0.00  0.00     0.210 C 
ATOM     15  C   LIG d   1      -6.708  89.928 115.845  0.00  0.00     0.109 C 
ATOM     16  O   LIG d   1      -6.374  92.281 116.232  0.00  0.00    -0.276 OA
ATOM     17  H   LIG d   1      -5.508  89.858 118.066  0.00  0.00     0.149 HD
ENDBRANCH   6  13
BRANCH   5  18
ATOM     18  N   LIG d   1      -7.324  92.868 119.300  0.00  0.00     0.381 N 
ATOM     19  H   LIG d   1      -7.987  92.995 118.561  0.00  0.00    -0.090 HD
ATOM     20  H   LIG d   1      -7.527  93.535 120.023  0.00  0.00    -0.090 HD
ATOM     21  H   LIG d   1      -7.392  91.943 119.662  0.00  0.00    -0.090 HD
ENDBRANCH   5  18
BRANCH   3  22
ATOM     22  C   LIG d   1      -3.421  95.616 119.695  0.00  0.00     0.382 C 
ATOM     23  O   LIG d   1      -2.177  95.771 119.751  0.00  0.00    -0.241 OA
ATOM     24  O   LIG d   1      -4.171  96.582 119.930  0.00  0.00    -0.241 OA
ENDBRANCH   3  22
TORSDOF 7
ENDMDL
