MODEL 1
REMARK VINA RESULT:      -4.9      0.000      0.000
REMARK  7 active torsions:
REMARK  status: ('A' for Active; 'I' for Inactive)
REMARK    1  A    between atoms: C_2  and  C_3 
REMARK    2  A    between atoms: C_3  and  O_6 
REMARK    3  A    between atoms: C_3  and  C_4 
REMARK    4  A    between atoms: C_7  and  O_6 
REMARK    5  A    between atoms: C_9  and  C_10 
REMARK    6  A    between atoms: N_15  and  C_14 
REMARK    7  A    between atoms: N_20  and  C_19 
REMARK       I    between atoms: C_22  and  N_20 
ROOT
ATOM      1  C   LIG d   1      -2.981  91.592 117.879  0.00  0.00     0.161 C 
ATOM      2  C   LIG d   1      -4.218  92.259 117.913  0.00  0.00     0.016 C 
ATOM      3  C   LIG d   1      -5.395  91.746 117.321  0.00  0.00     0.038 C 
ATOM      4  C   LIG d   1      -5.450  90.453 116.781  0.00  0.00     0.028 C 
ATOM      5  C   LIG d   1      -4.103  89.949 116.275  0.00  0.00    -0.047 C 
ATOM      6  C   LIG d   1      -3.049  90.130 117.391  0.00  0.00     0.091 C 
ENDROOT
BRANCH   1   7
ATOM      7  O   LIG d   1      -2.353  91.660 119.174  0.00  0.00    -0.368 OA
BRANCH   7   8
ATOM      8  C   LIG d   1      -1.239  92.578 119.295  0.00  0.00     0.119 C 
BRANCH   8   9
ATOM      9  C   LIG d   1      -1.167  93.393 117.989  0.00  0.00     0.028 C 
ATOM     10  C   LIG d   1      -1.473  94.884 118.210  0.00  0.00     0.006 C 
ENDBRANCH   8   9
BRANCH   8  11
ATOM     11  C   LIG d   1       0.094  91.829 119.381  0.00  0.00     0.028 C 
ATOM     12  C   LIG d   1       0.983  92.054 118.148  0.00  0.00     0.006 C 
ENDBRANCH   8  11
ENDBRANCH   7   8
ENDBRANCH   1   7
BRANCH   6  13
ATOM     13  N   LIG d   1      -1.684  89.740 116.950  0.00  0.00    -0.311 N 
ATOM     14  C   LIG d   1      -0.974  88.773 117.530  0.00  0.00     0.210 C 
ATOM     15  C   LIG d   1       0.418  88.545 116.933  0.00  0.00     0.109 C 
ATOM     16  O   LIG d   1      -1.378  88.061 118.462  0.00  0.00    -0.276 OA
ATOM     17  H   LIG d   1      -1.292  90.245 116.180  0.00  0.00     0.149 HD
ENDBRANCH   6  13
BRANCH   5  18
ATOM     18  N   LIG d   1      -4.277  88.542 115.867  0.00  0.00     0.381 N 
ATOM     19  H   LIG d   1      -3.666  88.332 115.104  0.00  0.00    -0.090 HD
ATOM     20  H   LIG d   1      -5.224  88.408 115.559  0.00  0.00    -0.090 HD
ATOM     21  H   LIG d   1      -4.082  87.938 116.635  0.00  0.00    -0.090 HD
ENDBRANCH   5  18
BRANCH   3  22
ATOM     22  C   LIG d   1      -6.523  92.547 117.230  0.00  0.00     0.382 C 
ATOM     23  O   LIG d   1      -7.166  92.603 116.154  0.00  0.00    -0.241 OA
ATOM     24  O   LIG d   1      -6.880  93.248 118.196  0.00  0.00    -0.241 OA
ENDBRANCH   3  22
TORSDOF 7
ENDMDL
MODEL 2
REMARK VINA RESULT:      -4.8      2.489      4.102
REMARK  7 active torsions:
REMARK  status: ('A' for Active; 'I' for Inactive)
REMARK    1  A    between atoms: C_2  and  C_3 
REMARK    2  A    between atoms: C_3  and  O_6 
REMARK    3  A    between atoms: C_3  and  C_4 
REMARK    4  A    between atoms: C_7  and  O_6 
REMARK    5  A    between atoms: C_9  and  C_10 
REMARK    6  A    between atoms: N_15  and  C_14 
REMARK    7  A    between atoms: N_20  and  C_19 
REMARK       I    between atoms: C_22  and  N_20 
ROOT
ATOM      1  C   LIG d   1      -4.369  90.348 117.261  0.00  0.00     0.161 C 
ATOM      2  C   LIG d   1      -5.350  89.693 116.498  0.00  0.00     0.016 C 
ATOM      3  C   LIG d   1      -6.603  90.266 116.184  0.00  0.00     0.038 C 
ATOM      4  C   LIG d   1      -6.904  91.603 116.487  0.00  0.00     0.028 C 
ATOM      5  C   LIG d   1      -6.142  92.136 117.696  0.00  0.00    -0.047 C 
ATOM      6  C   LIG d   1      -4.636  91.848 117.506  0.00  0.00     0.091 C 
ENDROOT
BRANCH   1   7
ATOM      7  O   LIG d   1      -3.074  90.161 116.657  0.00  0.00    -0.368 OA
BRANCH   7   8
ATOM      8  C   LIG d   1      -2.202  89.200 117.302  0.00  0.00     0.119 C 
BRANCH   8   9
ATOM      9  C   LIG d   1      -2.346  89.393 118.824  0.00  0.00     0.028 C 
ATOM     10  C   LIG d   1      -1.616  88.302 119.625  0.00  0.00     0.006 C 
ENDBRANCH   8   9
BRANCH   8  11
ATOM     11  C   LIG d   1      -0.730  89.489 116.993  0.00  0.00     0.028 C 
ATOM     12  C   LIG d   1      -0.248  90.823 117.584  0.00  0.00     0.006 C 
ENDBRANCH   8  11
ENDBRANCH   7   8
ENDBRANCH   1   7
BRANCH   6  13
ATOM     13  N   LIG d   1      -3.827  92.262 118.683  0.00  0.00    -0.311 N 
ATOM     14  C   LIG d   1      -2.773  93.072 118.599  0.00  0.00     0.210 C 
ATOM     15  C   LIG d   1      -2.068  93.355 119.930  0.00  0.00     0.109 C 
ATOM     16  O   LIG d   1      -2.374  93.608 117.554  0.00  0.00    -0.276 OA
ATOM     17  H   LIG d   1      -4.100  91.898 119.575  0.00  0.00     0.149 HD
ENDBRANCH   6  13
BRANCH   5  18
ATOM     18  N   LIG d   1      -6.446  93.574 117.815  0.00  0.00     0.381 N 
ATOM     19  H   LIG d   1      -5.614  94.077 118.053  0.00  0.00    -0.090 HD
ATOM     20  H   LIG d   1      -7.115  93.705 118.553  0.00  0.00    -0.090 HD
ATOM     21  H   LIG d   1      -6.816  93.917 116.956  0.00  0.00    -0.090 HD
ENDBRANCH   5  18
BRANCH   3  22
ATOM     22  C   LIG d   1      -7.587  89.487 115.594  0.00  0.00     0.382 C 
ATOM     23  O   LIG d   1      -7.927  89.700 114.405  0.00  0.00    -0.241 OA
ATOM     24  O   LIG d   1      -8.171  88.604 116.250  0.00  0.00    -0.241 OA
ENDBRANCH   3  22
TORSDOF 7
ENDMDL
MODEL 3
REMARK VINA RESULT:      -4.6      5.803      8.541
REMARK  7 active torsions:
REMARK  status: ('A' for Active; 'I' for Inactive)
REMARK    1  A    between atoms: C_2  and  C_3 
REMARK    2  A    between atoms: C_3  and  O_6 
REMARK    3  A    between atoms: C_3  and  C_4 
REMARK    4  A    between atoms: C_7  and  O_6 
REMARK    5  A    between atoms: C_9  and  C_10 
REMARK    6  A    between atoms: N_15  and  C_14 
REMARK    7  A    between atoms: N_20  and  C_19 
REMARK       I    between atoms: C_22  and  N_20 
ROOT
ATOM      1  C   LIG d   1       3.892  90.119 116.358  0.00  0.00     0.161 C 
ATOM      2  C   LIG d   1       2.761  90.894 116.664  0.00  0.00     0.016 C 
ATOM      3  C   LIG d   1       2.719  91.823 117.729  0.00  0.00     0.038 C 
ATOM      4  C   LIG d   1       3.864  92.154 118.470  0.00  0.00     0.028 C 
ATOM      5  C   LIG d   1       4.895  91.032 118.524  0.00  0.00    -0.047 C 
ATOM      6  C   LIG d   1       5.185  90.547 117.085  0.00  0.00     0.091 C 
ENDROOT
BRANCH   1   7
ATOM      7  O   LIG d   1       4.102  90.104 114.932  0.00  0.00    -0.368 OA
BRANCH   7   8
ATOM      8  C   LIG d   1       3.813  88.853 114.259  0.00  0.00     0.119 C 
BRANCH   8   9
ATOM      9  C   LIG d   1       3.471  87.813 115.343  0.00  0.00     0.028 C 
ATOM     10  C   LIG d   1       4.384  86.577 115.279  0.00  0.00     0.006 C 
ENDBRANCH   8   9
BRANCH   8  11
ATOM     11  C   LIG d   1       5.054  88.305 113.547  0.00  0.00     0.028 C 
ATOM     12  C   LIG d   1       6.175  89.347 113.415  0.00  0.00     0.006 C 
ENDBRANCH   8  11
ENDBRANCH   7   8
ENDBRANCH   1   7
BRANCH   6  13
ATOM     13  N   LIG d   1       6.121  89.393 117.053  0.00  0.00    -0.311 N 
ATOM     14  C   LIG d   1       7.441  89.523 116.936  0.00  0.00     0.210 C 
ATOM     15  C   LIG d   1       8.221  88.205 116.904  0.00  0.00     0.109 C 
ATOM     16  O   LIG d   1       8.044  90.606 116.888  0.00  0.00    -0.276 OA
ATOM     17  H   LIG d   1       5.720  88.478 117.118  0.00  0.00     0.149 HD
ENDBRANCH   6  13
BRANCH   5  18
ATOM     18  N   LIG d   1       6.091  91.558 119.208  0.00  0.00     0.381 N 
ATOM     19  H   LIG d   1       6.495  92.296 118.665  0.00  0.00    -0.090 HD
ATOM     20  H   LIG d   1       6.769  90.821 119.291  0.00  0.00    -0.090 HD
ATOM     21  H   LIG d   1       5.846  91.897 120.112  0.00  0.00    -0.090 HD
ENDBRANCH   5  18
BRANCH   3  22
ATOM     22  C   LIG d   1       1.513  92.404 118.087  0.00  0.00     0.382 C 
ATOM     23  O   LIG d   1       0.443  91.995 117.575  0.00  0.00    -0.241 OA
ATOM     24  O   LIG d   1       1.484  93.362 118.882  0.00  0.00    -0.241 OA
ENDBRANCH   3  22
TORSDOF 7
ENDMDL
MODEL 4
REMARK VINA RESULT:      -4.5      4.593      7.528
REMARK  7 active torsions:
REMARK  status: ('A' for Active; 'I' for Inactive)
REMARK    1  A    between atoms: C_2  and  C_3 
REMARK    2  A    between atoms: C_3  and  O_6 
REMARK    3  A    between atoms: C_3  and  C_4 
REMARK    4  A    between atoms: C_7  and  O_6 
REMARK    5  A    between atoms: C_9  and  C_10 
REMARK    6  A    between atoms: N_15  and  C_14 
REMARK    7  A    between atoms: N_20  and  C_19 
REMARK       I    between atoms: C_22  and  N_20 
ROOT
ATOM      1  C   LIG d   1       2.124  88.063 115.962  0.00  0.00     0.161 C 
ATOM      2  C   LIG d   1       0.848  87.934 116.535  0.00  0.00     0.016 C 
ATOM      3  C   LIG d   1       0.235  88.947 117.308  0.00  0.00     0.038 C 
ATOM      4  C   LIG d   1       0.798  90.226 117.434  0.00  0.00     0.028 C 
ATOM      5  C   LIG d   1       2.317  90.235 117.294  0.00  0.00    -0.047 C 
ATOM      6  C   LIG d   1       2.706  89.492 115.996  0.00  0.00     0.091 C 
ENDROOT
BRANCH   1   7
ATOM      7  O   LIG d   1       2.106  87.561 114.611  0.00  0.00    -0.368 OA
BRANCH   7   8
ATOM      8  C   LIG d   1       2.490  86.174 114.442  0.00  0.00     0.119 C 
BRANCH   8   9
ATOM      9  C   LIG d   1       3.915  86.157 113.856  0.00  0.00     0.028 C 
ATOM     10  C   LIG d   1       3.971  86.730 112.430  0.00  0.00     0.006 C 
ENDBRANCH   8   9
BRANCH   8  11
ATOM     11  C   LIG d   1       1.614  85.478 113.397  0.00  0.00     0.028 C 
ATOM     12  C   LIG d   1       0.115  85.753 113.597  0.00  0.00     0.006 C 
ENDBRANCH   8  11
ENDBRANCH   7   8
ENDBRANCH   1   7
BRANCH   6  13
ATOM     13  N   LIG d   1       4.178  89.382 115.826  0.00  0.00    -0.311 N 
ATOM     14  C   LIG d   1       4.804  89.635 114.678  0.00  0.00     0.210 C 
ATOM     15  C   LIG d   1       6.324  89.441 114.713  0.00  0.00     0.109 C 
ATOM     16  O   LIG d   1       4.249  90.032 113.642  0.00  0.00    -0.276 OA
ATOM     17  H   LIG d   1       4.710  89.096 116.624  0.00  0.00     0.149 HD
ENDBRANCH   6  13
BRANCH   5  18
ATOM     18  N   LIG d   1       2.757  91.643 117.308  0.00  0.00     0.381 N 
ATOM     19  H   LIG d   1       3.310  91.833 116.497  0.00  0.00    -0.090 HD
ATOM     20  H   LIG d   1       3.326  91.798 118.122  0.00  0.00    -0.090 HD
ATOM     21  H   LIG d   1       1.965  92.248 117.328  0.00  0.00    -0.090 HD
ENDBRANCH   5  18
BRANCH   3  22
ATOM     22  C   LIG d   1      -0.936  88.672 117.997  0.00  0.00     0.382 C 
ATOM     23  O   LIG d   1      -1.891  88.109 117.410  0.00  0.00    -0.241 OA
ATOM     24  O   LIG d   1      -1.066  89.020 119.186  0.00  0.00    -0.241 OA
ENDBRANCH   3  22
TORSDOF 7
ENDMDL
MODEL 5
REMARK VINA RESULT:      -4.4      2.403      4.738
REMARK  7 active torsions:
REMARK  status: ('A' for Active; 'I' for Inactive)
REMARK    1  A    between atoms: C_2  and  C_3 
REMARK    2  A    between atoms: C_3  and  O_6 
REMARK    3  A    between atoms: C_3  and  C_4 
REMARK    4  A    between atoms: C_7  and  O_6 
REMARK    5  A    between atoms: C_9  and  C_10 
REMARK    6  A    between atoms: N_15  and  C_14 
REMARK    7  A    between atoms: N_20  and  C_19 
REMARK       I    between atoms: C_22  and  N_20 
ROOT
ATOM      1  C   LIG d   1      -3.100  92.645 119.636  0.00  0.00     0.161 C 
ATOM      2  C   LIG d   1      -3.148  94.049 119.625  0.00  0.00     0.016 C 
ATOM      3  C   LIG d   1      -2.317  94.849 118.808  0.00  0.00     0.038 C 
ATOM      4  C   LIG d   1      -1.481  94.292 117.829  0.00  0.00     0.028 C 
ATOM      5  C   LIG d   1      -1.031  92.872 118.154  0.00  0.00    -0.047 C 
ATOM      6  C   LIG d   1      -2.273  92.017 118.495  0.00  0.00     0.091 C 
ENDROOT
BRANCH   1   7
ATOM      7  O   LIG d   1      -4.438  92.110 119.638  0.00  0.00    -0.368 OA
BRANCH   7   8
ATOM      8  C   LIG d   1      -5.338  92.642 118.635  0.00  0.00     0.119 C 
BRANCH   8   9
ATOM      9  C   LIG d   1      -6.583  93.178 119.367  0.00  0.00     0.028 C 
ATOM     10  C   LIG d   1      -6.793  94.685 119.141  0.00  0.00     0.006 C 
ENDBRANCH   8   9
BRANCH   8  11
ATOM     11  C   LIG d   1      -5.857  91.537 117.710  0.00  0.00     0.028 C 
ATOM     12  C   LIG d   1      -6.527  92.088 116.441  0.00  0.00     0.006 C 
ENDBRANCH   8  11
ENDBRANCH   7   8
ENDBRANCH   1   7
BRANCH   6  13
ATOM     13  N   LIG d   1      -1.914  90.635 118.907  0.00  0.00    -0.311 N 
ATOM     14  C   LIG d   1      -2.326  89.546 118.259  0.00  0.00     0.210 C 
ATOM     15  C   LIG d   1      -1.858  88.219 118.862  0.00  0.00     0.109 C 
ATOM     16  O   LIG d   1      -3.008  89.556 117.223  0.00  0.00    -0.276 OA
ATOM     17  H   LIG d   1      -1.337  90.536 119.719  0.00  0.00     0.149 HD
ENDBRANCH   6  13
BRANCH   5  18
ATOM     18  N   LIG d   1      -0.281  92.364 116.989  0.00  0.00     0.381 N 
ATOM     19  H   LIG d   1      -0.630  91.463 116.729  0.00  0.00    -0.090 HD
ATOM     20  H   LIG d   1       0.686  92.267 117.242  0.00  0.00    -0.090 HD
ATOM     21  H   LIG d   1      -0.371  92.997 116.224  0.00  0.00    -0.090 HD
ENDBRANCH   5  18
BRANCH   3  22
ATOM     22  C   LIG d   1      -2.288  96.223 118.994  0.00  0.00     0.382 C 
ATOM     23  O   LIG d   1      -1.194  96.836 118.972  0.00  0.00    -0.241 OA
ATOM     24  O   LIG d   1      -3.338  96.851 119.228  0.00  0.00    -0.241 OA
ENDBRANCH   3  22
TORSDOF 7
ENDMDL
MODEL 6
REMARK VINA RESULT:      -4.3      6.583      8.853
REMARK  7 active torsions:
REMARK  status: ('A' for Active; 'I' for Inactive)
REMARK    1  A    between atoms: C_2  and  C_3 
REMARK    2  A    between atoms: C_3  and  O_6 
REMARK    3  A    between atoms: C_3  and  C_4 
REMARK    4  A    between atoms: C_7  and  O_6 
REMARK    5  A    between atoms: C_9  and  C_10 
REMARK    6  A    between atoms: N_15  and  C_14 
REMARK    7  A    between atoms: N_20  and  C_19 
REMARK       I    between atoms: C_22  and  N_20 
ROOT
ATOM      1  C   LIG d   1       3.256  89.260 116.587  0.00  0.00     0.161 C 
ATOM      2  C   LIG d   1       3.022  88.746 115.301  0.00  0.00     0.016 C 
ATOM      3  C   LIG d   1       4.039  88.574 114.335  0.00  0.00     0.038 C 
ATOM      4  C   LIG d   1       5.395  88.766 114.643  0.00  0.00     0.028 C 
ATOM      5  C   LIG d   1       5.624  89.766 115.770  0.00  0.00    -0.047 C 
ATOM      6  C   LIG d   1       4.745  89.370 116.979  0.00  0.00     0.091 C 
ENDROOT
BRANCH   1   7
ATOM      7  O   LIG d   1       2.538  88.481 117.564  0.00  0.00    -0.368 OA
BRANCH   7   8
ATOM      8  C   LIG d   1       2.246  87.110 117.195  0.00  0.00     0.119 C 
BRANCH   8   9
ATOM      9  C   LIG d   1       0.841  86.776 117.733  0.00  0.00     0.028 C 
ATOM     10  C   LIG d   1      -0.221  86.747 116.621  0.00  0.00     0.006 C 
ENDBRANCH   8   9
BRANCH   8  11
ATOM     11  C   LIG d   1       3.192  86.131 117.897  0.00  0.00     0.028 C 
ATOM     12  C   LIG d   1       4.293  85.597 116.967  0.00  0.00     0.006 C 
ENDBRANCH   8  11
ENDBRANCH   7   8
ENDBRANCH   1   7
BRANCH   6  13
ATOM     13  N   LIG d   1       4.845  90.345 118.096  0.00  0.00    -0.311 N 
ATOM     14  C   LIG d   1       4.521  91.632 117.978  0.00  0.00     0.210 C 
ATOM     15  C   LIG d   1       4.718  92.467 119.247  0.00  0.00     0.109 C 
ATOM     16  O   LIG d   1       4.060  92.154 116.952  0.00  0.00    -0.276 OA
ATOM     17  H   LIG d   1       5.181  90.000 118.974  0.00  0.00     0.149 HD
ENDBRANCH   6  13
BRANCH   5  18
ATOM     18  N   LIG d   1       7.066  89.766 116.080  0.00  0.00     0.381 N 
ATOM     19  H   LIG d   1       7.217  89.379 116.990  0.00  0.00    -0.090 HD
ATOM     20  H   LIG d   1       7.398  90.714 116.082  0.00  0.00    -0.090 HD
ATOM     21  H   LIG d   1       7.561  89.234 115.399  0.00  0.00    -0.090 HD
ENDBRANCH   5  18
BRANCH   3  22
ATOM     22  C   LIG d   1       3.700  88.245 113.031  0.00  0.00     0.382 C 
ATOM     23  O   LIG d   1       2.748  88.832 112.464  0.00  0.00    -0.241 OA
ATOM     24  O   LIG d   1       4.307  87.338 112.430  0.00  0.00    -0.241 OA
ENDBRANCH   3  22
TORSDOF 7
ENDMDL
MODEL 7
REMARK VINA RESULT:      -4.1      2.273      4.232
REMARK  7 active torsions:
REMARK  status: ('A' for Active; 'I' for Inactive)
REMARK    1  A    between atoms: C_2  and  C_3 
REMARK    2  A    between atoms: C_3  and  O_6 
REMARK    3  A    between atoms: C_3  and  C_4 
REMARK    4  A    between atoms: C_7  and  O_6 
REMARK    5  A    between atoms: C_9  and  C_10 
REMARK    6  A    between atoms: N_15  and  C_14 
REMARK    7  A    between atoms: N_20  and  C_19 
REMARK       I    between atoms: C_22  and  N_20 
ROOT
ATOM      1  C   LIG d   1      -1.957  89.872 117.635  0.00  0.00     0.161 C 
ATOM      2  C   LIG d   1      -3.169  89.511 117.022  0.00  0.00     0.016 C 
ATOM      3  C   LIG d   1      -4.273  90.386 116.906  0.00  0.00     0.038 C 
ATOM      4  C   LIG d   1      -4.188  91.739 117.264  0.00  0.00     0.028 C 
ATOM      5  C   LIG d   1      -3.152  92.015 118.349  0.00  0.00    -0.047 C 
ATOM      6  C   LIG d   1      -1.806  91.379 117.931  0.00  0.00     0.091 C 
ENDROOT
BRANCH   1   7
ATOM      7  O   LIG d   1      -0.849  89.405 116.840  0.00  0.00    -0.368 OA
BRANCH   7   8
ATOM      8  C   LIG d   1       0.023  88.435 117.471  0.00  0.00     0.119 C 
BRANCH   8   9
ATOM      9  C   LIG d   1       0.117  87.217 116.532  0.00  0.00     0.028 C 
ATOM     10  C   LIG d   1      -1.127  86.316 116.614  0.00  0.00     0.006 C 
ENDBRANCH   8   9
BRANCH   8  11
ATOM     11  C   LIG d   1      -0.586  87.900 118.771  0.00  0.00     0.028 C 
ATOM     12  C   LIG d   1       0.422  87.862 119.930  0.00  0.00     0.006 C 
ENDBRANCH   8  11
ENDBRANCH   7   8
ENDBRANCH   1   7
BRANCH   6  13
ATOM     13  N   LIG d   1      -0.760  91.530 118.975  0.00  0.00    -0.311 N 
ATOM     14  C   LIG d   1       0.494  91.891 118.710  0.00  0.00     0.210 C 
ATOM     15  C   LIG d   1       1.418  91.967 119.930  0.00  0.00     0.109 C 
ATOM     16  O   LIG d   1       0.922  92.186 117.584  0.00  0.00    -0.276 OA
ATOM     17  H   LIG d   1      -1.028  91.340 119.921  0.00  0.00     0.149 HD
ENDBRANCH   6  13
BRANCH   5  18
ATOM     18  N   LIG d   1      -3.070  93.477 118.525  0.00  0.00     0.381 N 
ATOM     19  H   LIG d   1      -3.690  93.931 117.885  0.00  0.00    -0.090 HD
ATOM     20  H   LIG d   1      -2.133  93.777 118.323  0.00  0.00    -0.090 HD
ATOM     21  H   LIG d   1      -3.310  93.722 119.461  0.00  0.00    -0.090 HD
ENDBRANCH   5  18
BRANCH   3  22
ATOM     22  C   LIG d   1      -5.494  89.897 116.465  0.00  0.00     0.382 C 
ATOM     23  O   LIG d   1      -5.551  88.785 115.886  0.00  0.00    -0.241 OA
ATOM     24  O   LIG d   1      -6.531  90.573 116.599  0.00  0.00    -0.241 OA
ENDBRANCH   3  22
TORSDOF 7
ENDMDL
MODEL 8
REMARK VINA RESULT:      -4.1      6.566      9.627
REMARK  7 active torsions:
REMARK  status: ('A' for Active; 'I' for Inactive)
REMARK    1  A    between atoms: C_2  and  C_3 
REMARK    2  A    between atoms: C_3  and  O_6 
REMARK    3  A    between atoms: C_3  and  C_4 
REMARK    4  A    between atoms: C_7  and  O_6 
REMARK    5  A    between atoms: C_9  and  C_10 
REMARK    6  A    between atoms: N_15  and  C_14 
REMARK    7  A    between atoms: N_20  and  C_19 
REMARK       I    between atoms: C_22  and  N_20 
ROOT
ATOM      1  C   LIG d   1       4.859  88.083 116.559  0.00  0.00     0.161 C 
ATOM      2  C   LIG d   1       5.857  88.708 117.326  0.00  0.00     0.016 C 
ATOM      3  C   LIG d   1       6.877  89.513 116.769  0.00  0.00     0.038 C 
ATOM      4  C   LIG d   1       6.879  89.873 115.413  0.00  0.00     0.028 C 
ATOM      5  C   LIG d   1       6.183  88.857 114.515  0.00  0.00    -0.047 C 
ATOM      6  C   LIG d   1       4.781  88.555 115.092  0.00  0.00     0.091 C 
ENDROOT
BRANCH   1   7
ATOM      7  O   LIG d   1       3.579  88.236 117.204  0.00  0.00    -0.368 OA
BRANCH   7   8
ATOM      8  C   LIG d   1       2.805  89.397 116.815  0.00  0.00     0.119 C 
BRANCH   8   9
ATOM      9  C   LIG d   1       2.933  90.438 117.944  0.00  0.00     0.028 C 
ATOM     10  C   LIG d   1       3.596  91.742 117.468  0.00  0.00     0.006 C 
ENDBRANCH   8   9
BRANCH   8  11
ATOM     11  C   LIG d   1       1.311  89.069 116.733  0.00  0.00     0.028 C 
ATOM     12  C   LIG d   1       1.042  87.579 116.469  0.00  0.00     0.006 C 
ENDBRANCH   8  11
ENDBRANCH   7   8
ENDBRANCH   1   7
BRANCH   6  13
ATOM     13  N   LIG d   1       4.064  87.506 114.320  0.00  0.00    -0.311 N 
ATOM     14  C   LIG d   1       3.233  87.775 113.315  0.00  0.00     0.210 C 
ATOM     15  C   LIG d   1       2.583  86.549 112.667  0.00  0.00     0.109 C 
ATOM     16  O   LIG d   1       2.996  88.911 112.878  0.00  0.00    -0.276 OA
ATOM     17  H   LIG d   1       4.222  86.554 114.588  0.00  0.00     0.149 HD
ENDBRANCH   6  13
BRANCH   5  18
ATOM     18  N   LIG d   1       6.138  89.422 113.153  0.00  0.00     0.381 N 
ATOM     19  H   LIG d   1       6.231  90.417 113.196  0.00  0.00    -0.090 HD
ATOM     20  H   LIG d   1       5.248  89.206 112.740  0.00  0.00    -0.090 HD
ATOM     21  H   LIG d   1       6.871  89.037 112.600  0.00  0.00    -0.090 HD
ENDBRANCH   5  18
BRANCH   3  22
ATOM     22  C   LIG d   1       7.931  89.935 117.564  0.00  0.00     0.382 C 
ATOM     23  O   LIG d   1       8.216  89.306 118.612  0.00  0.00    -0.241 OA
ATOM     24  O   LIG d   1       8.573  90.961 117.271  0.00  0.00    -0.241 OA
ENDBRANCH   3  22
TORSDOF 7
ENDMDL
MODEL 9
REMARK VINA RESULT:      -4.1      4.760      7.228
REMARK  7 active torsions:
REMARK  status: ('A' for Active; 'I' for Inactive)
REMARK    1  A    between atoms: C_2  and  C_3 
REMARK    2  A    between atoms: C_3  and  O_6 
REMARK    3  A    between atoms: C_3  and  C_4 
REMARK    4  A    between atoms: C_7  and  O_6 
REMARK    5  A    between atoms: C_9  and  C_10 
REMARK    6  A    between atoms: N_15  and  C_14 
REMARK    7  A    between atoms: N_20  and  C_19 
REMARK       I    between atoms: C_22  and  N_20 
ROOT
ATOM      1  C   LIG d   1       2.251  88.602 116.322  0.00  0.00     0.161 C 
ATOM      2  C   LIG d   1       0.965  88.035 116.328  0.00  0.00     0.016 C 
ATOM      3  C   LIG d   1      -0.010  88.329 117.309  0.00  0.00     0.038 C 
ATOM      4  C   LIG d   1       0.184  89.332 118.271  0.00  0.00     0.028 C 
ATOM      5  C   LIG d   1       1.651  89.569 118.610  0.00  0.00    -0.047 C 
ATOM      6  C   LIG d   1       2.442  89.781 117.299  0.00  0.00     0.091 C 
ENDROOT
BRANCH   1   7
ATOM      7  O   LIG d   1       2.603  88.999 114.983  0.00  0.00    -0.368 OA
BRANCH   7   8
ATOM      8  C   LIG d   1       3.269  87.997 114.175  0.00  0.00     0.119 C 
BRANCH   8   9
ATOM      9  C   LIG d   1       4.207  87.203 115.104  0.00  0.00     0.028 C 
ATOM     10  C   LIG d   1       4.185  85.693 114.809  0.00  0.00     0.006 C 
ENDBRANCH   8   9
BRANCH   8  11
ATOM     11  C   LIG d   1       4.184  88.641 113.130  0.00  0.00     0.028 C 
ATOM     12  C   LIG d   1       5.282  89.515 113.756  0.00  0.00     0.006 C 
ENDBRANCH   8  11
ENDBRANCH   7   8
ENDBRANCH   1   7
BRANCH   6  13
ATOM     13  N   LIG d   1       3.901  89.937 117.536  0.00  0.00    -0.311 N 
ATOM     14  C   LIG d   1       4.569  91.061 117.281  0.00  0.00     0.210 C 
ATOM     15  C   LIG d   1       6.071  91.002 117.578  0.00  0.00     0.109 C 
ATOM     16  O   LIG d   1       4.055  92.111 116.868  0.00  0.00    -0.276 OA
ATOM     17  H   LIG d   1       4.391  89.144 117.900  0.00  0.00     0.149 HD
ENDBRANCH   6  13
BRANCH   5  18
ATOM     18  N   LIG d   1       1.716  90.730 119.519  0.00  0.00     0.381 N 
ATOM     19  H   LIG d   1       1.542  91.571 119.006  0.00  0.00    -0.090 HD
ATOM     20  H   LIG d   1       2.640  90.785 119.911  0.00  0.00    -0.090 HD
ATOM     21  H   LIG d   1       1.044  90.631 120.247  0.00  0.00    -0.090 HD
ENDBRANCH   5  18
BRANCH   3  22
ATOM     22  C   LIG d   1      -1.181  87.587 117.358  0.00  0.00     0.382 C 
ATOM     23  O   LIG d   1      -1.268  86.511 116.719  0.00  0.00    -0.241 OA
ATOM     24  O   LIG d   1      -2.166  88.003 117.996  0.00  0.00    -0.241 OA
ENDBRANCH   3  22
TORSDOF 7
ENDMDL
