MODEL 1
REMARK VINA RESULT:      -5.6      0.000      0.000
REMARK  7 active torsions:
REMARK  status: ('A' for Active; 'I' for Inactive)
REMARK    1  A    between atoms: C_2  and  C_3 
REMARK    2  A    between atoms: C_3  and  O_6 
REMARK    3  A    between atoms: C_3  and  C_4 
REMARK    4  A    between atoms: C_7  and  O_6 
REMARK    5  A    between atoms: C_9  and  C_10 
REMARK    6  A    between atoms: N_15  and  C_14 
REMARK    7  A    between atoms: N_20  and  C_19 
REMARK       I    between atoms: C_22  and  N_20 
ROOT
ATOM      1  C   LIG d   1      -6.141  92.841 117.999  0.00  0.00     0.161 C 
ATOM      2  C   LIG d   1      -7.001  92.081 117.190  0.00  0.00     0.016 C 
ATOM      3  C   LIG d   1      -6.552  91.061 116.319  0.00  0.00     0.038 C 
ATOM      4  C   LIG d   1      -5.218  90.628 116.311  0.00  0.00     0.028 C 
ATOM      5  C   LIG d   1      -4.228  91.705 116.741  0.00  0.00    -0.047 C 
ATOM      6  C   LIG d   1      -4.696  92.308 118.086  0.00  0.00     0.091 C 
ENDROOT
BRANCH   1   7
ATOM      7  O   LIG d   1      -6.705  92.978 119.318  0.00  0.00    -0.368 OA
BRANCH   7   8
ATOM      8  C   LIG d   1      -7.155  94.306 119.684  0.00  0.00     0.119 C 
BRANCH   8   9
ATOM      9  C   LIG d   1      -8.677  94.360 119.448  0.00  0.00     0.028 C 
ATOM     10  C   LIG d   1      -9.041  95.059 118.127  0.00  0.00     0.006 C 
ENDBRANCH   8   9
BRANCH   8  11
ATOM     11  C   LIG d   1      -6.562  95.371 118.757  0.00  0.00     0.028 C 
ATOM     12  C   LIG d   1      -5.718  96.413 119.509  0.00  0.00     0.006 C 
ENDBRANCH   8  11
ENDBRANCH   7   8
ENDBRANCH   1   7
BRANCH   6  13
ATOM     13  N   LIG d   1      -3.829  93.428 118.536  0.00  0.00    -0.311 N 
ATOM     14  C   LIG d   1      -2.834  93.280 119.409  0.00  0.00     0.210 C 
ATOM     15  C   LIG d   1      -2.078  94.568 119.752  0.00  0.00     0.109 C 
ATOM     16  O   LIG d   1      -2.485  92.199 119.907  0.00  0.00    -0.276 OA
ATOM     17  H   LIG d   1      -4.023  94.335 118.158  0.00  0.00     0.149 HD
ENDBRANCH   6  13
BRANCH   5  18
ATOM     18  N   LIG d   1      -2.895  91.080 116.820  0.00  0.00     0.381 N 
ATOM     19  H   LIG d   1      -2.886  90.391 117.545  0.00  0.00    -0.090 HD
ATOM     20  H   LIG d   1      -2.218  91.786 117.048  0.00  0.00    -0.090 HD
ATOM     21  H   LIG d   1      -2.664  90.658 115.948  0.00  0.00    -0.090 HD
ENDBRANCH   5  18
BRANCH   3  22
ATOM     22  C   LIG d   1      -7.436  90.490 115.416  0.00  0.00     0.382 C 
ATOM     23  O   LIG d   1      -7.308  90.714 114.188  0.00  0.00    -0.241 OA
ATOM     24  O   LIG d   1      -8.385  89.791 115.816  0.00  0.00    -0.241 OA
ENDBRANCH   3  22
TORSDOF 7
ENDMDL
MODEL 2
REMARK VINA RESULT:      -5.0      2.021      4.523
REMARK  7 active torsions:
REMARK  status: ('A' for Active; 'I' for Inactive)
REMARK    1  A    between atoms: C_2  and  C_3 
REMARK    2  A    between atoms: C_3  and  O_6 
REMARK    3  A    between atoms: C_3  and  C_4 
REMARK    4  A    between atoms: C_7  and  O_6 
REMARK    5  A    between atoms: C_9  and  C_10 
REMARK    6  A    between atoms: N_15  and  C_14 
REMARK    7  A    between atoms: N_20  and  C_19 
REMARK       I    between atoms: C_22  and  N_20 
ROOT
ATOM      1  C   LIG d   1      -5.789  92.781 119.272  0.00  0.00     0.161 C 
ATOM      2  C   LIG d   1      -7.106  93.247 119.131  0.00  0.00     0.016 C 
ATOM      3  C   LIG d   1      -7.439  94.616 119.012  0.00  0.00     0.038 C 
ATOM      4  C   LIG d   1      -6.456  95.608 118.874  0.00  0.00     0.028 C 
ATOM      5  C   LIG d   1      -5.125  95.236 119.517  0.00  0.00    -0.047 C 
ATOM      6  C   LIG d   1      -4.697  93.839 119.012  0.00  0.00     0.091 C 
ENDROOT
BRANCH   1   7
ATOM      7  O   LIG d   1      -5.584  91.631 118.427  0.00  0.00    -0.368 OA
BRANCH   7   8
ATOM      8  C   LIG d   1      -5.247  91.908 117.046  0.00  0.00     0.119 C 
BRANCH   8   9
ATOM      9  C   LIG d   1      -6.420  91.418 116.175  0.00  0.00     0.028 C 
ATOM     10  C   LIG d   1      -6.255  91.803 114.696  0.00  0.00     0.006 C 
ENDBRANCH   8   9
BRANCH   8  11
ATOM     11  C   LIG d   1      -4.036  91.087 116.593  0.00  0.00     0.028 C 
ATOM     12  C   LIG d   1      -3.393  90.291 117.740  0.00  0.00     0.006 C 
ENDBRANCH   8  11
ENDBRANCH   7   8
ENDBRANCH   1   7
BRANCH   6  13
ATOM     13  N   LIG d   1      -3.445  93.362 119.656  0.00  0.00    -0.311 N 
ATOM     14  C   LIG d   1      -2.240  93.497 119.107  0.00  0.00     0.210 C 
ATOM     15  C   LIG d   1      -1.085  92.918 119.930  0.00  0.00     0.109 C 
ATOM     16  O   LIG d   1      -2.014  94.071 118.031  0.00  0.00    -0.276 OA
ATOM     17  H   LIG d   1      -3.534  92.913 120.547  0.00  0.00     0.149 HD
ENDBRANCH   6  13
BRANCH   5  18
ATOM     18  N   LIG d   1      -4.155  96.295 119.179  0.00  0.00     0.381 N 
ATOM     19  H   LIG d   1      -4.612  97.020 118.663  0.00  0.00    -0.090 HD
ATOM     20  H   LIG d   1      -3.433  95.902 118.600  0.00  0.00    -0.090 HD
ATOM     21  H   LIG d   1      -3.756  96.670 120.011  0.00  0.00    -0.090 HD
ENDBRANCH   5  18
BRANCH   3  22
ATOM     22  C   LIG d   1      -8.767  95.009 119.071  0.00  0.00     0.382 C 
ATOM     23  O   LIG d   1      -9.644  94.345 118.468  0.00  0.00    -0.241 OA
ATOM     24  O   LIG d   1      -9.094  96.044 119.683  0.00  0.00    -0.241 OA
ENDBRANCH   3  22
TORSDOF 7
ENDMDL
MODEL 3
REMARK VINA RESULT:      -4.9      1.589      4.623
REMARK  7 active torsions:
REMARK  status: ('A' for Active; 'I' for Inactive)
REMARK    1  A    between atoms: C_2  and  C_3 
REMARK    2  A    between atoms: C_3  and  O_6 
REMARK    3  A    between atoms: C_3  and  C_4 
REMARK    4  A    between atoms: C_7  and  O_6 
REMARK    5  A    between atoms: C_9  and  C_10 
REMARK    6  A    between atoms: N_15  and  C_14 
REMARK    7  A    between atoms: N_20  and  C_19 
REMARK       I    between atoms: C_22  and  N_20 
ROOT
ATOM      1  C   LIG d   1      -6.709  92.171 118.056  0.00  0.00     0.161 C 
ATOM      2  C   LIG d   1      -5.551  92.590 118.733  0.00  0.00     0.016 C 
ATOM      3  C   LIG d   1      -4.242  92.265 118.310  0.00  0.00     0.038 C 
ATOM      4  C   LIG d   1      -3.996  91.622 117.087  0.00  0.00     0.028 C 
ATOM      5  C   LIG d   1      -5.150  90.740 116.624  0.00  0.00    -0.047 C 
ATOM      6  C   LIG d   1      -6.458  91.564 116.660  0.00  0.00     0.091 C 
ENDROOT
BRANCH   1   7
ATOM      7  O   LIG d   1      -7.644  93.265 117.966  0.00  0.00    -0.368 OA
BRANCH   7   8
ATOM      8  C   LIG d   1      -7.663  94.181 119.088  0.00  0.00     0.119 C 
BRANCH   8   9
ATOM      9  C   LIG d   1      -9.133  94.368 119.509  0.00  0.00     0.028 C 
ATOM     10  C   LIG d   1      -9.475  95.836 119.814  0.00  0.00     0.006 C 
ENDBRANCH   8   9
BRANCH   8  11
ATOM     11  C   LIG d   1      -7.179  95.575 118.677  0.00  0.00     0.028 C 
ATOM     12  C   LIG d   1      -5.878  95.987 119.385  0.00  0.00     0.006 C 
ENDBRANCH   8  11
ENDBRANCH   7   8
ENDBRANCH   1   7
BRANCH   6  13
ATOM     13  N   LIG d   1      -7.650  90.752 116.301  0.00  0.00    -0.311 N 
ATOM     14  C   LIG d   1      -8.030  90.523 115.046  0.00  0.00     0.210 C 
ATOM     15  C   LIG d   1      -9.299  89.678 114.899  0.00  0.00     0.109 C 
ATOM     16  O   LIG d   1      -7.419  90.913 114.039  0.00  0.00    -0.276 OA
ATOM     17  H   LIG d   1      -8.186  90.371 117.056  0.00  0.00     0.149 HD
ENDBRANCH   6  13
BRANCH   5  18
ATOM     18  N   LIG d   1      -4.818  90.243 115.275  0.00  0.00     0.381 N 
ATOM     19  H   LIG d   1      -3.941  89.762 115.299  0.00  0.00    -0.090 HD
ATOM     20  H   LIG d   1      -4.732  91.026 114.652  0.00  0.00    -0.090 HD
ATOM     21  H   LIG d   1      -5.533  89.629 114.952  0.00  0.00    -0.090 HD
ENDBRANCH   5  18
BRANCH   3  22
ATOM     22  C   LIG d   1      -3.163  92.548 119.133  0.00  0.00     0.382 C 
ATOM     23  O   LIG d   1      -2.925  93.734 119.469  0.00  0.00    -0.241 OA
ATOM     24  O   LIG d   1      -2.399  91.640 119.509  0.00  0.00    -0.241 OA
ENDBRANCH   3  22
TORSDOF 7
ENDMDL
MODEL 4
REMARK VINA RESULT:      -4.8      2.302      4.543
REMARK  7 active torsions:
REMARK  status: ('A' for Active; 'I' for Inactive)
REMARK    1  A    between atoms: C_2  and  C_3 
REMARK    2  A    between atoms: C_3  and  O_6 
REMARK    3  A    between atoms: C_3  and  C_4 
REMARK    4  A    between atoms: C_7  and  O_6 
REMARK    5  A    between atoms: C_9  and  C_10 
REMARK    6  A    between atoms: N_15  and  C_14 
REMARK    7  A    between atoms: N_20  and  C_19 
REMARK       I    between atoms: C_22  and  N_20 
ROOT
ATOM      1  C   LIG d   1      -4.416  91.236 117.248  0.00  0.00     0.161 C 
ATOM      2  C   LIG d   1      -5.354  90.542 116.466  0.00  0.00     0.016 C 
ATOM      3  C   LIG d   1      -6.609  91.077 116.098  0.00  0.00     0.038 C 
ATOM      4  C   LIG d   1      -6.953  92.411 116.363  0.00  0.00     0.028 C 
ATOM      5  C   LIG d   1      -6.247  92.987 117.586  0.00  0.00    -0.047 C 
ATOM      6  C   LIG d   1      -4.728  92.734 117.453  0.00  0.00     0.091 C 
ENDROOT
BRANCH   1   7
ATOM      7  O   LIG d   1      -3.097  91.070 116.693  0.00  0.00    -0.368 OA
BRANCH   7   8
ATOM      8  C   LIG d   1      -2.199  90.204 117.429  0.00  0.00     0.119 C 
BRANCH   8   9
ATOM      9  C   LIG d   1      -2.747  90.082 118.864  0.00  0.00     0.028 C 
ATOM     10  C   LIG d   1      -2.829  88.622 119.339  0.00  0.00     0.006 C 
ENDBRANCH   8   9
BRANCH   8  11
ATOM     11  C   LIG d   1      -0.812  90.836 117.577  0.00  0.00     0.028 C 
ATOM     12  C   LIG d   1       0.272  89.812 117.948  0.00  0.00     0.006 C 
ENDBRANCH   8  11
ENDBRANCH   7   8
ENDBRANCH   1   7
BRANCH   6  13
ATOM     13  N   LIG d   1      -3.971  93.191 118.647  0.00  0.00    -0.311 N 
ATOM     14  C   LIG d   1      -2.778  93.780 118.578  0.00  0.00     0.210 C 
ATOM     15  C   LIG d   1      -2.162  94.155 119.929  0.00  0.00     0.109 C 
ATOM     16  O   LIG d   1      -2.186  94.056 117.524  0.00  0.00    -0.276 OA
ATOM     17  H   LIG d   1      -4.392  93.035 119.542  0.00  0.00     0.149 HD
ENDBRANCH   6  13
BRANCH   5  18
ATOM     18  N   LIG d   1      -6.589  94.420 117.664  0.00  0.00     0.381 N 
ATOM     19  H   LIG d   1      -6.911  94.741 116.773  0.00  0.00    -0.090 HD
ATOM     20  H   LIG d   1      -5.764  94.938 117.907  0.00  0.00    -0.090 HD
ATOM     21  H   LIG d   1      -7.296  94.564 118.352  0.00  0.00    -0.090 HD
ENDBRANCH   5  18
BRANCH   3  22
ATOM     22  C   LIG d   1      -7.553  90.262 115.491  0.00  0.00     0.382 C 
ATOM     23  O   LIG d   1      -8.397  89.652 116.191  0.00  0.00    -0.241 OA
ATOM     24  O   LIG d   1      -7.542  90.093 114.257  0.00  0.00    -0.241 OA
ENDBRANCH   3  22
TORSDOF 7
ENDMDL
MODEL 5
REMARK VINA RESULT:      -4.7      1.967      4.601
REMARK  7 active torsions:
REMARK  status: ('A' for Active; 'I' for Inactive)
REMARK    1  A    between atoms: C_2  and  C_3 
REMARK    2  A    between atoms: C_3  and  O_6 
REMARK    3  A    between atoms: C_3  and  C_4 
REMARK    4  A    between atoms: C_7  and  O_6 
REMARK    5  A    between atoms: C_9  and  C_10 
REMARK    6  A    between atoms: N_15  and  C_14 
REMARK    7  A    between atoms: N_20  and  C_19 
REMARK       I    between atoms: C_22  and  N_20 
ROOT
ATOM      1  C   LIG d   1      -6.716  92.194 118.294  0.00  0.00     0.161 C 
ATOM      2  C   LIG d   1      -7.718  93.175 118.378  0.00  0.00     0.016 C 
ATOM      3  C   LIG d   1      -7.458  94.528 118.695  0.00  0.00     0.038 C 
ATOM      4  C   LIG d   1      -6.151  95.026 118.803  0.00  0.00     0.028 C 
ATOM      5  C   LIG d   1      -5.134  93.972 119.225  0.00  0.00    -0.047 C 
ATOM      6  C   LIG d   1      -5.273  92.742 118.299  0.00  0.00     0.091 C 
ENDROOT
BRANCH   1   7
ATOM      7  O   LIG d   1      -6.934  91.370 117.132  0.00  0.00    -0.368 OA
BRANCH   7   8
ATOM      8  C   LIG d   1      -6.971  92.060 115.859  0.00  0.00     0.119 C 
BRANCH   8   9
ATOM      9  C   LIG d   1      -8.125  91.454 115.037  0.00  0.00     0.028 C 
ATOM     10  C   LIG d   1      -8.453  90.013 115.460  0.00  0.00     0.006 C 
ENDBRANCH   8   9
BRANCH   8  11
ATOM     11  C   LIG d   1      -5.704  91.788 115.041  0.00  0.00     0.028 C 
ATOM     12  C   LIG d   1      -5.090  90.410 115.335  0.00  0.00     0.006 C 
ENDBRANCH   8  11
ENDBRANCH   7   8
ENDBRANCH   1   7
BRANCH   6  13
ATOM     13  N   LIG d   1      -4.371  91.629 118.696  0.00  0.00    -0.311 N 
ATOM     14  C   LIG d   1      -3.133  91.487 118.227  0.00  0.00     0.210 C 
ATOM     15  C   LIG d   1      -2.380  90.259 118.750  0.00  0.00     0.109 C 
ATOM     16  O   LIG d   1      -2.574  92.278 117.452  0.00  0.00    -0.276 OA
ATOM     17  H   LIG d   1      -4.733  90.958 119.345  0.00  0.00     0.149 HD
ENDBRANCH   6  13
BRANCH   5  18
ATOM     18  N   LIG d   1      -3.797  94.593 119.164  0.00  0.00     0.381 N 
ATOM     19  H   LIG d   1      -3.882  95.553 118.897  0.00  0.00    -0.090 HD
ATOM     20  H   LIG d   1      -3.250  94.119 118.467  0.00  0.00    -0.090 HD
ATOM     21  H   LIG d   1      -3.349  94.525 120.051  0.00  0.00    -0.090 HD
ENDBRANCH   5  18
BRANCH   3  22
ATOM     22  C   LIG d   1      -8.515  95.389 118.948  0.00  0.00     0.382 C 
ATOM     23  O   LIG d   1      -8.436  96.221 119.884  0.00  0.00    -0.241 OA
ATOM     24  O   LIG d   1      -9.564  95.315 118.280  0.00  0.00    -0.241 OA
ENDBRANCH   3  22
TORSDOF 7
ENDMDL
MODEL 6
REMARK VINA RESULT:      -4.6      2.607      5.071
REMARK  7 active torsions:
REMARK  status: ('A' for Active; 'I' for Inactive)
REMARK    1  A    between atoms: C_2  and  C_3 
REMARK    2  A    between atoms: C_3  and  O_6 
REMARK    3  A    between atoms: C_3  and  C_4 
REMARK    4  A    between atoms: C_7  and  O_6 
REMARK    5  A    between atoms: C_9  and  C_10 
REMARK    6  A    between atoms: N_15  and  C_14 
REMARK    7  A    between atoms: N_20  and  C_19 
REMARK       I    between atoms: C_22  and  N_20 
ROOT
ATOM      1  C   LIG d   1      -3.490  92.904 119.622  0.00  0.00     0.161 C 
ATOM      2  C   LIG d   1      -3.451  94.302 119.490  0.00  0.00     0.016 C 
ATOM      3  C   LIG d   1      -2.492  94.983 118.704  0.00  0.00     0.038 C 
ATOM      4  C   LIG d   1      -1.595  94.298 117.872  0.00  0.00     0.028 C 
ATOM      5  C   LIG d   1      -1.267  92.891 118.361  0.00  0.00    -0.047 C 
ATOM      6  C   LIG d   1      -2.588  92.135 118.634  0.00  0.00     0.091 C 
ENDROOT
BRANCH   1   7
ATOM      7  O   LIG d   1      -4.851  92.441 119.522  0.00  0.00    -0.368 OA
BRANCH   7   8
ATOM      8  C   LIG d   1      -5.616  92.950 118.402  0.00  0.00     0.119 C 
BRANCH   8   9
ATOM      9  C   LIG d   1      -6.922  93.545 118.965  0.00  0.00     0.028 C 
ATOM     10  C   LIG d   1      -7.535  94.602 118.032  0.00  0.00     0.006 C 
ENDBRANCH   8   9
BRANCH   8  11
ATOM     11  C   LIG d   1      -6.056  91.819 117.468  0.00  0.00     0.028 C 
ATOM     12  C   LIG d   1      -5.468  91.951 116.054  0.00  0.00     0.006 C 
ENDBRANCH   8  11
ENDBRANCH   7   8
ENDBRANCH   1   7
BRANCH   6  13
ATOM     13  N   LIG d   1      -2.359  90.779 119.195  0.00  0.00    -0.311 N 
ATOM     14  C   LIG d   1      -2.807  89.663 118.623  0.00  0.00     0.210 C 
ATOM     15  C   LIG d   1      -2.477  88.371 119.378  0.00  0.00     0.109 C 
ATOM     16  O   LIG d   1      -3.419  89.617 117.545  0.00  0.00    -0.276 OA
ATOM     17  H   LIG d   1      -1.844  90.721 120.052  0.00  0.00     0.149 HD
ENDBRANCH   6  13
BRANCH   5  18
ATOM     18  N   LIG d   1      -0.433  92.245 117.330  0.00  0.00     0.381 N 
ATOM     19  H   LIG d   1       0.507  92.158 117.661  0.00  0.00    -0.090 HD
ATOM     20  H   LIG d   1      -0.426  92.822 116.508  0.00  0.00    -0.090 HD
ATOM     21  H   LIG d   1      -0.800  91.345 117.110  0.00  0.00    -0.090 HD
ENDBRANCH   5  18
BRANCH   3  22
ATOM     22  C   LIG d   1      -2.400  96.364 118.778  0.00  0.00     0.382 C 
ATOM     23  O   LIG d   1      -1.653  96.986 117.985  0.00  0.00    -0.241 OA
ATOM     24  O   LIG d   1      -3.020  96.993 119.657  0.00  0.00    -0.241 OA
ENDBRANCH   3  22
TORSDOF 7
ENDMDL
MODEL 7
REMARK VINA RESULT:      -4.6      7.728     10.550
REMARK  7 active torsions:
REMARK  status: ('A' for Active; 'I' for Inactive)
REMARK    1  A    between atoms: C_2  and  C_3 
REMARK    2  A    between atoms: C_3  and  O_6 
REMARK    3  A    between atoms: C_3  and  C_4 
REMARK    4  A    between atoms: C_7  and  O_6 
REMARK    5  A    between atoms: C_9  and  C_10 
REMARK    6  A    between atoms: N_15  and  C_14 
REMARK    7  A    between atoms: N_20  and  C_19 
REMARK       I    between atoms: C_22  and  N_20 
ROOT
ATOM      1  C   LIG d   1       2.727  88.573 116.813  0.00  0.00     0.161 C 
ATOM      2  C   LIG d   1       3.208  89.454 117.796  0.00  0.00     0.016 C 
ATOM      3  C   LIG d   1       4.469  90.089 117.722  0.00  0.00     0.038 C 
ATOM      4  C   LIG d   1       5.277  90.002 116.579  0.00  0.00     0.028 C 
ATOM      5  C   LIG d   1       5.058  88.723 115.778  0.00  0.00    -0.047 C 
ATOM      6  C   LIG d   1       3.546  88.554 115.505  0.00  0.00     0.091 C 
ENDROOT
BRANCH   1   7
ATOM      7  O   LIG d   1       1.343  88.862 116.532  0.00  0.00    -0.368 OA
BRANCH   7   8
ATOM      8  C   LIG d   1       0.542  89.296 117.658  0.00  0.00     0.119 C 
BRANCH   8   9
ATOM      9  C   LIG d   1      -0.387  88.128 118.043  0.00  0.00     0.028 C 
ATOM     10  C   LIG d   1      -1.856  88.564 118.173  0.00  0.00     0.006 C 
ENDBRANCH   8   9
BRANCH   8  11
ATOM     11  C   LIG d   1      -0.393  90.445 117.268  0.00  0.00     0.028 C 
ATOM     12  C   LIG d   1       0.040  91.794 117.863  0.00  0.00     0.006 C 
ENDBRANCH   8  11
ENDBRANCH   7   8
ENDBRANCH   1   7
BRANCH   6  13
ATOM     13  N   LIG d   1       3.237  87.283 114.799  0.00  0.00    -0.311 N 
ATOM     14  C   LIG d   1       3.189  87.174 113.473  0.00  0.00     0.210 C 
ATOM     15  C   LIG d   1       2.832  85.779 112.950  0.00  0.00     0.109 C 
ATOM     16  O   LIG d   1       3.440  88.093 112.678  0.00  0.00    -0.276 OA
ATOM     17  H   LIG d   1       3.050  86.479 115.367  0.00  0.00     0.149 HD
ENDBRANCH   6  13
BRANCH   5  18
ATOM     18  N   LIG d   1       5.860  88.827 114.544  0.00  0.00     0.381 N 
ATOM     19  H   LIG d   1       5.586  89.640 114.029  0.00  0.00    -0.090 HD
ATOM     20  H   LIG d   1       5.686  88.019 113.974  0.00  0.00    -0.090 HD
ATOM     21  H   LIG d   1       6.829  88.880 114.771  0.00  0.00    -0.090 HD
ENDBRANCH   5  18
BRANCH   3  22
ATOM     22  C   LIG d   1       4.951  90.788 118.818  0.00  0.00     0.382 C 
ATOM     23  O   LIG d   1       5.339  91.974 118.684  0.00  0.00    -0.241 OA
ATOM     24  O   LIG d   1       5.045  90.234 119.930  0.00  0.00    -0.241 OA
ENDBRANCH   3  22
TORSDOF 7
ENDMDL
MODEL 8
REMARK VINA RESULT:      -4.6      3.010      5.490
REMARK  7 active torsions:
REMARK  status: ('A' for Active; 'I' for Inactive)
REMARK    1  A    between atoms: C_2  and  C_3 
REMARK    2  A    between atoms: C_3  and  O_6 
REMARK    3  A    between atoms: C_3  and  C_4 
REMARK    4  A    between atoms: C_7  and  O_6 
REMARK    5  A    between atoms: C_9  and  C_10 
REMARK    6  A    between atoms: N_15  and  C_14 
REMARK    7  A    between atoms: N_20  and  C_19 
REMARK       I    between atoms: C_22  and  N_20 
ROOT
ATOM      1  C   LIG d   1      -3.152  91.492 118.796  0.00  0.00     0.161 C 
ATOM      2  C   LIG d   1      -3.175  92.884 118.609  0.00  0.00     0.016 C 
ATOM      3  C   LIG d   1      -2.051  93.632 118.190  0.00  0.00     0.038 C 
ATOM      4  C   LIG d   1      -0.860  93.014 117.782  0.00  0.00     0.028 C 
ATOM      5  C   LIG d   1      -0.628  91.656 118.434  0.00  0.00    -0.047 C 
ATOM      6  C   LIG d   1      -1.893  90.787 118.249  0.00  0.00     0.091 C 
ENDROOT
BRANCH   1   7
ATOM      7  O   LIG d   1      -4.341  90.903 118.233  0.00  0.00    -0.368 OA
BRANCH   7   8
ATOM      8  C   LIG d   1      -4.929  91.605 117.110  0.00  0.00     0.119 C 
BRANCH   8   9
ATOM      9  C   LIG d   1      -6.426  91.798 117.418  0.00  0.00     0.028 C 
ATOM     10  C   LIG d   1      -6.788  93.272 117.669  0.00  0.00     0.006 C 
ENDBRANCH   8   9
BRANCH   8  11
ATOM     11  C   LIG d   1      -4.883  90.755 115.836  0.00  0.00     0.028 C 
ATOM     12  C   LIG d   1      -6.265  90.579 115.188  0.00  0.00     0.006 C 
ENDBRANCH   8  11
ENDBRANCH   7   8
ENDBRANCH   1   7
BRANCH   6  13
ATOM     13  N   LIG d   1      -1.782  89.471 118.930  0.00  0.00    -0.311 N 
ATOM     14  C   LIG d   1      -1.214  88.403 118.373  0.00  0.00     0.210 C 
ATOM     15  C   LIG d   1      -1.222  87.140 119.241  0.00  0.00     0.109 C 
ATOM     16  O   LIG d   1      -0.675  88.390 117.257  0.00  0.00    -0.276 OA
ATOM     17  H   LIG d   1      -2.166  89.401 119.852  0.00  0.00     0.149 HD
ENDBRANCH   6  13
BRANCH   5  18
ATOM     18  N   LIG d   1       0.575  91.065 117.816  0.00  0.00     0.381 N 
ATOM     19  H   LIG d   1       1.382  91.601 118.065  0.00  0.00    -0.090 HD
ATOM     20  H   LIG d   1       0.474  91.092 116.817  0.00  0.00    -0.090 HD
ATOM     21  H   LIG d   1       0.686  90.122 118.120  0.00  0.00    -0.090 HD
ENDBRANCH   5  18
BRANCH   3  22
ATOM     22  C   LIG d   1      -2.099  95.018 118.215  0.00  0.00     0.382 C 
ATOM     23  O   LIG d   1      -2.842  95.605 119.039  0.00  0.00    -0.241 OA
ATOM     24  O   LIG d   1      -1.444  95.688 117.395  0.00  0.00    -0.241 OA
ENDBRANCH   3  22
TORSDOF 7
ENDMDL
MODEL 9
REMARK VINA RESULT:      -4.4      2.646      5.136
REMARK  7 active torsions:
REMARK  status: ('A' for Active; 'I' for Inactive)
REMARK    1  A    between atoms: C_2  and  C_3 
REMARK    2  A    between atoms: C_3  and  O_6 
REMARK    3  A    between atoms: C_3  and  C_4 
REMARK    4  A    between atoms: C_7  and  O_6 
REMARK    5  A    between atoms: C_9  and  C_10 
REMARK    6  A    between atoms: N_15  and  C_14 
REMARK    7  A    between atoms: N_20  and  C_19 
REMARK       I    between atoms: C_22  and  N_20 
ROOT
ATOM      1  C   LIG d   1      -4.361  92.175 119.466  0.00  0.00     0.161 C 
ATOM      2  C   LIG d   1      -4.486  93.572 119.395  0.00  0.00     0.016 C 
ATOM      3  C   LIG d   1      -3.381  94.454 119.413  0.00  0.00     0.038 C 
ATOM      4  C   LIG d   1      -2.059  93.988 119.351  0.00  0.00     0.028 C 
ATOM      5  C   LIG d   1      -1.883  92.589 119.930  0.00  0.00    -0.047 C 
ATOM      6  C   LIG d   1      -2.923  91.644 119.286  0.00  0.00     0.091 C 
ENDROOT
BRANCH   1   7
ATOM      7  O   LIG d   1      -5.246  91.556 118.511  0.00  0.00    -0.368 OA
BRANCH   7   8
ATOM      8  C   LIG d   1      -5.485  92.298 117.289  0.00  0.00     0.119 C 
BRANCH   8   9
ATOM      9  C   LIG d   1      -7.009  92.467 117.141  0.00  0.00     0.028 C 
ATOM     10  C   LIG d   1      -7.480  93.885 117.502  0.00  0.00     0.006 C 
ENDBRANCH   8   9
BRANCH   8  11
ATOM     11  C   LIG d   1      -5.043  91.501 116.058  0.00  0.00     0.028 C 
ATOM     12  C   LIG d   1      -6.005  91.658 114.870  0.00  0.00     0.006 C 
ENDBRANCH   8  11
ENDBRANCH   7   8
ENDBRANCH   1   7
BRANCH   6  13
ATOM     13  N   LIG d   1      -2.875  90.273 119.858  0.00  0.00    -0.311 N 
ATOM     14  C   LIG d   1      -2.878  89.168 119.115  0.00  0.00     0.210 C 
ATOM     15  C   LIG d   1      -2.844  87.857 119.906  0.00  0.00     0.109 C 
ATOM     16  O   LIG d   1      -2.872  89.150 117.875  0.00  0.00    -0.276 OA
ATOM     17  H   LIG d   1      -2.846  90.196 120.856  0.00  0.00     0.149 HD
ENDBRANCH   6  13
BRANCH   5  18
ATOM     18  N   LIG d   1      -0.490  92.174 119.676  0.00  0.00     0.381 N 
ATOM     19  H   LIG d   1       0.135  92.737 120.217  0.00  0.00    -0.090 HD
ATOM     20  H   LIG d   1      -0.281  92.316 118.703  0.00  0.00    -0.090 HD
ATOM     21  H   LIG d   1      -0.372  91.213 119.912  0.00  0.00    -0.090 HD
ENDBRANCH   5  18
BRANCH   3  22
ATOM     22  C   LIG d   1      -3.593  95.819 119.535  0.00  0.00     0.382 C 
ATOM     23  O   LIG d   1      -4.725  96.302 119.291  0.00  0.00    -0.241 OA
ATOM     24  O   LIG d   1      -2.655  96.579 119.841  0.00  0.00    -0.241 OA
ENDBRANCH   3  22
TORSDOF 7
ENDMDL
