MODEL 1
REMARK VINA RESULT:      -4.5      0.000      0.000
REMARK  7 active torsions:
REMARK  status: ('A' for Active; 'I' for Inactive)
REMARK    1  A    between atoms: C_2  and  C_3 
REMARK    2  A    between atoms: C_3  and  O_6 
REMARK    3  A    between atoms: C_3  and  C_4 
REMARK    4  A    between atoms: C_7  and  O_6 
REMARK    5  A    between atoms: C_9  and  C_10 
REMARK    6  A    between atoms: N_15  and  C_14 
REMARK    7  A    between atoms: N_20  and  C_19 
REMARK       I    between atoms: C_22  and  N_20 
ROOT
ATOM      1  C   LIG d   1       0.249  90.314 116.827  0.00  0.00     0.161 C 
ATOM      2  C   LIG d   1       1.650  90.256 116.742  0.00  0.00     0.016 C 
ATOM      3  C   LIG d   1       2.509  91.141 117.433  0.00  0.00     0.038 C 
ATOM      4  C   LIG d   1       2.025  92.054 118.383  0.00  0.00     0.028 C 
ATOM      5  C   LIG d   1       0.586  92.489 118.126  0.00  0.00    -0.047 C 
ATOM      6  C   LIG d   1      -0.293  91.231 117.943  0.00  0.00     0.091 C 
ENDROOT
BRANCH   1   7
ATOM      7  O   LIG d   1      -0.287  88.984 116.967  0.00  0.00    -0.368 OA
BRANCH   7   8
ATOM      8  C   LIG d   1      -0.434  88.494 118.322  0.00  0.00     0.119 C 
BRANCH   8   9
ATOM      9  C   LIG d   1       0.416  87.215 118.447  0.00  0.00     0.028 C 
ATOM     10  C   LIG d   1       0.635  86.522 117.092  0.00  0.00     0.006 C 
ENDBRANCH   8   9
BRANCH   8  11
ATOM     11  C   LIG d   1      -1.873  88.054 118.604  0.00  0.00     0.028 C 
ATOM     12  C   LIG d   1      -1.983  87.115 119.815  0.00  0.00     0.006 C 
ENDBRANCH   8  11
ENDBRANCH   7   8
ENDBRANCH   1   7
BRANCH   6  13
ATOM     13  N   LIG d   1      -1.701  91.568 117.605  0.00  0.00    -0.311 N 
ATOM     14  C   LIG d   1      -2.668  91.676 118.514  0.00  0.00     0.210 C 
ATOM     15  C   LIG d   1      -4.052  92.011 117.949  0.00  0.00     0.109 C 
ATOM     16  O   LIG d   1      -2.505  91.557 119.737  0.00  0.00    -0.276 OA
ATOM     17  H   LIG d   1      -1.915  91.712 116.637  0.00  0.00     0.149 HD
ENDBRANCH   6  13
BRANCH   5  18
ATOM     18  N   LIG d   1       0.165  93.329 119.263  0.00  0.00     0.381 N 
ATOM     19  H   LIG d   1       0.387  92.870 120.124  0.00  0.00    -0.090 HD
ATOM     20  H   LIG d   1      -0.830  93.457 119.221  0.00  0.00    -0.090 HD
ATOM     21  H   LIG d   1       0.623  94.213 119.222  0.00  0.00    -0.090 HD
ENDBRANCH   5  18
BRANCH   3  22
ATOM     22  C   LIG d   1       3.866  91.145 117.148  0.00  0.00     0.382 C 
ATOM     23  O   LIG d   1       4.679  91.627 117.974  0.00  0.00    -0.241 OA
ATOM     24  O   LIG d   1       4.283  90.712 116.057  0.00  0.00    -0.241 OA
ENDBRANCH   3  22
TORSDOF 7
ENDMDL
MODEL 2
REMARK VINA RESULT:      -4.3      3.702      6.346
REMARK  7 active torsions:
REMARK  status: ('A' for Active; 'I' for Inactive)
REMARK    1  A    between atoms: C_2  and  C_3 
REMARK    2  A    between atoms: C_3  and  O_6 
REMARK    3  A    between atoms: C_3  and  C_4 
REMARK    4  A    between atoms: C_7  and  O_6 
REMARK    5  A    between atoms: C_9  and  C_10 
REMARK    6  A    between atoms: N_15  and  C_14 
REMARK    7  A    between atoms: N_20  and  C_19 
REMARK       I    between atoms: C_22  and  N_20 
ROOT
ATOM      1  C   LIG d   1      -3.097  92.934 119.611  0.00  0.00     0.161 C 
ATOM      2  C   LIG d   1      -3.013  94.335 119.676  0.00  0.00     0.016 C 
ATOM      3  C   LIG d   1      -2.068  95.093 118.948  0.00  0.00     0.038 C 
ATOM      4  C   LIG d   1      -1.235  94.509 117.982  0.00  0.00     0.028 C 
ATOM      5  C   LIG d   1      -0.937  93.037 118.249  0.00  0.00    -0.047 C 
ATOM      6  C   LIG d   1      -2.270  92.289 118.479  0.00  0.00     0.091 C 
ENDROOT
BRANCH   1   7
ATOM      7  O   LIG d   1      -4.477  92.531 119.516  0.00  0.00    -0.368 OA
BRANCH   7   8
ATOM      8  C   LIG d   1      -5.275  93.221 118.523  0.00  0.00     0.119 C 
BRANCH   8   9
ATOM      9  C   LIG d   1      -6.150  94.250 119.265  0.00  0.00     0.028 C 
ATOM     10  C   LIG d   1      -7.207  94.891 118.349  0.00  0.00     0.006 C 
ENDBRANCH   8   9
BRANCH   8  11
ATOM     11  C   LIG d   1      -6.261  92.267 117.841  0.00  0.00     0.028 C 
ATOM     12  C   LIG d   1      -5.999  92.116 116.334  0.00  0.00     0.006 C 
ENDBRANCH   8  11
ENDBRANCH   7   8
ENDBRANCH   1   7
BRANCH   6  13
ATOM     13  N   LIG d   1      -2.065  90.860 118.831  0.00  0.00    -0.311 N 
ATOM     14  C   LIG d   1      -2.730  89.860 118.255  0.00  0.00     0.210 C 
ATOM     15  C   LIG d   1      -2.381  88.464 118.778  0.00  0.00     0.109 C 
ATOM     16  O   LIG d   1      -3.554  89.995 117.337  0.00  0.00    -0.276 OA
ATOM     17  H   LIG d   1      -1.392  90.658 119.544  0.00  0.00     0.149 HD
ENDBRANCH   6  13
BRANCH   5  18
ATOM     18  N   LIG d   1      -0.175  92.520 117.097  0.00  0.00     0.381 N 
ATOM     19  H   LIG d   1       0.692  93.012 117.016  0.00  0.00    -0.090 HD
ATOM     20  H   LIG d   1      -0.707  92.678 116.258  0.00  0.00    -0.090 HD
ATOM     21  H   LIG d   1      -0.004  91.546 117.211  0.00  0.00    -0.090 HD
ENDBRANCH   5  18
BRANCH   3  22
ATOM     22  C   LIG d   1      -1.922  96.447 119.212  0.00  0.00     0.382 C 
ATOM     23  O   LIG d   1      -2.796  97.259 118.824  0.00  0.00    -0.241 OA
ATOM     24  O   LIG d   1      -0.905  96.871 119.793  0.00  0.00    -0.241 OA
ENDBRANCH   3  22
TORSDOF 7
ENDMDL
MODEL 3
REMARK VINA RESULT:      -4.3      2.331      5.344
REMARK  7 active torsions:
REMARK  status: ('A' for Active; 'I' for Inactive)
REMARK    1  A    between atoms: C_2  and  C_3 
REMARK    2  A    between atoms: C_3  and  O_6 
REMARK    3  A    between atoms: C_3  and  C_4 
REMARK    4  A    between atoms: C_7  and  O_6 
REMARK    5  A    between atoms: C_9  and  C_10 
REMARK    6  A    between atoms: N_15  and  C_14 
REMARK    7  A    between atoms: N_20  and  C_19 
REMARK       I    between atoms: C_22  and  N_20 
ROOT
ATOM      1  C   LIG d   1       1.077  88.631 117.227  0.00  0.00     0.161 C 
ATOM      2  C   LIG d   1      -0.314  88.490 117.360  0.00  0.00     0.016 C 
ATOM      3  C   LIG d   1      -1.145  89.477 117.939  0.00  0.00     0.038 C 
ATOM      4  C   LIG d   1      -0.656  90.745 118.290  0.00  0.00     0.028 C 
ATOM      5  C   LIG d   1       0.828  90.746 118.639  0.00  0.00    -0.047 C 
ATOM      6  C   LIG d   1       1.612  90.052 117.502  0.00  0.00     0.091 C 
ENDROOT
BRANCH   1   7
ATOM      7  O   LIG d   1       1.491  88.184 115.921  0.00  0.00    -0.368 OA
BRANCH   7   8
ATOM      8  C   LIG d   1       2.220  86.933 115.877  0.00  0.00     0.119 C 
BRANCH   8   9
ATOM      9  C   LIG d   1       3.324  87.078 114.812  0.00  0.00     0.028 C 
ATOM     10  C   LIG d   1       3.595  88.546 114.444  0.00  0.00     0.006 C 
ENDBRANCH   8   9
BRANCH   8  11
ATOM     11  C   LIG d   1       1.331  85.786 115.385  0.00  0.00     0.028 C 
ATOM     12  C   LIG d   1       1.505  85.499 113.886  0.00  0.00     0.006 C 
ENDBRANCH   8  11
ENDBRANCH   7   8
ENDBRANCH   1   7
BRANCH   6  13
ATOM     13  N   LIG d   1       3.063  89.935 117.803  0.00  0.00    -0.311 N 
ATOM     14  C   LIG d   1       3.965  90.838 117.423  0.00  0.00     0.210 C 
ATOM     15  C   LIG d   1       5.410  90.515 117.819  0.00  0.00     0.109 C 
ATOM     16  O   LIG d   1       3.703  91.892 116.824  0.00  0.00    -0.276 OA
ATOM     17  H   LIG d   1       3.360  89.126 118.313  0.00  0.00     0.149 HD
ENDBRANCH   6  13
BRANCH   5  18
ATOM     18  N   LIG d   1       1.235  92.148 118.850  0.00  0.00     0.381 N 
ATOM     19  H   LIG d   1       1.918  92.409 118.167  0.00  0.00    -0.090 HD
ATOM     20  H   LIG d   1       1.652  92.232 119.760  0.00  0.00    -0.090 HD
ATOM     21  H   LIG d   1       0.442  92.747 118.783  0.00  0.00    -0.090 HD
ENDBRANCH   5  18
BRANCH   3  22
ATOM     22  C   LIG d   1      -2.473  89.186 118.210  0.00  0.00     0.382 C 
ATOM     23  O   LIG d   1      -2.769  88.152 118.857  0.00  0.00    -0.241 OA
ATOM     24  O   LIG d   1      -3.382  89.919 117.777  0.00  0.00    -0.241 OA
ENDBRANCH   3  22
TORSDOF 7
ENDMDL
MODEL 4
REMARK VINA RESULT:      -4.3      3.494      5.334
REMARK  7 active torsions:
REMARK  status: ('A' for Active; 'I' for Inactive)
REMARK    1  A    between atoms: C_2  and  C_3 
REMARK    2  A    between atoms: C_3  and  O_6 
REMARK    3  A    between atoms: C_3  and  C_4 
REMARK    4  A    between atoms: C_7  and  O_6 
REMARK    5  A    between atoms: C_9  and  C_10 
REMARK    6  A    between atoms: N_15  and  C_14 
REMARK    7  A    between atoms: N_20  and  C_19 
REMARK       I    between atoms: C_22  and  N_20 
ROOT
ATOM      1  C   LIG d   1      -3.539  91.320 117.281  0.00  0.00     0.161 C 
ATOM      2  C   LIG d   1      -2.799  92.149 118.140  0.00  0.00     0.016 C 
ATOM      3  C   LIG d   1      -3.367  93.222 118.866  0.00  0.00     0.038 C 
ATOM      4  C   LIG d   1      -4.752  93.444 118.898  0.00  0.00     0.028 C 
ATOM      5  C   LIG d   1      -5.474  92.947 117.651  0.00  0.00    -0.047 C 
ATOM      6  C   LIG d   1      -5.070  91.478 117.389  0.00  0.00     0.091 C 
ENDROOT
BRANCH   1   7
ATOM      7  O   LIG d   1      -3.162  89.944 117.486  0.00  0.00    -0.368 OA
BRANCH   7   8
ATOM      8  C   LIG d   1      -1.982  89.720 118.297  0.00  0.00     0.119 C 
BRANCH   8   9
ATOM      9  C   LIG d   1      -0.912  89.082 117.391  0.00  0.00     0.028 C 
ATOM     10  C   LIG d   1       0.303  90.001 117.179  0.00  0.00     0.006 C 
ENDBRANCH   8   9
BRANCH   8  11
ATOM     11  C   LIG d   1      -2.249  88.689 119.397  0.00  0.00     0.028 C 
ATOM     12  C   LIG d   1      -1.780  87.276 119.017  0.00  0.00     0.006 C 
ENDBRANCH   8  11
ENDBRANCH   7   8
ENDBRANCH   1   7
BRANCH   6  13
ATOM     13  N   LIG d   1      -5.667  90.940 116.139  0.00  0.00    -0.311 N 
ATOM     14  C   LIG d   1      -6.898  90.435 116.072  0.00  0.00     0.210 C 
ATOM     15  C   LIG d   1      -7.310  89.916 114.691  0.00  0.00     0.109 C 
ATOM     16  O   LIG d   1      -7.699  90.398 117.018  0.00  0.00    -0.276 OA
ATOM     17  H   LIG d   1      -5.097  90.960 115.316  0.00  0.00     0.149 HD
ENDBRANCH   6  13
BRANCH   5  18
ATOM     18  N   LIG d   1      -6.922  93.116 117.877  0.00  0.00     0.381 N 
ATOM     19  H   LIG d   1      -7.088  93.373 118.830  0.00  0.00    -0.090 HD
ATOM     20  H   LIG d   1      -7.383  92.241 117.701  0.00  0.00    -0.090 HD
ATOM     21  H   LIG d   1      -7.282  93.818 117.269  0.00  0.00    -0.090 HD
ENDBRANCH   5  18
BRANCH   3  22
ATOM     22  C   LIG d   1      -2.542  94.110 119.539  0.00  0.00     0.382 C 
ATOM     23  O   LIG d   1      -1.396  93.748 119.903  0.00  0.00    -0.241 OA
ATOM     24  O   LIG d   1      -2.944  95.253 119.826  0.00  0.00    -0.241 OA
ENDBRANCH   3  22
TORSDOF 7
ENDMDL
MODEL 5
REMARK VINA RESULT:      -4.1      2.758      5.649
REMARK  7 active torsions:
REMARK  status: ('A' for Active; 'I' for Inactive)
REMARK    1  A    between atoms: C_2  and  C_3 
REMARK    2  A    between atoms: C_3  and  O_6 
REMARK    3  A    between atoms: C_3  and  C_4 
REMARK    4  A    between atoms: C_7  and  O_6 
REMARK    5  A    between atoms: C_9  and  C_10 
REMARK    6  A    between atoms: N_15  and  C_14 
REMARK    7  A    between atoms: N_20  and  C_19 
REMARK       I    between atoms: C_22  and  N_20 
ROOT
ATOM      1  C   LIG d   1      -2.824  92.841 118.399  0.00  0.00     0.161 C 
ATOM      2  C   LIG d   1      -2.720  94.229 118.594  0.00  0.00     0.016 C 
ATOM      3  C   LIG d   1      -1.497  94.889 118.852  0.00  0.00     0.038 C 
ATOM      4  C   LIG d   1      -0.265  94.221 118.781  0.00  0.00     0.028 C 
ATOM      5  C   LIG d   1      -0.366  92.731 119.087  0.00  0.00    -0.047 C 
ATOM      6  C   LIG d   1      -1.477  92.113 118.209  0.00  0.00     0.091 C 
ENDROOT
BRANCH   1   7
ATOM      7  O   LIG d   1      -3.703  92.568 117.290  0.00  0.00    -0.368 OA
BRANCH   7   8
ATOM      8  C   LIG d   1      -4.921  91.850 117.604  0.00  0.00     0.119 C 
BRANCH   8   9
ATOM      9  C   LIG d   1      -5.092  90.744 116.544  0.00  0.00     0.028 C 
ATOM     10  C   LIG d   1      -6.152  91.102 115.488  0.00  0.00     0.006 C 
ENDBRANCH   8   9
BRANCH   8  11
ATOM     11  C   LIG d   1      -6.152  92.748 117.455  0.00  0.00     0.028 C 
ATOM     12  C   LIG d   1      -6.311  93.738 118.620  0.00  0.00     0.006 C 
ENDBRANCH   8  11
ENDBRANCH   7   8
ENDBRANCH   1   7
BRANCH   6  13
ATOM     13  N   LIG d   1      -1.699  90.673 118.505  0.00  0.00    -0.311 N 
ATOM     14  C   LIG d   1      -1.123  89.687 117.820  0.00  0.00     0.210 C 
ATOM     15  C   LIG d   1      -1.503  88.275 118.277  0.00  0.00     0.109 C 
ATOM     16  O   LIG d   1      -0.308  89.847 116.899  0.00  0.00    -0.276 OA
ATOM     17  H   LIG d   1      -2.322  90.453 119.257  0.00  0.00     0.149 HD
ENDBRANCH   6  13
BRANCH   5  18
ATOM     18  N   LIG d   1       0.962  92.135 118.843  0.00  0.00     0.381 N 
ATOM     19  H   LIG d   1       1.000  91.219 119.242  0.00  0.00    -0.090 HD
ATOM     20  H   LIG d   1       1.660  92.703 119.290  0.00  0.00    -0.090 HD
ATOM     21  H   LIG d   1       1.139  92.087 117.864  0.00  0.00    -0.090 HD
ENDBRANCH   5  18
BRANCH   3  22
ATOM     22  C   LIG d   1      -1.502  96.225 119.223  0.00  0.00     0.382 C 
ATOM     23  O   LIG d   1      -2.435  96.676 119.930  0.00  0.00    -0.241 OA
ATOM     24  O   LIG d   1      -0.608  96.995 118.824  0.00  0.00    -0.241 OA
ENDBRANCH   3  22
TORSDOF 7
ENDMDL
MODEL 6
REMARK VINA RESULT:      -4.1      3.694      5.607
REMARK  7 active torsions:
REMARK  status: ('A' for Active; 'I' for Inactive)
REMARK    1  A    between atoms: C_2  and  C_3 
REMARK    2  A    between atoms: C_3  and  O_6 
REMARK    3  A    between atoms: C_3  and  C_4 
REMARK    4  A    between atoms: C_7  and  O_6 
REMARK    5  A    between atoms: C_9  and  C_10 
REMARK    6  A    between atoms: N_15  and  C_14 
REMARK    7  A    between atoms: N_20  and  C_19 
REMARK       I    between atoms: C_22  and  N_20 
ROOT
ATOM      1  C   LIG d   1       3.141  88.635 116.130  0.00  0.00     0.161 C 
ATOM      2  C   LIG d   1       3.711  89.453 117.120  0.00  0.00     0.016 C 
ATOM      3  C   LIG d   1       5.000  90.023 117.010  0.00  0.00     0.038 C 
ATOM      4  C   LIG d   1       5.752  89.936 115.829  0.00  0.00     0.028 C 
ATOM      5  C   LIG d   1       5.429  88.700 114.996  0.00  0.00    -0.047 C 
ATOM      6  C   LIG d   1       3.900  88.620 114.787  0.00  0.00     0.091 C 
ENDROOT
BRANCH   1   7
ATOM      7  O   LIG d   1       1.764  89.007 115.923  0.00  0.00    -0.368 OA
BRANCH   7   8
ATOM      8  C   LIG d   1       0.993  89.287 117.118  0.00  0.00     0.119 C 
BRANCH   8   9
ATOM      9  C   LIG d   1      -0.025  88.143 117.290  0.00  0.00     0.028 C 
ATOM     10  C   LIG d   1      -1.298  88.596 118.025  0.00  0.00     0.006 C 
ENDBRANCH   8   9
BRANCH   8  11
ATOM     11  C   LIG d   1       0.152  90.557 116.953  0.00  0.00     0.028 C 
ATOM     12  C   LIG d   1       0.792  91.785 117.619  0.00  0.00     0.006 C 
ENDBRANCH   8  11
ENDBRANCH   7   8
ENDBRANCH   1   7
BRANCH   6  13
ATOM     13  N   LIG d   1       3.491  87.394 114.053  0.00  0.00    -0.311 N 
ATOM     14  C   LIG d   1       2.636  87.402 113.032  0.00  0.00     0.210 C 
ATOM     15  C   LIG d   1       2.335  86.026 112.430  0.00  0.00     0.109 C 
ATOM     16  O   LIG d   1       2.122  88.421 112.548  0.00  0.00    -0.276 OA
ATOM     17  H   LIG d   1       3.885  86.526 114.360  0.00  0.00     0.149 HD
ENDBRANCH   6  13
BRANCH   5  18
ATOM     18  N   LIG d   1       6.181  88.807 113.731  0.00  0.00     0.381 N 
ATOM     19  H   LIG d   1       7.163  88.751 113.915  0.00  0.00    -0.090 HD
ATOM     20  H   LIG d   1       5.988  89.700 113.313  0.00  0.00    -0.090 HD
ATOM     21  H   LIG d   1       5.910  88.076 113.111  0.00  0.00    -0.090 HD
ENDBRANCH   5  18
BRANCH   3  22
ATOM     22  C   LIG d   1       5.567  90.656 118.106  0.00  0.00     0.382 C 
ATOM     23  O   LIG d   1       6.720  91.144 118.021  0.00  0.00    -0.241 OA
ATOM     24  O   LIG d   1       4.959  90.706 119.192  0.00  0.00    -0.241 OA
ENDBRANCH   3  22
TORSDOF 7
ENDMDL
MODEL 7
REMARK VINA RESULT:      -4.0      3.457      5.708
REMARK  7 active torsions:
REMARK  status: ('A' for Active; 'I' for Inactive)
REMARK    1  A    between atoms: C_2  and  C_3 
REMARK    2  A    between atoms: C_3  and  O_6 
REMARK    3  A    between atoms: C_3  and  C_4 
REMARK    4  A    between atoms: C_7  and  O_6 
REMARK    5  A    between atoms: C_9  and  C_10 
REMARK    6  A    between atoms: N_15  and  C_14 
REMARK    7  A    between atoms: N_20  and  C_19 
REMARK       I    between atoms: C_22  and  N_20 
ROOT
ATOM      1  C   LIG d   1       2.758  89.689 116.342  0.00  0.00     0.161 C 
ATOM      2  C   LIG d   1       2.421  88.933 115.207  0.00  0.00     0.016 C 
ATOM      3  C   LIG d   1       3.376  88.439 114.289  0.00  0.00     0.038 C 
ATOM      4  C   LIG d   1       4.755  88.539 114.528  0.00  0.00     0.028 C 
ATOM      5  C   LIG d   1       5.133  89.732 115.400  0.00  0.00    -0.047 C 
ATOM      6  C   LIG d   1       4.263  89.714 116.678  0.00  0.00     0.091 C 
ENDROOT
BRANCH   1   7
ATOM      7  O   LIG d   1       1.998  89.231 117.478  0.00  0.00    -0.368 OA
BRANCH   7   8
ATOM      8  C   LIG d   1       0.940  90.110 117.933  0.00  0.00     0.119 C 
BRANCH   8   9
ATOM      9  C   LIG d   1      -0.395  89.522 117.438  0.00  0.00     0.028 C 
ATOM     10  C   LIG d   1      -0.455  87.992 117.587  0.00  0.00     0.006 C 
ENDBRANCH   8   9
BRANCH   8  11
ATOM     11  C   LIG d   1       1.042  91.491 117.280  0.00  0.00     0.028 C 
ATOM     12  C   LIG d   1       0.146  92.539 117.958  0.00  0.00     0.006 C 
ENDBRANCH   8  11
ENDBRANCH   7   8
ENDBRANCH   1   7
BRANCH   6  13
ATOM     13  N   LIG d   1       4.510  90.894 117.548  0.00  0.00    -0.311 N 
ATOM     14  C   LIG d   1       5.389  90.896 118.549  0.00  0.00     0.210 C 
ATOM     15  C   LIG d   1       5.473  92.210 119.333  0.00  0.00     0.109 C 
ATOM     16  O   LIG d   1       6.129  89.945 118.842  0.00  0.00    -0.276 OA
ATOM     17  H   LIG d   1       3.975  91.719 117.360  0.00  0.00     0.149 HD
ENDBRANCH   6  13
BRANCH   5  18
ATOM     18  N   LIG d   1       6.578  89.637 115.682  0.00  0.00     0.381 N 
ATOM     19  H   LIG d   1       6.727  89.588 116.670  0.00  0.00    -0.090 HD
ATOM     20  H   LIG d   1       7.031  90.464 115.336  0.00  0.00    -0.090 HD
ATOM     21  H   LIG d   1       6.959  88.830 115.241  0.00  0.00    -0.090 HD
ENDBRANCH   5  18
BRANCH   3  22
ATOM     22  C   LIG d   1       2.954  87.870 113.097  0.00  0.00     0.382 C 
ATOM     23  O   LIG d   1       3.518  86.837 112.661  0.00  0.00    -0.241 OA
ATOM     24  O   LIG d   1       2.046  88.401 112.430  0.00  0.00    -0.241 OA
ENDBRANCH   3  22
TORSDOF 7
ENDMDL
MODEL 8
REMARK VINA RESULT:      -4.0      4.237      7.117
REMARK  7 active torsions:
REMARK  status: ('A' for Active; 'I' for Inactive)
REMARK    1  A    between atoms: C_2  and  C_3 
REMARK    2  A    between atoms: C_3  and  O_6 
REMARK    3  A    between atoms: C_3  and  C_4 
REMARK    4  A    between atoms: C_7  and  O_6 
REMARK    5  A    between atoms: C_9  and  C_10 
REMARK    6  A    between atoms: N_15  and  C_14 
REMARK    7  A    between atoms: N_20  and  C_19 
REMARK       I    between atoms: C_22  and  N_20 
ROOT
ATOM      1  C   LIG d   1       4.809  89.958 115.585  0.00  0.00     0.161 C 
ATOM      2  C   LIG d   1       3.816  89.154 115.002  0.00  0.00     0.016 C 
ATOM      3  C   LIG d   1       3.828  87.741 115.056  0.00  0.00     0.038 C 
ATOM      4  C   LIG d   1       4.761  87.037 115.832  0.00  0.00     0.028 C 
ATOM      5  C   LIG d   1       6.077  87.784 116.023  0.00  0.00    -0.047 C 
ATOM      6  C   LIG d   1       5.774  89.212 116.529  0.00  0.00     0.091 C 
ENDROOT
BRANCH   1   7
ATOM      7  O   LIG d   1       4.197  91.070 116.269  0.00  0.00    -0.368 OA
BRANCH   7   8
ATOM      8  C   LIG d   1       3.470  90.751 117.480  0.00  0.00     0.119 C 
BRANCH   8   9
ATOM      9  C   LIG d   1       2.059  91.356 117.346  0.00  0.00     0.028 C 
ATOM     10  C   LIG d   1       1.009  90.311 116.931  0.00  0.00     0.006 C 
ENDBRANCH   8   9
BRANCH   8  11
ATOM     11  C   LIG d   1       4.091  91.437 118.700  0.00  0.00     0.028 C 
ATOM     12  C   LIG d   1       3.063  91.736 119.803  0.00  0.00     0.006 C 
ENDBRANCH   8  11
ENDBRANCH   7   8
ENDBRANCH   1   7
BRANCH   6  13
ATOM     13  N   LIG d   1       7.002  90.039 116.662  0.00  0.00    -0.311 N 
ATOM     14  C   LIG d   1       7.677  90.171 117.803  0.00  0.00     0.210 C 
ATOM     15  C   LIG d   1       8.903  91.086 117.726  0.00  0.00     0.109 C 
ATOM     16  O   LIG d   1       7.395  89.592 118.863  0.00  0.00    -0.276 OA
ATOM     17  H   LIG d   1       7.319  90.519 115.843  0.00  0.00     0.149 HD
ENDBRANCH   6  13
BRANCH   5  18
ATOM     18  N   LIG d   1       6.902  87.000 116.961  0.00  0.00     0.381 N 
ATOM     19  H   LIG d   1       7.739  87.504 117.179  0.00  0.00    -0.090 HD
ATOM     20  H   LIG d   1       7.161  86.134 116.522  0.00  0.00    -0.090 HD
ATOM     21  H   LIG d   1       6.389  86.817 117.795  0.00  0.00    -0.090 HD
ENDBRANCH   5  18
BRANCH   3  22
ATOM     22  C   LIG d   1       2.923  87.016 114.296  0.00  0.00     0.382 C 
ATOM     23  O   LIG d   1       2.173  87.607 113.481  0.00  0.00    -0.241 OA
ATOM     24  O   LIG d   1       2.815  85.784 114.446  0.00  0.00    -0.241 OA
ENDBRANCH   3  22
TORSDOF 7
ENDMDL
MODEL 9
REMARK VINA RESULT:      -4.0      3.670      6.541
REMARK  7 active torsions:
REMARK  status: ('A' for Active; 'I' for Inactive)
REMARK    1  A    between atoms: C_2  and  C_3 
REMARK    2  A    between atoms: C_3  and  O_6 
REMARK    3  A    between atoms: C_3  and  C_4 
REMARK    4  A    between atoms: C_7  and  O_6 
REMARK    5  A    between atoms: C_9  and  C_10 
REMARK    6  A    between atoms: N_15  and  C_14 
REMARK    7  A    between atoms: N_20  and  C_19 
REMARK       I    between atoms: C_22  and  N_20 
ROOT
ATOM      1  C   LIG d   1       3.478  89.637 116.138  0.00  0.00     0.161 C 
ATOM      2  C   LIG d   1       2.301  90.381 116.323  0.00  0.00     0.016 C 
ATOM      3  C   LIG d   1       2.073  91.208 117.448  0.00  0.00     0.038 C 
ATOM      4  C   LIG d   1       3.075  91.466 118.394  0.00  0.00     0.028 C 
ATOM      5  C   LIG d   1       4.098  90.341 118.514  0.00  0.00    -0.047 C 
ATOM      6  C   LIG d   1       4.627  89.992 117.104  0.00  0.00     0.091 C 
ENDROOT
BRANCH   1   7
ATOM      7  O   LIG d   1       3.919  89.753 114.770  0.00  0.00    -0.368 OA
BRANCH   7   8
ATOM      8  C   LIG d   1       3.686  88.600 113.925  0.00  0.00     0.119 C 
BRANCH   8   9
ATOM      9  C   LIG d   1       3.537  87.374 114.846  0.00  0.00     0.028 C 
ATOM     10  C   LIG d   1       4.269  86.137 114.298  0.00  0.00     0.006 C 
ENDBRANCH   8   9
BRANCH   8  11
ATOM     11  C   LIG d   1       4.902  88.301 113.043  0.00  0.00     0.028 C 
ATOM     12  C   LIG d   1       6.112  89.188 113.375  0.00  0.00     0.006 C 
ENDBRANCH   8  11
ENDBRANCH   7   8
ENDBRANCH   1   7
BRANCH   6  13
ATOM     13  N   LIG d   1       5.571  88.844 117.121  0.00  0.00    -0.311 N 
ATOM     14  C   LIG d   1       6.892  88.982 117.226  0.00  0.00     0.210 C 
ATOM     15  C   LIG d   1       7.683  87.671 117.204  0.00  0.00     0.109 C 
ATOM     16  O   LIG d   1       7.480  90.064 117.368  0.00  0.00    -0.276 OA
ATOM     17  H   LIG d   1       5.176  87.927 117.043  0.00  0.00     0.149 HD
ENDBRANCH   6  13
BRANCH   5  18
ATOM     18  N   LIG d   1       5.159  90.799 119.432  0.00  0.00     0.381 N 
ATOM     19  H   LIG d   1       5.738  90.027 119.693  0.00  0.00    -0.090 HD
ATOM     20  H   LIG d   1       4.732  91.169 120.263  0.00  0.00    -0.090 HD
ATOM     21  H   LIG d   1       5.710  91.503 118.992  0.00  0.00    -0.090 HD
ENDBRANCH   5  18
BRANCH   3  22
ATOM     22  C   LIG d   1       0.816  91.756 117.654  0.00  0.00     0.382 C 
ATOM     23  O   LIG d   1       0.701  92.970 117.947  0.00  0.00    -0.241 OA
ATOM     24  O   LIG d   1      -0.203  91.041 117.594  0.00  0.00    -0.241 OA
ENDBRANCH   3  22
TORSDOF 7
ENDMDL
