MODEL 1
REMARK VINA RESULT:      -4.7      0.000      0.000
REMARK  7 active torsions:
REMARK  status: ('A' for Active; 'I' for Inactive)
REMARK    1  A    between atoms: C_2  and  C_3 
REMARK    2  A    between atoms: C_3  and  O_6 
REMARK    3  A    between atoms: C_3  and  C_4 
REMARK    4  A    between atoms: C_7  and  O_6 
REMARK    5  A    between atoms: C_9  and  C_10 
REMARK    6  A    between atoms: N_15  and  C_14 
REMARK    7  A    between atoms: N_20  and  C_19 
REMARK       I    between atoms: C_22  and  N_20 
ROOT
ATOM      1  C   LIG d   1       1.525  88.193 116.329  0.00  0.00     0.161 C 
ATOM      2  C   LIG d   1       0.165  88.081 116.662  0.00  0.00     0.016 C 
ATOM      3  C   LIG d   1      -0.576  89.121 117.268  0.00  0.00     0.038 C 
ATOM      4  C   LIG d   1      -0.041  90.406 117.447  0.00  0.00     0.028 C 
ATOM      5  C   LIG d   1       1.477  90.415 117.589  0.00  0.00    -0.047 C 
ATOM      6  C   LIG d   1       2.097  89.624 116.415  0.00  0.00     0.091 C 
ENDROOT
BRANCH   1   7
ATOM      7  O   LIG d   1       1.755  87.639 115.019  0.00  0.00    -0.368 OA
BRANCH   7   8
ATOM      8  C   LIG d   1       2.043  86.220 114.968  0.00  0.00     0.119 C 
BRANCH   8   9
ATOM      9  C   LIG d   1       3.367  85.989 115.722  0.00  0.00     0.028 C 
ATOM     10  C   LIG d   1       4.583  85.965 114.781  0.00  0.00     0.006 C 
ENDBRANCH   8   9
BRANCH   8  11
ATOM     11  C   LIG d   1       2.308  85.756 113.532  0.00  0.00     0.028 C 
ATOM     12  C   LIG d   1       1.017  85.444 112.759  0.00  0.00     0.006 C 
ENDBRANCH   8  11
ENDBRANCH   7   8
ENDBRANCH   1   7
BRANCH   6  13
ATOM     13  N   LIG d   1       3.575  89.512 116.523  0.00  0.00    -0.311 N 
ATOM     14  C   LIG d   1       4.397  89.633 115.482  0.00  0.00     0.210 C 
ATOM     15  C   LIG d   1       5.884  89.464 115.810  0.00  0.00     0.109 C 
ATOM     16  O   LIG d   1       4.039  89.896 114.324  0.00  0.00    -0.276 OA
ATOM     17  H   LIG d   1       3.953  89.330 117.432  0.00  0.00     0.149 HD
ENDBRANCH   6  13
BRANCH   5  18
ATOM     18  N   LIG d   1       1.913  91.824 117.630  0.00  0.00     0.381 N 
ATOM     19  H   LIG d   1       1.217  92.406 117.207  0.00  0.00    -0.090 HD
ATOM     20  H   LIG d   1       2.763  91.917 117.103  0.00  0.00    -0.090 HD
ATOM     21  H   LIG d   1       2.064  92.107 118.573  0.00  0.00    -0.090 HD
ENDBRANCH   5  18
BRANCH   3  22
ATOM     22  C   LIG d   1      -1.855  88.869 117.740  0.00  0.00     0.382 C 
ATOM     23  O   LIG d   1      -2.014  88.275 118.833  0.00  0.00    -0.241 OA
ATOM     24  O   LIG d   1      -2.852  89.189 117.065  0.00  0.00    -0.241 OA
ENDBRANCH   3  22
TORSDOF 7
ENDMDL
MODEL 2
REMARK VINA RESULT:      -4.6      2.618      5.522
REMARK  7 active torsions:
REMARK  status: ('A' for Active; 'I' for Inactive)
REMARK    1  A    between atoms: C_2  and  C_3 
REMARK    2  A    between atoms: C_3  and  O_6 
REMARK    3  A    between atoms: C_3  and  C_4 
REMARK    4  A    between atoms: C_7  and  O_6 
REMARK    5  A    between atoms: C_9  and  C_10 
REMARK    6  A    between atoms: N_15  and  C_14 
REMARK    7  A    between atoms: N_20  and  C_19 
REMARK       I    between atoms: C_22  and  N_20 
ROOT
ATOM      1  C   LIG d   1       3.099  89.497 116.605  0.00  0.00     0.161 C 
ATOM      2  C   LIG d   1       3.062  88.932 115.319  0.00  0.00     0.016 C 
ATOM      3  C   LIG d   1       4.210  88.761 114.511  0.00  0.00     0.038 C 
ATOM      4  C   LIG d   1       5.502  89.007 114.998  0.00  0.00     0.028 C 
ATOM      5  C   LIG d   1       5.543  90.051 116.108  0.00  0.00    -0.047 C 
ATOM      6  C   LIG d   1       4.514  89.668 117.195  0.00  0.00     0.091 C 
ENDROOT
BRANCH   1   7
ATOM      7  O   LIG d   1       2.272  88.728 117.500  0.00  0.00    -0.368 OA
BRANCH   7   8
ATOM      8  C   LIG d   1       0.984  89.303 117.830  0.00  0.00     0.119 C 
BRANCH   8   9
ATOM      9  C   LIG d   1      -0.088  88.512 117.056  0.00  0.00     0.028 C 
ATOM     10  C   LIG d   1      -1.516  88.864 117.506  0.00  0.00     0.006 C 
ENDBRANCH   8   9
BRANCH   8  11
ATOM     11  C   LIG d   1       0.871  90.744 117.324  0.00  0.00     0.028 C 
ATOM     12  C   LIG d   1       0.572  91.749 118.447  0.00  0.00     0.006 C 
ENDBRANCH   8  11
ENDBRANCH   7   8
ENDBRANCH   1   7
BRANCH   6  13
ATOM     13  N   LIG d   1       4.429  90.683 118.278  0.00  0.00    -0.311 N 
ATOM     14  C   LIG d   1       4.184  91.973 118.056  0.00  0.00     0.210 C 
ATOM     15  C   LIG d   1       4.159  92.852 119.311  0.00  0.00     0.109 C 
ATOM     16  O   LIG d   1       3.952  92.468 116.943  0.00  0.00    -0.276 OA
ATOM     17  H   LIG d   1       4.574  90.363 119.216  0.00  0.00     0.149 HD
ENDBRANCH   6  13
BRANCH   5  18
ATOM     18  N   LIG d   1       6.927  90.108 116.615  0.00  0.00     0.381 N 
ATOM     19  H   LIG d   1       7.400  90.897 116.222  0.00  0.00    -0.090 HD
ATOM     20  H   LIG d   1       7.412  89.276 116.331  0.00  0.00    -0.090 HD
ATOM     21  H   LIG d   1       6.923  90.176 117.609  0.00  0.00    -0.090 HD
ENDBRANCH   5  18
BRANCH   3  22
ATOM     22  C   LIG d   1       4.067  88.377 113.186  0.00  0.00     0.382 C 
ATOM     23  O   LIG d   1       5.079  88.085 112.505  0.00  0.00    -0.241 OA
ATOM     24  O   LIG d   1       2.942  88.361 112.651  0.00  0.00    -0.241 OA
ENDBRANCH   3  22
TORSDOF 7
ENDMDL
MODEL 3
REMARK VINA RESULT:      -4.6      6.736      9.580
REMARK  7 active torsions:
REMARK  status: ('A' for Active; 'I' for Inactive)
REMARK    1  A    between atoms: C_2  and  C_3 
REMARK    2  A    between atoms: C_3  and  O_6 
REMARK    3  A    between atoms: C_3  and  C_4 
REMARK    4  A    between atoms: C_7  and  O_6 
REMARK    5  A    between atoms: C_9  and  C_10 
REMARK    6  A    between atoms: N_15  and  C_14 
REMARK    7  A    between atoms: N_20  and  C_19 
REMARK       I    between atoms: C_22  and  N_20 
ROOT
ATOM      1  C   LIG d   1      -5.708  91.839 118.139  0.00  0.00     0.161 C 
ATOM      2  C   LIG d   1      -6.598  91.833 117.052  0.00  0.00     0.016 C 
ATOM      3  C   LIG d   1      -6.412  91.037 115.898  0.00  0.00     0.038 C 
ATOM      4  C   LIG d   1      -5.396  90.073 115.819  0.00  0.00     0.028 C 
ATOM      5  C   LIG d   1      -4.181  90.401 116.679  0.00  0.00    -0.047 C 
ATOM      6  C   LIG d   1      -4.654  90.712 118.118  0.00  0.00     0.091 C 
ENDROOT
BRANCH   1   7
ATOM      7  O   LIG d   1      -6.447  91.811 119.376  0.00  0.00    -0.368 OA
BRANCH   7   8
ATOM      8  C   LIG d   1      -6.812  93.099 119.929  0.00  0.00     0.119 C 
BRANCH   8   9
ATOM      9  C   LIG d   1      -7.996  93.639 119.103  0.00  0.00     0.028 C 
ATOM     10  C   LIG d   1      -9.323  93.589 119.878  0.00  0.00     0.006 C 
ENDBRANCH   8   9
BRANCH   8  11
ATOM     11  C   LIG d   1      -5.689  94.124 119.746  0.00  0.00     0.028 C 
ATOM     12  C   LIG d   1      -6.211  95.562 119.602  0.00  0.00     0.006 C 
ENDBRANCH   8  11
ENDBRANCH   7   8
ENDBRANCH   1   7
BRANCH   6  13
ATOM     13  N   LIG d   1      -3.536  91.126 119.005  0.00  0.00    -0.311 N 
ATOM     14  C   LIG d   1      -2.718  92.140 118.729  0.00  0.00     0.210 C 
ATOM     15  C   LIG d   1      -1.619  92.385 119.768  0.00  0.00     0.109 C 
ATOM     16  O   LIG d   1      -2.817  92.880 117.739  0.00  0.00    -0.276 OA
ATOM     17  H   LIG d   1      -3.402  90.599 119.846  0.00  0.00     0.149 HD
ENDBRANCH   6  13
BRANCH   5  18
ATOM     18  N   LIG d   1      -3.261  89.250 116.610  0.00  0.00     0.381 N 
ATOM     19  H   LIG d   1      -2.338  89.538 116.866  0.00  0.00    -0.090 HD
ATOM     20  H   LIG d   1      -3.235  88.911 115.664  0.00  0.00    -0.090 HD
ATOM     21  H   LIG d   1      -3.573  88.527 117.220  0.00  0.00    -0.090 HD
ENDBRANCH   5  18
BRANCH   3  22
ATOM     22  C   LIG d   1      -7.225  91.229 114.792  0.00  0.00     0.382 C 
ATOM     23  O   LIG d   1      -8.282  90.564 114.667  0.00  0.00    -0.241 OA
ATOM     24  O   LIG d   1      -6.894  92.028 113.895  0.00  0.00    -0.241 OA
ENDBRANCH   3  22
TORSDOF 7
ENDMDL
MODEL 4
REMARK VINA RESULT:      -4.6      1.556      1.939
REMARK  7 active torsions:
REMARK  status: ('A' for Active; 'I' for Inactive)
REMARK    1  A    between atoms: C_2  and  C_3 
REMARK    2  A    between atoms: C_3  and  O_6 
REMARK    3  A    between atoms: C_3  and  C_4 
REMARK    4  A    between atoms: C_7  and  O_6 
REMARK    5  A    between atoms: C_9  and  C_10 
REMARK    6  A    between atoms: N_15  and  C_14 
REMARK    7  A    between atoms: N_20  and  C_19 
REMARK       I    between atoms: C_22  and  N_20 
ROOT
ATOM      1  C   LIG d   1       1.150  88.926 116.867  0.00  0.00     0.161 C 
ATOM      2  C   LIG d   1      -0.229  88.661 116.911  0.00  0.00     0.016 C 
ATOM      3  C   LIG d   1      -1.165  89.506 117.550  0.00  0.00     0.038 C 
ATOM      4  C   LIG d   1      -0.801  90.761 118.062  0.00  0.00     0.028 C 
ATOM      5  C   LIG d   1       0.661  90.841 118.487  0.00  0.00    -0.047 C 
ATOM      6  C   LIG d   1       1.550  90.345 117.324  0.00  0.00     0.091 C 
ENDROOT
BRANCH   1   7
ATOM      7  O   LIG d   1       1.656  88.664 115.544  0.00  0.00    -0.368 OA
BRANCH   7   8
ATOM      8  C   LIG d   1       2.606  87.576 115.428  0.00  0.00     0.119 C 
BRANCH   8   9
ATOM      9  C   LIG d   1       3.547  87.905 114.253  0.00  0.00     0.028 C 
ATOM     10  C   LIG d   1       4.234  89.272 114.416  0.00  0.00     0.006 C 
ENDBRANCH   8   9
BRANCH   8  11
ATOM     11  C   LIG d   1       1.911  86.269 115.038  0.00  0.00     0.028 C 
ATOM     12  C   LIG d   1       2.127  85.897 113.562  0.00  0.00     0.006 C 
ENDBRANCH   8  11
ENDBRANCH   7   8
ENDBRANCH   1   7
BRANCH   6  13
ATOM     13  N   LIG d   1       2.991  90.311 117.686  0.00  0.00    -0.311 N 
ATOM     14  C   LIG d   1       3.832  91.315 117.442  0.00  0.00     0.210 C 
ATOM     15  C   LIG d   1       5.279  91.067 117.879  0.00  0.00     0.109 C 
ATOM     16  O   LIG d   1       3.510  92.400 116.936  0.00  0.00    -0.276 OA
ATOM     17  H   LIG d   1       3.330  89.480 118.129  0.00  0.00     0.149 HD
ENDBRANCH   6  13
BRANCH   5  18
ATOM     18  N   LIG d   1       0.938  92.238 118.871  0.00  0.00     0.381 N 
ATOM     19  H   LIG d   1       0.550  92.425 119.774  0.00  0.00    -0.090 HD
ATOM     20  H   LIG d   1       0.498  92.851 118.206  0.00  0.00    -0.090 HD
ATOM     21  H   LIG d   1       1.921  92.400 118.883  0.00  0.00    -0.090 HD
ENDBRANCH   5  18
BRANCH   3  22
ATOM     22  C   LIG d   1      -2.474  89.081 117.716  0.00  0.00     0.382 C 
ATOM     23  O   LIG d   1      -3.327  89.313 116.826  0.00  0.00    -0.241 OA
ATOM     24  O   LIG d   1      -2.823  88.507 118.766  0.00  0.00    -0.241 OA
ENDBRANCH   3  22
TORSDOF 7
ENDMDL
MODEL 5
REMARK VINA RESULT:      -4.5      2.617      5.270
REMARK  7 active torsions:
REMARK  status: ('A' for Active; 'I' for Inactive)
REMARK    1  A    between atoms: C_2  and  C_3 
REMARK    2  A    between atoms: C_3  and  O_6 
REMARK    3  A    between atoms: C_3  and  C_4 
REMARK    4  A    between atoms: C_7  and  O_6 
REMARK    5  A    between atoms: C_9  and  C_10 
REMARK    6  A    between atoms: N_15  and  C_14 
REMARK    7  A    between atoms: N_20  and  C_19 
REMARK       I    between atoms: C_22  and  N_20 
ROOT
ATOM      1  C   LIG d   1       3.294  89.864 116.588  0.00  0.00     0.161 C 
ATOM      2  C   LIG d   1       3.219  89.274 115.315  0.00  0.00     0.016 C 
ATOM      3  C   LIG d   1       4.357  88.914 114.556  0.00  0.00     0.038 C 
ATOM      4  C   LIG d   1       5.654  88.983 115.086  0.00  0.00     0.028 C 
ATOM      5  C   LIG d   1       5.809  90.042 116.173  0.00  0.00    -0.047 C 
ATOM      6  C   LIG d   1       4.697  89.844 117.228  0.00  0.00     0.091 C 
ENDROOT
BRANCH   1   7
ATOM      7  O   LIG d   1       2.332  89.249 117.468  0.00  0.00    -0.368 OA
BRANCH   7   8
ATOM      8  C   LIG d   1       1.152  88.695 116.836  0.00  0.00     0.119 C 
BRANCH   8   9
ATOM      9  C   LIG d   1      -0.027  89.636 117.150  0.00  0.00     0.028 C 
ATOM     10  C   LIG d   1      -1.338  88.872 117.397  0.00  0.00     0.006 C 
ENDBRANCH   8   9
BRANCH   8  11
ATOM     11  C   LIG d   1       0.770  87.347 117.454  0.00  0.00     0.028 C 
ATOM     12  C   LIG d   1       1.807  86.247 117.173  0.00  0.00     0.006 C 
ENDBRANCH   8  11
ENDBRANCH   7   8
ENDBRANCH   1   7
BRANCH   6  13
ATOM     13  N   LIG d   1       4.724  90.891 118.283  0.00  0.00    -0.311 N 
ATOM     14  C   LIG d   1       4.397  92.163 118.062  0.00  0.00     0.210 C 
ATOM     15  C   LIG d   1       4.513  93.082 119.283  0.00  0.00     0.109 C 
ATOM     16  O   LIG d   1       3.991  92.611 116.980  0.00  0.00    -0.276 OA
ATOM     17  H   LIG d   1       5.012  90.608 119.199  0.00  0.00     0.149 HD
ENDBRANCH   6  13
BRANCH   5  18
ATOM     18  N   LIG d   1       7.167  89.912 116.732  0.00  0.00     0.381 N 
ATOM     19  H   LIG d   1       7.708  89.289 116.166  0.00  0.00    -0.090 HD
ATOM     20  H   LIG d   1       7.102  89.522 117.656  0.00  0.00    -0.090 HD
ATOM     21  H   LIG d   1       7.608  90.805 116.770  0.00  0.00    -0.090 HD
ENDBRANCH   5  18
BRANCH   3  22
ATOM     22  C   LIG d   1       4.205  88.517 113.236  0.00  0.00     0.382 C 
ATOM     23  O   LIG d   1       3.058  88.420 112.739  0.00  0.00    -0.241 OA
ATOM     24  O   LIG d   1       5.199  88.212 112.550  0.00  0.00    -0.241 OA
ENDBRANCH   3  22
TORSDOF 7
ENDMDL
MODEL 6
REMARK VINA RESULT:      -4.4      4.425      7.417
REMARK  7 active torsions:
REMARK  status: ('A' for Active; 'I' for Inactive)
REMARK    1  A    between atoms: C_2  and  C_3 
REMARK    2  A    between atoms: C_3  and  O_6 
REMARK    3  A    between atoms: C_3  and  C_4 
REMARK    4  A    between atoms: C_7  and  O_6 
REMARK    5  A    between atoms: C_9  and  C_10 
REMARK    6  A    between atoms: N_15  and  C_14 
REMARK    7  A    between atoms: N_20  and  C_19 
REMARK       I    between atoms: C_22  and  N_20 
ROOT
ATOM      1  C   LIG d   1      -3.614  91.357 119.232  0.00  0.00     0.161 C 
ATOM      2  C   LIG d   1      -4.014  92.700 119.330  0.00  0.00     0.016 C 
ATOM      3  C   LIG d   1      -3.162  93.790 119.037  0.00  0.00     0.038 C 
ATOM      4  C   LIG d   1      -1.889  93.605 118.476  0.00  0.00     0.028 C 
ATOM      5  C   LIG d   1      -1.258  92.264 118.833  0.00  0.00    -0.047 C 
ATOM      6  C   LIG d   1      -2.265  91.135 118.515  0.00  0.00     0.091 C 
ENDROOT
BRANCH   1   7
ATOM      7  O   LIG d   1      -4.651  90.584 118.597  0.00  0.00    -0.368 OA
BRANCH   7   8
ATOM      8  C   LIG d   1      -5.127  91.080 117.322  0.00  0.00     0.119 C 
BRANCH   8   9
ATOM      9  C   LIG d   1      -6.668  91.066 117.366  0.00  0.00     0.028 C 
ATOM     10  C   LIG d   1      -7.263  92.476 117.521  0.00  0.00     0.006 C 
ENDBRANCH   8   9
BRANCH   8  11
ATOM     11  C   LIG d   1      -4.746  90.135 116.179  0.00  0.00     0.028 C 
ATOM     12  C   LIG d   1      -5.843  90.021 115.109  0.00  0.00     0.006 C 
ENDBRANCH   8  11
ENDBRANCH   7   8
ENDBRANCH   1   7
BRANCH   6  13
ATOM     13  N   LIG d   1      -1.760  89.796 118.914  0.00  0.00    -0.311 N 
ATOM     14  C   LIG d   1      -1.072  88.999 118.097  0.00  0.00     0.210 C 
ATOM     15  C   LIG d   1      -0.663  87.652 118.701  0.00  0.00     0.109 C 
ATOM     16  O   LIG d   1      -0.736  89.293 116.940  0.00  0.00    -0.276 OA
ATOM     17  H   LIG d   1      -1.961  89.491 119.846  0.00  0.00     0.149 HD
ENDBRANCH   6  13
BRANCH   5  18
ATOM     18  N   LIG d   1       0.001  92.147 118.073  0.00  0.00     0.381 N 
ATOM     19  H   LIG d   1       0.295  93.052 117.764  0.00  0.00    -0.090 HD
ATOM     20  H   LIG d   1      -0.160  91.573 117.264  0.00  0.00    -0.090 HD
ATOM     21  H   LIG d   1       0.707  91.738 118.645  0.00  0.00    -0.090 HD
ENDBRANCH   5  18
BRANCH   3  22
ATOM     22  C   LIG d   1      -3.566  95.080 119.342  0.00  0.00     0.382 C 
ATOM     23  O   LIG d   1      -4.759  95.304 119.662  0.00  0.00    -0.241 OA
ATOM     24  O   LIG d   1      -2.765  96.030 119.259  0.00  0.00    -0.241 OA
ENDBRANCH   3  22
TORSDOF 7
ENDMDL
MODEL 7
REMARK VINA RESULT:      -4.4      5.347      8.046
REMARK  7 active torsions:
REMARK  status: ('A' for Active; 'I' for Inactive)
REMARK    1  A    between atoms: C_2  and  C_3 
REMARK    2  A    between atoms: C_3  and  O_6 
REMARK    3  A    between atoms: C_3  and  C_4 
REMARK    4  A    between atoms: C_7  and  O_6 
REMARK    5  A    between atoms: C_9  and  C_10 
REMARK    6  A    between atoms: N_15  and  C_14 
REMARK    7  A    between atoms: N_20  and  C_19 
REMARK       I    between atoms: C_22  and  N_20 
ROOT
ATOM      1  C   LIG d   1      -4.368  91.058 117.705  0.00  0.00     0.161 C 
ATOM      2  C   LIG d   1      -3.403  91.951 118.200  0.00  0.00     0.016 C 
ATOM      3  C   LIG d   1      -3.707  93.021 119.072  0.00  0.00     0.038 C 
ATOM      4  C   LIG d   1      -4.983  93.181 119.633  0.00  0.00     0.028 C 
ATOM      5  C   LIG d   1      -6.101  92.606 118.769  0.00  0.00    -0.047 C 
ATOM      6  C   LIG d   1      -5.746  91.149 118.394  0.00  0.00     0.091 C 
ENDROOT
BRANCH   1   7
ATOM      7  O   LIG d   1      -3.864  89.709 117.769  0.00  0.00    -0.368 OA
BRANCH   7   8
ATOM      8  C   LIG d   1      -2.600  89.533 118.455  0.00  0.00     0.119 C 
BRANCH   8   9
ATOM      9  C   LIG d   1      -1.627  88.861 117.466  0.00  0.00     0.028 C 
ATOM     10  C   LIG d   1      -0.430  89.762 117.118  0.00  0.00     0.006 C 
ENDBRANCH   8   9
BRANCH   8  11
ATOM     11  C   LIG d   1      -2.732  88.552 119.623  0.00  0.00     0.028 C 
ATOM     12  C   LIG d   1      -1.735  87.385 119.537  0.00  0.00     0.006 C 
ENDBRANCH   8  11
ENDBRANCH   7   8
ENDBRANCH   1   7
BRANCH   6  13
ATOM     13  N   LIG d   1      -6.747  90.540 117.479  0.00  0.00    -0.311 N 
ATOM     14  C   LIG d   1      -6.790  90.785 116.171  0.00  0.00     0.210 C 
ATOM     15  C   LIG d   1      -7.913  90.070 115.415  0.00  0.00     0.109 C 
ATOM     16  O   LIG d   1      -5.984  91.503 115.559  0.00  0.00    -0.276 OA
ATOM     17  H   LIG d   1      -7.419  89.920 117.887  0.00  0.00     0.149 HD
ENDBRANCH   6  13
BRANCH   5  18
ATOM     18  N   LIG d   1      -7.357  92.717 119.534  0.00  0.00     0.381 N 
ATOM     19  H   LIG d   1      -7.702  93.654 119.485  0.00  0.00    -0.090 HD
ATOM     20  H   LIG d   1      -7.172  92.499 120.497  0.00  0.00    -0.090 HD
ATOM     21  H   LIG d   1      -8.036  92.086 119.168  0.00  0.00    -0.090 HD
ENDBRANCH   5  18
BRANCH   3  22
ATOM     22  C   LIG d   1      -2.738  93.970 119.361  0.00  0.00     0.382 C 
ATOM     23  O   LIG d   1      -3.077  95.119 119.734  0.00  0.00    -0.241 OA
ATOM     24  O   LIG d   1      -1.530  93.705 119.210  0.00  0.00    -0.241 OA
ENDBRANCH   3  22
TORSDOF 7
ENDMDL
MODEL 8
REMARK VINA RESULT:      -4.4      6.824     10.085
REMARK  7 active torsions:
REMARK  status: ('A' for Active; 'I' for Inactive)
REMARK    1  A    between atoms: C_2  and  C_3 
REMARK    2  A    between atoms: C_3  and  O_6 
REMARK    3  A    between atoms: C_3  and  C_4 
REMARK    4  A    between atoms: C_7  and  O_6 
REMARK    5  A    between atoms: C_9  and  C_10 
REMARK    6  A    between atoms: N_15  and  C_14 
REMARK    7  A    between atoms: N_20  and  C_19 
REMARK       I    between atoms: C_22  and  N_20 
ROOT
ATOM      1  C   LIG d   1      -5.592  91.641 119.092  0.00  0.00     0.161 C 
ATOM      2  C   LIG d   1      -4.673  90.839 118.394  0.00  0.00     0.016 C 
ATOM      3  C   LIG d   1      -4.804  90.519 117.023  0.00  0.00     0.038 C 
ATOM      4  C   LIG d   1      -5.788  91.107 116.215  0.00  0.00     0.028 C 
ATOM      5  C   LIG d   1      -7.036  91.525 116.986  0.00  0.00    -0.047 C 
ATOM      6  C   LIG d   1      -6.611  92.382 118.201  0.00  0.00     0.091 C 
ENDROOT
BRANCH   1   7
ATOM      7  O   LIG d   1      -4.886  92.577 119.930  0.00  0.00    -0.368 OA
BRANCH   7   8
ATOM      8  C   LIG d   1      -4.291  93.713 119.256  0.00  0.00     0.119 C 
BRANCH   8   9
ATOM      9  C   LIG d   1      -2.764  93.609 119.432  0.00  0.00     0.028 C 
ATOM     10  C   LIG d   1      -2.038  93.323 118.107  0.00  0.00     0.006 C 
ENDBRANCH   8   9
BRANCH   8  11
ATOM     11  C   LIG d   1      -4.688  95.031 119.929  0.00  0.00     0.028 C 
ATOM     12  C   LIG d   1      -3.637  96.136 119.742  0.00  0.00     0.006 C 
ENDBRANCH   8  11
ENDBRANCH   7   8
ENDBRANCH   1   7
BRANCH   6  13
ATOM     13  N   LIG d   1      -7.764  92.763 119.057  0.00  0.00    -0.311 N 
ATOM     14  C   LIG d   1      -8.421  93.915 118.933  0.00  0.00     0.210 C 
ATOM     15  C   LIG d   1      -9.566  94.117 119.930  0.00  0.00     0.109 C 
ATOM     16  O   LIG d   1      -8.185  94.774 118.071  0.00  0.00    -0.276 OA
ATOM     17  H   LIG d   1      -8.043  92.110 119.763  0.00  0.00     0.149 HD
ENDBRANCH   6  13
BRANCH   5  18
ATOM     18  N   LIG d   1      -7.918  92.246 116.050  0.00  0.00     0.381 N 
ATOM     19  H   LIG d   1      -8.459  91.591 115.522  0.00  0.00    -0.090 HD
ATOM     20  H   LIG d   1      -7.351  92.775 115.411  0.00  0.00    -0.090 HD
ATOM     21  H   LIG d   1      -8.523  92.858 116.554  0.00  0.00    -0.090 HD
ENDBRANCH   5  18
BRANCH   3  22
ATOM     22  C   LIG d   1      -3.968  89.570 116.456  0.00  0.00     0.382 C 
ATOM     23  O   LIG d   1      -4.328  88.952 115.425  0.00  0.00    -0.241 OA
ATOM     24  O   LIG d   1      -2.877  89.291 116.988  0.00  0.00    -0.241 OA
ENDBRANCH   3  22
TORSDOF 7
ENDMDL
MODEL 9
REMARK VINA RESULT:      -4.3      3.559      4.917
REMARK  7 active torsions:
REMARK  status: ('A' for Active; 'I' for Inactive)
REMARK    1  A    between atoms: C_2  and  C_3 
REMARK    2  A    between atoms: C_3  and  O_6 
REMARK    3  A    between atoms: C_3  and  C_4 
REMARK    4  A    between atoms: C_7  and  O_6 
REMARK    5  A    between atoms: C_9  and  C_10 
REMARK    6  A    between atoms: N_15  and  C_14 
REMARK    7  A    between atoms: N_20  and  C_19 
REMARK       I    between atoms: C_22  and  N_20 
ROOT
ATOM      1  C   LIG d   1       4.933  87.868 116.612  0.00  0.00     0.161 C 
ATOM      2  C   LIG d   1       4.064  88.972 116.604  0.00  0.00     0.016 C 
ATOM      3  C   LIG d   1       4.495  90.302 116.812  0.00  0.00     0.038 C 
ATOM      4  C   LIG d   1       5.854  90.637 116.894  0.00  0.00     0.028 C 
ATOM      5  C   LIG d   1       6.728  89.500 117.412  0.00  0.00    -0.047 C 
ATOM      6  C   LIG d   1       6.434  88.226 116.589  0.00  0.00     0.091 C 
ENDROOT
BRANCH   1   7
ATOM      7  O   LIG d   1       4.611  86.985 115.519  0.00  0.00    -0.368 OA
BRANCH   7   8
ATOM      8  C   LIG d   1       4.002  87.602 114.359  0.00  0.00     0.119 C 
BRANCH   8   9
ATOM      9  C   LIG d   1       2.946  86.621 113.813  0.00  0.00     0.028 C 
ATOM     10  C   LIG d   1       2.081  86.009 114.928  0.00  0.00     0.006 C 
ENDBRANCH   8   9
BRANCH   8  11
ATOM     11  C   LIG d   1       5.015  87.779 113.225  0.00  0.00     0.028 C 
ATOM     12  C   LIG d   1       5.653  89.178 113.208  0.00  0.00     0.006 C 
ENDBRANCH   8  11
ENDBRANCH   7   8
ENDBRANCH   1   7
BRANCH   6  13
ATOM     13  N   LIG d   1       7.185  87.044 117.085  0.00  0.00    -0.311 N 
ATOM     14  C   LIG d   1       8.387  86.694 116.628  0.00  0.00     0.210 C 
ATOM     15  C   LIG d   1       8.977  85.430 117.262  0.00  0.00     0.109 C 
ATOM     16  O   LIG d   1       9.033  87.328 115.781  0.00  0.00    -0.276 OA
ATOM     17  H   LIG d   1       6.748  86.490 117.796  0.00  0.00     0.149 HD
ENDBRANCH   6  13
BRANCH   5  18
ATOM     18  N   LIG d   1       8.134  89.939 117.316  0.00  0.00     0.381 N 
ATOM     19  H   LIG d   1       8.719  89.316 117.836  0.00  0.00    -0.090 HD
ATOM     20  H   LIG d   1       8.216  90.857 117.715  0.00  0.00    -0.090 HD
ATOM     21  H   LIG d   1       8.421  89.957 116.362  0.00  0.00    -0.090 HD
ENDBRANCH   5  18
BRANCH   3  22
ATOM     22  C   LIG d   1       3.557  91.309 116.981  0.00  0.00     0.382 C 
ATOM     23  O   LIG d   1       2.338  91.024 117.062  0.00  0.00    -0.241 OA
ATOM     24  O   LIG d   1       3.910  92.504 117.009  0.00  0.00    -0.241 OA
ENDBRANCH   3  22
TORSDOF 7
ENDMDL
