MODEL 1
REMARK VINA RESULT:      -5.0      0.000      0.000
REMARK  7 active torsions:
REMARK  status: ('A' for Active; 'I' for Inactive)
REMARK    1  A    between atoms: C_2  and  C_3 
REMARK    2  A    between atoms: C_3  and  O_6 
REMARK    3  A    between atoms: C_3  and  C_4 
REMARK    4  A    between atoms: C_7  and  O_6 
REMARK    5  A    between atoms: C_9  and  C_10 
REMARK    6  A    between atoms: N_15  and  C_14 
REMARK    7  A    between atoms: N_20  and  C_19 
REMARK       I    between atoms: C_22  and  N_20 
ROOT
ATOM      1  C   LIG d   1      -3.614  90.722 117.466  0.00  0.00     0.161 C 
ATOM      2  C   LIG d   1      -4.567  89.989 116.739  0.00  0.00     0.016 C 
ATOM      3  C   LIG d   1      -5.825  90.510 116.359  0.00  0.00     0.038 C 
ATOM      4  C   LIG d   1      -6.157  91.860 116.552  0.00  0.00     0.028 C 
ATOM      5  C   LIG d   1      -5.429  92.501 117.728  0.00  0.00    -0.047 C 
ATOM      6  C   LIG d   1      -3.914  92.231 117.588  0.00  0.00     0.091 C 
ENDROOT
BRANCH   1   7
ATOM      7  O   LIG d   1      -2.304  90.516 116.901  0.00  0.00    -0.368 OA
BRANCH   7   8
ATOM      8  C   LIG d   1      -1.345  89.834 117.746  0.00  0.00     0.119 C 
BRANCH   8   9
ATOM      9  C   LIG d   1       0.053  90.069 117.143  0.00  0.00     0.028 C 
ATOM     10  C   LIG d   1       0.784  91.254 117.797  0.00  0.00     0.006 C 
ENDBRANCH   8   9
BRANCH   8  11
ATOM     11  C   LIG d   1      -1.552  88.317 117.713  0.00  0.00     0.028 C 
ATOM     12  C   LIG d   1      -1.543  87.684 119.113  0.00  0.00     0.006 C 
ENDBRANCH   8  11
ENDBRANCH   7   8
ENDBRANCH   1   7
BRANCH   6  13
ATOM     13  N   LIG d   1      -3.136  92.752 118.742  0.00  0.00    -0.311 N 
ATOM     14  C   LIG d   1      -2.081  93.555 118.613  0.00  0.00     0.210 C 
ATOM     15  C   LIG d   1      -1.411  93.960 119.929  0.00  0.00     0.109 C 
ATOM     16  O   LIG d   1      -1.656  93.996 117.534  0.00  0.00    -0.276 OA
ATOM     17  H   LIG d   1      -3.431  92.469 119.656  0.00  0.00     0.149 HD
ENDBRANCH   6  13
BRANCH   5  18
ATOM     18  N   LIG d   1      -5.763  93.938 117.729  0.00  0.00     0.381 N 
ATOM     19  H   LIG d   1      -4.949  94.474 117.955  0.00  0.00    -0.090 HD
ATOM     20  H   LIG d   1      -6.459  94.109 118.433  0.00  0.00    -0.090 HD
ATOM     21  H   LIG d   1      -6.109  94.208 116.835  0.00  0.00    -0.090 HD
ENDBRANCH   5  18
BRANCH   3  22
ATOM     22  C   LIG d   1      -6.782  89.667 115.815  0.00  0.00     0.382 C 
ATOM     23  O   LIG d   1      -6.651  89.244 114.642  0.00  0.00    -0.241 OA
ATOM     24  O   LIG d   1      -7.798  89.360 116.468  0.00  0.00    -0.241 OA
ENDBRANCH   3  22
TORSDOF 7
ENDMDL
MODEL 2
REMARK VINA RESULT:      -4.9      2.609      5.984
REMARK  7 active torsions:
REMARK  status: ('A' for Active; 'I' for Inactive)
REMARK    1  A    between atoms: C_2  and  C_3 
REMARK    2  A    between atoms: C_3  and  O_6 
REMARK    3  A    between atoms: C_3  and  C_4 
REMARK    4  A    between atoms: C_7  and  O_6 
REMARK    5  A    between atoms: C_9  and  C_10 
REMARK    6  A    between atoms: N_15  and  C_14 
REMARK    7  A    between atoms: N_20  and  C_19 
REMARK       I    between atoms: C_22  and  N_20 
ROOT
ATOM      1  C   LIG d   1       0.215  90.490 116.904  0.00  0.00     0.161 C 
ATOM      2  C   LIG d   1       1.476  91.063 117.138  0.00  0.00     0.016 C 
ATOM      3  C   LIG d   1       1.662  92.271 117.848  0.00  0.00     0.038 C 
ATOM      4  C   LIG d   1       0.604  92.915 118.507  0.00  0.00     0.028 C 
ATOM      5  C   LIG d   1      -0.757  92.645 117.874  0.00  0.00    -0.047 C 
ATOM      6  C   LIG d   1      -0.941  91.119 117.710  0.00  0.00     0.091 C 
ENDROOT
BRANCH   1   7
ATOM      7  O   LIG d   1       0.273  89.069 117.137  0.00  0.00    -0.368 OA
BRANCH   7   8
ATOM      8  C   LIG d   1       0.093  88.640 118.509  0.00  0.00     0.119 C 
BRANCH   8   9
ATOM      9  C   LIG d   1       1.368  87.884 118.929  0.00  0.00     0.028 C 
ATOM     10  C   LIG d   1       2.154  87.344 117.723  0.00  0.00     0.006 C 
ENDBRANCH   8   9
BRANCH   8  11
ATOM     11  C   LIG d   1      -1.042  87.618 118.629  0.00  0.00     0.028 C 
ATOM     12  C   LIG d   1      -1.611  87.197 117.265  0.00  0.00     0.006 C 
ENDBRANCH   8  11
ENDBRANCH   7   8
ENDBRANCH   1   7
BRANCH   6  13
ATOM     13  N   LIG d   1      -2.211  90.772 117.021  0.00  0.00    -0.311 N 
ATOM     14  C   LIG d   1      -3.350  90.522 117.666  0.00  0.00     0.210 C 
ATOM     15  C   LIG d   1      -4.537  90.164 116.766  0.00  0.00     0.109 C 
ATOM     16  O   LIG d   1      -3.498  90.595 118.895  0.00  0.00    -0.276 OA
ATOM     17  H   LIG d   1      -2.189  90.721 116.022  0.00  0.00     0.149 HD
ENDBRANCH   6  13
BRANCH   5  18
ATOM     18  N   LIG d   1      -1.781  93.261 118.739  0.00  0.00     0.381 N 
ATOM     19  H   LIG d   1      -1.485  94.177 119.014  0.00  0.00    -0.090 HD
ATOM     20  H   LIG d   1      -1.886  92.702 119.567  0.00  0.00    -0.090 HD
ATOM     21  H   LIG d   1      -2.649  93.316 118.254  0.00  0.00    -0.090 HD
ENDBRANCH   5  18
BRANCH   3  22
ATOM     22  C   LIG d   1       2.913  92.869 117.870  0.00  0.00     0.382 C 
ATOM     23  O   LIG d   1       3.232  93.620 118.823  0.00  0.00    -0.241 OA
ATOM     24  O   LIG d   1       3.709  92.703 116.927  0.00  0.00    -0.241 OA
ENDBRANCH   3  22
TORSDOF 7
ENDMDL
MODEL 3
REMARK VINA RESULT:      -4.9      6.202      9.843
REMARK  7 active torsions:
REMARK  status: ('A' for Active; 'I' for Inactive)
REMARK    1  A    between atoms: C_2  and  C_3 
REMARK    2  A    between atoms: C_3  and  O_6 
REMARK    3  A    between atoms: C_3  and  C_4 
REMARK    4  A    between atoms: C_7  and  O_6 
REMARK    5  A    between atoms: C_9  and  C_10 
REMARK    6  A    between atoms: N_15  and  C_14 
REMARK    7  A    between atoms: N_20  and  C_19 
REMARK       I    between atoms: C_22  and  N_20 
ROOT
ATOM      1  C   LIG d   1       3.713  89.186 116.016  0.00  0.00     0.161 C 
ATOM      2  C   LIG d   1       4.442  90.087 116.810  0.00  0.00     0.016 C 
ATOM      3  C   LIG d   1       5.744  90.532 116.486  0.00  0.00     0.038 C 
ATOM      4  C   LIG d   1       6.350  90.221 115.260  0.00  0.00     0.028 C 
ATOM      5  C   LIG d   1       5.858  88.910 114.656  0.00  0.00    -0.047 C 
ATOM      6  C   LIG d   1       4.313  88.923 114.619  0.00  0.00     0.091 C 
ENDROOT
BRANCH   1   7
ATOM      7  O   LIG d   1       2.347  89.633 115.899  0.00  0.00    -0.368 OA
BRANCH   7   8
ATOM      8  C   LIG d   1       1.409  89.070 116.848  0.00  0.00     0.119 C 
BRANCH   8   9
ATOM      9  C   LIG d   1       0.810  87.802 116.211  0.00  0.00     0.028 C 
ATOM     10  C   LIG d   1       1.299  86.514 116.895  0.00  0.00     0.006 C 
ENDBRANCH   8   9
BRANCH   8  11
ATOM     11  C   LIG d   1       0.220  90.008 117.079  0.00  0.00     0.028 C 
ATOM     12  C   LIG d   1       0.641  91.480 117.220  0.00  0.00     0.006 C 
ENDBRANCH   8  11
ENDBRANCH   7   8
ENDBRANCH   1   7
BRANCH   6  13
ATOM     13  N   LIG d   1       3.747  87.643 114.120  0.00  0.00    -0.311 N 
ATOM     14  C   LIG d   1       2.858  87.571 113.130  0.00  0.00     0.210 C 
ATOM     15  C   LIG d   1       2.389  86.154 112.785  0.00  0.00     0.109 C 
ATOM     16  O   LIG d   1       2.438  88.543 112.485  0.00  0.00    -0.276 OA
ATOM     17  H   LIG d   1       4.057  86.802 114.567  0.00  0.00     0.149 HD
ENDBRANCH   6  13
BRANCH   5  18
ATOM     18  N   LIG d   1       6.467  88.779 113.319  0.00  0.00     0.381 N 
ATOM     19  H   LIG d   1       6.597  89.685 112.915  0.00  0.00    -0.090 HD
ATOM     20  H   LIG d   1       5.845  88.257 112.728  0.00  0.00    -0.090 HD
ATOM     21  H   LIG d   1       7.343  88.310 113.388  0.00  0.00    -0.090 HD
ENDBRANCH   5  18
BRANCH   3  22
ATOM     22  C   LIG d   1       6.470  91.265 117.413  0.00  0.00     0.382 C 
ATOM     23  O   LIG d   1       7.717  91.349 117.307  0.00  0.00    -0.241 OA
ATOM     24  O   LIG d   1       5.899  91.806 118.378  0.00  0.00    -0.241 OA
ENDBRANCH   3  22
TORSDOF 7
ENDMDL
MODEL 4
REMARK VINA RESULT:      -4.8      2.592      6.066
REMARK  7 active torsions:
REMARK  status: ('A' for Active; 'I' for Inactive)
REMARK    1  A    between atoms: C_2  and  C_3 
REMARK    2  A    between atoms: C_3  and  O_6 
REMARK    3  A    between atoms: C_3  and  C_4 
REMARK    4  A    between atoms: C_7  and  O_6 
REMARK    5  A    between atoms: C_9  and  C_10 
REMARK    6  A    between atoms: N_15  and  C_14 
REMARK    7  A    between atoms: N_20  and  C_19 
REMARK       I    between atoms: C_22  and  N_20 
ROOT
ATOM      1  C   LIG d   1       0.209  90.352 117.185  0.00  0.00     0.161 C 
ATOM      2  C   LIG d   1       1.467  90.942 117.397  0.00  0.00     0.016 C 
ATOM      3  C   LIG d   1       1.636  92.261 117.877  0.00  0.00     0.038 C 
ATOM      4  C   LIG d   1       0.553  93.033 118.324  0.00  0.00     0.028 C 
ATOM      5  C   LIG d   1      -0.768  92.666 117.657  0.00  0.00    -0.047 C 
ATOM      6  C   LIG d   1      -0.981  91.139 117.772  0.00  0.00     0.091 C 
ENDROOT
BRANCH   1   7
ATOM      7  O   LIG d   1       0.213  89.001 117.687  0.00  0.00    -0.368 OA
BRANCH   7   8
ATOM      8  C   LIG d   1       0.015  87.956 116.703  0.00  0.00     0.119 C 
BRANCH   8   9
ATOM      9  C   LIG d   1      -1.251  87.175 117.107  0.00  0.00     0.028 C 
ATOM     10  C   LIG d   1      -1.659  87.432 118.567  0.00  0.00     0.006 C 
ENDBRANCH   8   9
BRANCH   8  11
ATOM     11  C   LIG d   1       1.152  86.931 116.742  0.00  0.00     0.028 C 
ATOM     12  C   LIG d   1       0.972  85.802 115.715  0.00  0.00     0.006 C 
ENDBRANCH   8  11
ENDBRANCH   7   8
ENDBRANCH   1   7
BRANCH   6  13
ATOM     13  N   LIG d   1      -2.210  90.684 117.071  0.00  0.00    -0.311 N 
ATOM     14  C   LIG d   1      -3.397  90.578 117.667  0.00  0.00     0.210 C 
ATOM     15  C   LIG d   1      -4.529  90.071 116.767  0.00  0.00     0.109 C 
ATOM     16  O   LIG d   1      -3.627  90.888 118.845  0.00  0.00    -0.276 OA
ATOM     17  H   LIG d   1      -2.121  90.442 116.104  0.00  0.00     0.149 HD
ENDBRANCH   6  13
BRANCH   5  18
ATOM     18  N   LIG d   1      -1.832  93.449 118.313  0.00  0.00     0.381 N 
ATOM     19  H   LIG d   1      -2.174  94.149 117.685  0.00  0.00    -0.090 HD
ATOM     20  H   LIG d   1      -1.446  93.910 119.118  0.00  0.00    -0.090 HD
ATOM     21  H   LIG d   1      -2.576  92.848 118.590  0.00  0.00    -0.090 HD
ENDBRANCH   5  18
BRANCH   3  22
ATOM     22  C   LIG d   1       2.898  92.836 117.876  0.00  0.00     0.382 C 
ATOM     23  O   LIG d   1       3.688  92.611 116.928  0.00  0.00    -0.241 OA
ATOM     24  O   LIG d   1       3.272  93.541 118.832  0.00  0.00    -0.241 OA
ENDBRANCH   3  22
TORSDOF 7
ENDMDL
MODEL 5
REMARK VINA RESULT:      -4.8      4.787      7.085
REMARK  7 active torsions:
REMARK  status: ('A' for Active; 'I' for Inactive)
REMARK    1  A    between atoms: C_2  and  C_3 
REMARK    2  A    between atoms: C_3  and  O_6 
REMARK    3  A    between atoms: C_3  and  C_4 
REMARK    4  A    between atoms: C_7  and  O_6 
REMARK    5  A    between atoms: C_9  and  C_10 
REMARK    6  A    between atoms: N_15  and  C_14 
REMARK    7  A    between atoms: N_20  and  C_19 
REMARK       I    between atoms: C_22  and  N_20 
ROOT
ATOM      1  C   LIG d   1       1.888  88.352 115.905  0.00  0.00     0.161 C 
ATOM      2  C   LIG d   1       0.605  88.349 116.477  0.00  0.00     0.016 C 
ATOM      3  C   LIG d   1       0.082  89.433 117.219  0.00  0.00     0.038 C 
ATOM      4  C   LIG d   1       0.753  90.661 117.310  0.00  0.00     0.028 C 
ATOM      5  C   LIG d   1       2.266  90.536 117.175  0.00  0.00    -0.047 C 
ATOM      6  C   LIG d   1       2.591  89.725 115.900  0.00  0.00     0.091 C 
ENDROOT
BRANCH   1   7
ATOM      7  O   LIG d   1       1.828  87.815 114.569  0.00  0.00    -0.368 OA
BRANCH   7   8
ATOM      8  C   LIG d   1       2.148  86.408 114.432  0.00  0.00     0.119 C 
BRANCH   8   9
ATOM      9  C   LIG d   1       3.524  86.312 113.743  0.00  0.00     0.028 C 
ATOM     10  C   LIG d   1       3.580  87.111 112.430  0.00  0.00     0.006 C 
ENDBRANCH   8   9
BRANCH   8  11
ATOM     11  C   LIG d   1       1.171  85.704 113.486  0.00  0.00     0.028 C 
ATOM     12  C   LIG d   1      -0.289  85.807 113.953  0.00  0.00     0.006 C 
ENDBRANCH   8  11
ENDBRANCH   7   8
ENDBRANCH   1   7
BRANCH   6  13
ATOM     13  N   LIG d   1       4.048  89.484 115.737  0.00  0.00    -0.311 N 
ATOM     14  C   LIG d   1       4.729  89.821 114.643  0.00  0.00     0.210 C 
ATOM     15  C   LIG d   1       6.219  89.465 114.673  0.00  0.00     0.109 C 
ATOM     16  O   LIG d   1       4.248  90.410 113.663  0.00  0.00    -0.276 OA
ATOM     17  H   LIG d   1       4.525  89.039 116.496  0.00  0.00     0.149 HD
ENDBRANCH   6  13
BRANCH   5  18
ATOM     18  N   LIG d   1       2.826  91.901 117.150  0.00  0.00     0.381 N 
ATOM     19  H   LIG d   1       3.709  91.897 116.680  0.00  0.00    -0.090 HD
ATOM     20  H   LIG d   1       2.974  92.209 118.095  0.00  0.00    -0.090 HD
ATOM     21  H   LIG d   1       2.197  92.519 116.687  0.00  0.00    -0.090 HD
ENDBRANCH   5  18
BRANCH   3  22
ATOM     22  C   LIG d   1      -1.109  89.279 117.912  0.00  0.00     0.382 C 
ATOM     23  O   LIG d   1      -1.385  90.050 118.864  0.00  0.00    -0.241 OA
ATOM     24  O   LIG d   1      -1.891  88.352 117.628  0.00  0.00    -0.241 OA
ENDBRANCH   3  22
TORSDOF 7
ENDMDL
MODEL 6
REMARK VINA RESULT:      -4.7      5.620      8.210
REMARK  7 active torsions:
REMARK  status: ('A' for Active; 'I' for Inactive)
REMARK    1  A    between atoms: C_2  and  C_3 
REMARK    2  A    between atoms: C_3  and  O_6 
REMARK    3  A    between atoms: C_3  and  C_4 
REMARK    4  A    between atoms: C_7  and  O_6 
REMARK    5  A    between atoms: C_9  and  C_10 
REMARK    6  A    between atoms: N_15  and  C_14 
REMARK    7  A    between atoms: N_20  and  C_19 
REMARK       I    between atoms: C_22  and  N_20 
ROOT
ATOM      1  C   LIG d   1       2.941  89.169 115.760  0.00  0.00     0.161 C 
ATOM      2  C   LIG d   1       3.332  90.411 116.288  0.00  0.00     0.016 C 
ATOM      3  C   LIG d   1       2.483  91.226 117.071  0.00  0.00     0.038 C 
ATOM      4  C   LIG d   1       1.226  90.782 117.508  0.00  0.00     0.028 C 
ATOM      5  C   LIG d   1       0.593  89.749 116.583  0.00  0.00    -0.047 C 
ATOM      6  C   LIG d   1       1.613  88.618 116.320  0.00  0.00     0.091 C 
ENDROOT
BRANCH   1   7
ATOM      7  O   LIG d   1       3.999  88.207 115.942  0.00  0.00    -0.368 OA
BRANCH   7   8
ATOM      8  C   LIG d   1       4.717  87.816 114.745  0.00  0.00     0.119 C 
BRANCH   8   9
ATOM      9  C   LIG d   1       6.109  88.476 114.805  0.00  0.00     0.028 C 
ATOM     10  C   LIG d   1       6.183  89.767 113.972  0.00  0.00     0.006 C 
ENDBRANCH   8   9
BRANCH   8  11
ATOM     11  C   LIG d   1       4.054  88.383 113.487  0.00  0.00     0.028 C 
ATOM     12  C   LIG d   1       3.627  87.290 112.494  0.00  0.00     0.006 C 
ENDBRANCH   8  11
ENDBRANCH   7   8
ENDBRANCH   1   7
BRANCH   6  13
ATOM     13  N   LIG d   1       1.104  87.608 115.356  0.00  0.00    -0.311 N 
ATOM     14  C   LIG d   1       1.105  86.298 115.598  0.00  0.00     0.210 C 
ATOM     15  C   LIG d   1       0.554  85.430 114.463  0.00  0.00     0.109 C 
ATOM     16  O   LIG d   1       1.481  85.775 116.658  0.00  0.00    -0.276 OA
ATOM     17  H   LIG d   1       0.751  87.947 114.483  0.00  0.00     0.149 HD
ENDBRANCH   6  13
BRANCH   5  18
ATOM     18  N   LIG d   1      -0.645  89.272 117.228  0.00  0.00     0.381 N 
ATOM     19  H   LIG d   1      -1.181  90.053 117.551  0.00  0.00    -0.090 HD
ATOM     20  H   LIG d   1      -0.401  88.707 118.022  0.00  0.00    -0.090 HD
ATOM     21  H   LIG d   1      -1.182  88.737 116.582  0.00  0.00    -0.090 HD
ENDBRANCH   5  18
BRANCH   3  22
ATOM     22  C   LIG d   1       2.873  92.518 117.390  0.00  0.00     0.382 C 
ATOM     23  O   LIG d   1       3.988  92.948 117.010  0.00  0.00    -0.241 OA
ATOM     24  O   LIG d   1       2.142  93.243 118.091  0.00  0.00    -0.241 OA
ENDBRANCH   3  22
TORSDOF 7
ENDMDL
MODEL 7
REMARK VINA RESULT:      -4.7      6.952     10.106
REMARK  7 active torsions:
REMARK  status: ('A' for Active; 'I' for Inactive)
REMARK    1  A    between atoms: C_2  and  C_3 
REMARK    2  A    between atoms: C_3  and  O_6 
REMARK    3  A    between atoms: C_3  and  C_4 
REMARK    4  A    between atoms: C_7  and  O_6 
REMARK    5  A    between atoms: C_9  and  C_10 
REMARK    6  A    between atoms: N_15  and  C_14 
REMARK    7  A    between atoms: N_20  and  C_19 
REMARK       I    between atoms: C_22  and  N_20 
ROOT
ATOM      1  C   LIG d   1       4.571  88.323 116.536  0.00  0.00     0.161 C 
ATOM      2  C   LIG d   1       5.410  89.085 117.366  0.00  0.00     0.016 C 
ATOM      3  C   LIG d   1       6.359  90.010 116.873  0.00  0.00     0.038 C 
ATOM      4  C   LIG d   1       6.429  90.349 115.514  0.00  0.00     0.028 C 
ATOM      5  C   LIG d   1       5.948  89.237 114.587  0.00  0.00    -0.047 C 
ATOM      6  C   LIG d   1       4.554  88.760 115.056  0.00  0.00     0.091 C 
ENDROOT
BRANCH   1   7
ATOM      7  O   LIG d   1       3.232  88.315 117.071  0.00  0.00    -0.368 OA
BRANCH   7   8
ATOM      8  C   LIG d   1       2.343  89.346 116.578  0.00  0.00     0.119 C 
BRANCH   8   9
ATOM      9  C   LIG d   1       2.242  90.431 117.668  0.00  0.00     0.028 C 
ATOM     10  C   LIG d   1       2.833  91.776 117.213  0.00  0.00     0.006 C 
ENDBRANCH   8   9
BRANCH   8  11
ATOM     11  C   LIG d   1       0.917  88.815 116.401  0.00  0.00     0.028 C 
ATOM     12  C   LIG d   1       0.875  87.310 116.097  0.00  0.00     0.006 C 
ENDBRANCH   8  11
ENDBRANCH   7   8
ENDBRANCH   1   7
BRANCH   6  13
ATOM     13  N   LIG d   1       4.047  87.616 114.255  0.00  0.00    -0.311 N 
ATOM     14  C   LIG d   1       3.203  87.753 113.234  0.00  0.00     0.210 C 
ATOM     15  C   LIG d   1       2.790  86.442 112.556  0.00  0.00     0.109 C 
ATOM     16  O   LIG d   1       2.781  88.837 112.805  0.00  0.00    -0.276 OA
ATOM     17  H   LIG d   1       4.363  86.702 114.514  0.00  0.00     0.149 HD
ENDBRANCH   6  13
BRANCH   5  18
ATOM     18  N   LIG d   1       5.944  89.773 113.213  0.00  0.00     0.381 N 
ATOM     19  H   LIG d   1       5.389  90.604 113.176  0.00  0.00    -0.090 HD
ATOM     20  H   LIG d   1       5.532  89.091 112.600  0.00  0.00    -0.090 HD
ATOM     21  H   LIG d   1       6.875  89.972 112.922  0.00  0.00    -0.090 HD
ENDBRANCH   5  18
BRANCH   3  22
ATOM     22  C   LIG d   1       7.280  90.577 117.741  0.00  0.00     0.382 C 
ATOM     23  O   LIG d   1       7.328  90.202 118.938  0.00  0.00    -0.241 OA
ATOM     24  O   LIG d   1       8.033  91.491 117.354  0.00  0.00    -0.241 OA
ENDBRANCH   3  22
TORSDOF 7
ENDMDL
MODEL 8
REMARK VINA RESULT:      -4.6      2.281      4.377
REMARK  7 active torsions:
REMARK  status: ('A' for Active; 'I' for Inactive)
REMARK    1  A    between atoms: C_2  and  C_3 
REMARK    2  A    between atoms: C_3  and  O_6 
REMARK    3  A    between atoms: C_3  and  C_4 
REMARK    4  A    between atoms: C_7  and  O_6 
REMARK    5  A    between atoms: C_9  and  C_10 
REMARK    6  A    between atoms: N_15  and  C_14 
REMARK    7  A    between atoms: N_20  and  C_19 
REMARK       I    between atoms: C_22  and  N_20 
ROOT
ATOM      1  C   LIG d   1      -3.242  92.456 118.196  0.00  0.00     0.161 C 
ATOM      2  C   LIG d   1      -4.449  92.564 117.486  0.00  0.00     0.016 C 
ATOM      3  C   LIG d   1      -5.028  91.492 116.768  0.00  0.00     0.038 C 
ATOM      4  C   LIG d   1      -4.513  90.189 116.839  0.00  0.00     0.028 C 
ATOM      5  C   LIG d   1      -3.017  90.143 117.133  0.00  0.00    -0.047 C 
ATOM      6  C   LIG d   1      -2.724  91.013 118.376  0.00  0.00     0.091 C 
ENDROOT
BRANCH   1   7
ATOM      7  O   LIG d   1      -3.369  93.106 119.477  0.00  0.00    -0.368 OA
BRANCH   7   8
ATOM      8  C   LIG d   1      -2.620  94.334 119.645  0.00  0.00     0.119 C 
BRANCH   8   9
ATOM      9  C   LIG d   1      -3.634  95.494 119.682  0.00  0.00     0.028 C 
ATOM     10  C   LIG d   1      -2.954  96.871 119.607  0.00  0.00     0.006 C 
ENDBRANCH   8   9
BRANCH   8  11
ATOM     11  C   LIG d   1      -1.728  94.614 118.432  0.00  0.00     0.028 C 
ATOM     12  C   LIG d   1      -0.231  94.465 118.746  0.00  0.00     0.006 C 
ENDBRANCH   8  11
ENDBRANCH   7   8
ENDBRANCH   1   7
BRANCH   6  13
ATOM     13  N   LIG d   1      -1.272  91.092 118.683  0.00  0.00    -0.311 N 
ATOM     14  C   LIG d   1      -0.633  90.200 119.438  0.00  0.00     0.210 C 
ATOM     15  C   LIG d   1       0.859  90.479 119.646  0.00  0.00     0.109 C 
ATOM     16  O   LIG d   1      -1.153  89.186 119.928  0.00  0.00    -0.276 OA
ATOM     17  H   LIG d   1      -0.766  91.866 118.300  0.00  0.00     0.149 HD
ENDBRANCH   6  13
BRANCH   5  18
ATOM     18  N   LIG d   1      -2.642  88.729 117.315  0.00  0.00     0.381 N 
ATOM     19  H   LIG d   1      -1.775  88.670 117.811  0.00  0.00    -0.090 HD
ATOM     20  H   LIG d   1      -2.518  88.306 116.412  0.00  0.00    -0.090 HD
ATOM     21  H   LIG d   1      -3.354  88.249 117.820  0.00  0.00    -0.090 HD
ENDBRANCH   5  18
BRANCH   3  22
ATOM     22  C   LIG d   1      -6.113  91.727 115.937  0.00  0.00     0.382 C 
ATOM     23  O   LIG d   1      -5.986  92.474 114.937  0.00  0.00    -0.241 OA
ATOM     24  O   LIG d   1      -7.228  91.238 116.200  0.00  0.00    -0.241 OA
ENDBRANCH   3  22
TORSDOF 7
ENDMDL
MODEL 9
REMARK VINA RESULT:      -4.6      2.250      4.732
REMARK  7 active torsions:
REMARK  status: ('A' for Active; 'I' for Inactive)
REMARK    1  A    between atoms: C_2  and  C_3 
REMARK    2  A    between atoms: C_3  and  O_6 
REMARK    3  A    between atoms: C_3  and  C_4 
REMARK    4  A    between atoms: C_7  and  O_6 
REMARK    5  A    between atoms: C_9  and  C_10 
REMARK    6  A    between atoms: N_15  and  C_14 
REMARK    7  A    between atoms: N_20  and  C_19 
REMARK       I    between atoms: C_22  and  N_20 
ROOT
ATOM      1  C   LIG d   1      -4.322  92.679 118.145  0.00  0.00     0.161 C 
ATOM      2  C   LIG d   1      -5.064  91.955 117.198  0.00  0.00     0.016 C 
ATOM      3  C   LIG d   1      -4.696  90.670 116.737  0.00  0.00     0.038 C 
ATOM      4  C   LIG d   1      -3.634  89.954 117.310  0.00  0.00     0.028 C 
ATOM      5  C   LIG d   1      -2.555  90.848 117.912  0.00  0.00    -0.047 C 
ATOM      6  C   LIG d   1      -3.223  91.868 118.862  0.00  0.00     0.091 C 
ENDROOT
BRANCH   1   7
ATOM      7  O   LIG d   1      -5.212  93.278 119.108  0.00  0.00    -0.368 OA
BRANCH   7   8
ATOM      8  C   LIG d   1      -5.710  94.599 118.781  0.00  0.00     0.119 C 
BRANCH   8   9
ATOM      9  C   LIG d   1      -5.305  95.544 119.928  0.00  0.00     0.028 C 
ATOM     10  C   LIG d   1      -3.969  96.257 119.657  0.00  0.00     0.006 C 
ENDBRANCH   8   9
BRANCH   8  11
ATOM     11  C   LIG d   1      -7.241  94.626 118.754  0.00  0.00     0.028 C 
ATOM     12  C   LIG d   1      -7.815  96.041 118.926  0.00  0.00     0.006 C 
ENDBRANCH   8  11
ENDBRANCH   7   8
ENDBRANCH   1   7
BRANCH   6  13
ATOM     13  N   LIG d   1      -2.248  92.836 119.430  0.00  0.00    -0.311 N 
ATOM     14  C   LIG d   1      -1.560  93.703 118.689  0.00  0.00     0.210 C 
ATOM     15  C   LIG d   1      -0.593  94.597 119.472  0.00  0.00     0.109 C 
ATOM     16  O   LIG d   1      -1.681  93.838 117.462  0.00  0.00    -0.276 OA
ATOM     17  H   LIG d   1      -2.110  92.817 120.421  0.00  0.00     0.149 HD
ENDBRANCH   6  13
BRANCH   5  18
ATOM     18  N   LIG d   1      -1.581  89.974 118.593  0.00  0.00     0.381 N 
ATOM     19  H   LIG d   1      -1.778  89.017 118.381  0.00  0.00    -0.090 HD
ATOM     20  H   LIG d   1      -1.669  90.102 119.586  0.00  0.00    -0.090 HD
ATOM     21  H   LIG d   1      -0.656  90.203 118.302  0.00  0.00    -0.090 HD
ENDBRANCH   5  18
BRANCH   3  22
ATOM     22  C   LIG d   1      -5.369  90.105 115.665  0.00  0.00     0.382 C 
ATOM     23  O   LIG d   1      -5.316  88.866 115.474  0.00  0.00    -0.241 OA
ATOM     24  O   LIG d   1      -5.992  90.823 114.860  0.00  0.00    -0.241 OA
ENDBRANCH   3  22
TORSDOF 7
ENDMDL
