MODEL 1
REMARK VINA RESULT:      -5.5      0.000      0.000
REMARK  7 active torsions:
REMARK  status: ('A' for Active; 'I' for Inactive)
REMARK    1  A    between atoms: C_2  and  C_3 
REMARK    2  A    between atoms: C_3  and  O_6 
REMARK    3  A    between atoms: C_3  and  C_4 
REMARK    4  A    between atoms: C_7  and  O_6 
REMARK    5  A    between atoms: C_9  and  C_10 
REMARK    6  A    between atoms: N_15  and  C_14 
REMARK    7  A    between atoms: N_20  and  C_19 
REMARK       I    between atoms: C_22  and  N_20 
ROOT
ATOM      1  C   LIG d   1      -3.618  90.287 117.170  0.00  0.00     0.161 C 
ATOM      2  C   LIG d   1      -3.420  89.218 116.280  0.00  0.00     0.016 C 
ATOM      3  C   LIG d   1      -4.371  88.828 115.309  0.00  0.00     0.038 C 
ATOM      4  C   LIG d   1      -5.528  89.580 115.060  0.00  0.00     0.028 C 
ATOM      5  C   LIG d   1      -6.009  90.371 116.272  0.00  0.00    -0.047 C 
ATOM      6  C   LIG d   1      -4.826  91.188 116.839  0.00  0.00     0.091 C 
ENDROOT
BRANCH   1   7
ATOM      7  O   LIG d   1      -2.415  91.076 117.263  0.00  0.00    -0.368 OA
BRANCH   7   8
ATOM      8  C   LIG d   1      -1.695  90.995 118.517  0.00  0.00     0.119 C 
BRANCH   8   9
ATOM      9  C   LIG d   1      -1.717  92.398 119.154  0.00  0.00     0.028 C 
ATOM     10  C   LIG d   1      -1.922  93.512 118.114  0.00  0.00     0.006 C 
ENDBRANCH   8   9
BRANCH   8  11
ATOM     11  C   LIG d   1      -0.215  90.676 118.290  0.00  0.00     0.028 C 
ATOM     12  C   LIG d   1       0.127  90.455 116.808  0.00  0.00     0.006 C 
ENDBRANCH   8  11
ENDBRANCH   7   8
ENDBRANCH   1   7
BRANCH   6  13
ATOM     13  N   LIG d   1      -5.190  91.926 118.077  0.00  0.00    -0.311 N 
ATOM     14  C   LIG d   1      -5.842  93.088 118.074  0.00  0.00     0.210 C 
ATOM     15  C   LIG d   1      -6.098  93.689 119.459  0.00  0.00     0.109 C 
ATOM     16  O   LIG d   1      -6.260  93.661 117.057  0.00  0.00    -0.276 OA
ATOM     17  H   LIG d   1      -4.916  91.517 118.949  0.00  0.00     0.149 HD
ENDBRANCH   6  13
BRANCH   5  18
ATOM     18  N   LIG d   1      -7.138  91.214 115.835  0.00  0.00     0.381 N 
ATOM     19  H   LIG d   1      -7.912  90.635 115.575  0.00  0.00    -0.090 HD
ATOM     20  H   LIG d   1      -6.855  91.743 115.029  0.00  0.00    -0.090 HD
ATOM     21  H   LIG d   1      -7.407  91.831 116.569  0.00  0.00    -0.090 HD
ENDBRANCH   5  18
BRANCH   3  22
ATOM     22  C   LIG d   1      -4.186  87.649 114.603  0.00  0.00     0.382 C 
ATOM     23  O   LIG d   1      -4.260  87.651 113.350  0.00  0.00    -0.241 OA
ATOM     24  O   LIG d   1      -3.991  86.576 115.204  0.00  0.00    -0.241 OA
ENDBRANCH   3  22
TORSDOF 7
ENDMDL
MODEL 2
REMARK VINA RESULT:      -5.4      1.182      1.702
REMARK  7 active torsions:
REMARK  status: ('A' for Active; 'I' for Inactive)
REMARK    1  A    between atoms: C_2  and  C_3 
REMARK    2  A    between atoms: C_3  and  O_6 
REMARK    3  A    between atoms: C_3  and  C_4 
REMARK    4  A    between atoms: C_7  and  O_6 
REMARK    5  A    between atoms: C_9  and  C_10 
REMARK    6  A    between atoms: N_15  and  C_14 
REMARK    7  A    between atoms: N_20  and  C_19 
REMARK       I    between atoms: C_22  and  N_20 
ROOT
ATOM      1  C   LIG d   1      -3.588  90.156 117.347  0.00  0.00     0.161 C 
ATOM      2  C   LIG d   1      -3.456  89.124 116.403  0.00  0.00     0.016 C 
ATOM      3  C   LIG d   1      -4.396  88.886 115.374  0.00  0.00     0.038 C 
ATOM      4  C   LIG d   1      -5.462  89.762 115.127  0.00  0.00     0.028 C 
ATOM      5  C   LIG d   1      -5.917  90.528 116.364  0.00  0.00    -0.047 C 
ATOM      6  C   LIG d   1      -4.687  91.191 117.025  0.00  0.00     0.091 C 
ENDROOT
BRANCH   1   7
ATOM      7  O   LIG d   1      -2.319  90.814 117.533  0.00  0.00    -0.368 OA
BRANCH   7   8
ATOM      8  C   LIG d   1      -1.143  89.977 117.413  0.00  0.00     0.119 C 
BRANCH   8   9
ATOM      9  C   LIG d   1      -0.734  89.546 118.835  0.00  0.00     0.028 C 
ATOM     10  C   LIG d   1      -0.925  88.038 119.069  0.00  0.00     0.006 C 
ENDBRANCH   8   9
BRANCH   8  11
ATOM     11  C   LIG d   1       0.051  90.767 116.869  0.00  0.00     0.028 C 
ATOM     12  C   LIG d   1       1.001  89.905 116.023  0.00  0.00     0.006 C 
ENDBRANCH   8  11
ENDBRANCH   7   8
ENDBRANCH   1   7
BRANCH   6  13
ATOM     13  N   LIG d   1      -5.031  91.890 118.290  0.00  0.00    -0.311 N 
ATOM     14  C   LIG d   1      -5.547  93.117 118.332  0.00  0.00     0.210 C 
ATOM     15  C   LIG d   1      -5.809  93.661 119.741  0.00  0.00     0.109 C 
ATOM     16  O   LIG d   1      -5.844  93.794 117.337  0.00  0.00    -0.276 OA
ATOM     17  H   LIG d   1      -4.852  91.401 119.145  0.00  0.00     0.149 HD
ENDBRANCH   6  13
BRANCH   5  18
ATOM     18  N   LIG d   1      -6.938  91.503 115.936  0.00  0.00     0.381 N 
ATOM     19  H   LIG d   1      -6.694  91.877 115.041  0.00  0.00    -0.090 HD
ATOM     20  H   LIG d   1      -6.964  92.258 116.597  0.00  0.00    -0.090 HD
ATOM     21  H   LIG d   1      -7.831  91.063 115.887  0.00  0.00    -0.090 HD
ENDBRANCH   5  18
BRANCH   3  22
ATOM     22  C   LIG d   1      -4.296  87.736 114.605  0.00  0.00     0.382 C 
ATOM     23  O   LIG d   1      -4.031  86.638 115.151  0.00  0.00    -0.241 OA
ATOM     24  O   LIG d   1      -4.424  87.791 113.368  0.00  0.00    -0.241 OA
ENDBRANCH   3  22
TORSDOF 7
ENDMDL
MODEL 3
REMARK VINA RESULT:      -5.3      2.327      4.382
REMARK  7 active torsions:
REMARK  status: ('A' for Active; 'I' for Inactive)
REMARK    1  A    between atoms: C_2  and  C_3 
REMARK    2  A    between atoms: C_3  and  O_6 
REMARK    3  A    between atoms: C_3  and  C_4 
REMARK    4  A    between atoms: C_7  and  O_6 
REMARK    5  A    between atoms: C_9  and  C_10 
REMARK    6  A    between atoms: N_15  and  C_14 
REMARK    7  A    between atoms: N_20  and  C_19 
REMARK       I    between atoms: C_22  and  N_20 
ROOT
ATOM      1  C   LIG d   1      -2.873  90.785 117.060  0.00  0.00     0.161 C 
ATOM      2  C   LIG d   1      -3.910  91.693 116.786  0.00  0.00     0.016 C 
ATOM      3  C   LIG d   1      -5.058  91.357 116.031  0.00  0.00     0.038 C 
ATOM      4  C   LIG d   1      -5.320  90.041 115.625  0.00  0.00     0.028 C 
ATOM      5  C   LIG d   1      -4.060  89.201 115.445  0.00  0.00    -0.047 C 
ATOM      6  C   LIG d   1      -3.194  89.315 116.720  0.00  0.00     0.091 C 
ENDROOT
BRANCH   1   7
ATOM      7  O   LIG d   1      -2.472  90.905 118.440  0.00  0.00    -0.368 OA
BRANCH   7   8
ATOM      8  C   LIG d   1      -1.182  91.521 118.677  0.00  0.00     0.119 C 
BRANCH   8   9
ATOM      9  C   LIG d   1      -1.439  92.968 119.138  0.00  0.00     0.028 C 
ATOM     10  C   LIG d   1      -1.200  93.993 118.017  0.00  0.00     0.006 C 
ENDBRANCH   8   9
BRANCH   8  11
ATOM     11  C   LIG d   1      -0.377  91.645 117.380  0.00  0.00     0.028 C 
ATOM     12  C   LIG d   1       0.903  90.795 117.391  0.00  0.00     0.006 C 
ENDBRANCH   8  11
ENDBRANCH   7   8
ENDBRANCH   1   7
BRANCH   6  13
ATOM     13  N   LIG d   1      -1.902  88.590 116.595  0.00  0.00    -0.311 N 
ATOM     14  C   LIG d   1      -1.710  87.351 117.044  0.00  0.00     0.210 C 
ATOM     15  C   LIG d   1      -0.297  86.798 116.831  0.00  0.00     0.109 C 
ATOM     16  O   LIG d   1      -2.584  86.646 117.569  0.00  0.00    -0.276 OA
ATOM     17  H   LIG d   1      -1.147  89.077 116.153  0.00  0.00     0.149 HD
ENDBRANCH   6  13
BRANCH   5  18
ATOM     18  N   LIG d   1      -4.484  87.818 115.156  0.00  0.00     0.381 N 
ATOM     19  H   LIG d   1      -5.033  87.466 115.914  0.00  0.00    -0.090 HD
ATOM     20  H   LIG d   1      -3.667  87.240 115.064  0.00  0.00    -0.090 HD
ATOM     21  H   LIG d   1      -5.014  87.793 114.313  0.00  0.00    -0.090 HD
ENDBRANCH   5  18
BRANCH   3  22
ATOM     22  C   LIG d   1      -5.939  92.354 115.642  0.00  0.00     0.382 C 
ATOM     23  O   LIG d   1      -6.103  92.606 114.423  0.00  0.00    -0.241 OA
ATOM     24  O   LIG d   1      -6.540  93.036 116.494  0.00  0.00    -0.241 OA
ENDBRANCH   3  22
TORSDOF 7
ENDMDL
MODEL 4
REMARK VINA RESULT:      -4.8      2.500      4.544
REMARK  7 active torsions:
REMARK  status: ('A' for Active; 'I' for Inactive)
REMARK    1  A    between atoms: C_2  and  C_3 
REMARK    2  A    between atoms: C_3  and  O_6 
REMARK    3  A    between atoms: C_3  and  C_4 
REMARK    4  A    between atoms: C_7  and  O_6 
REMARK    5  A    between atoms: C_9  and  C_10 
REMARK    6  A    between atoms: N_15  and  C_14 
REMARK    7  A    between atoms: N_20  and  C_19 
REMARK       I    between atoms: C_22  and  N_20 
ROOT
ATOM      1  C   LIG d   1      -3.255  91.367 116.886  0.00  0.00     0.161 C 
ATOM      2  C   LIG d   1      -4.519  91.789 116.443  0.00  0.00     0.016 C 
ATOM      3  C   LIG d   1      -5.429  90.944 115.766  0.00  0.00     0.038 C 
ATOM      4  C   LIG d   1      -5.195  89.569 115.620  0.00  0.00     0.028 C 
ATOM      5  C   LIG d   1      -3.714  89.205 115.604  0.00  0.00    -0.047 C 
ATOM      6  C   LIG d   1      -3.028  89.842 116.834  0.00  0.00     0.091 C 
ENDROOT
BRANCH   1   7
ATOM      7  O   LIG d   1      -3.013  91.864 118.217  0.00  0.00    -0.368 OA
BRANCH   7   8
ATOM      8  C   LIG d   1      -2.395  93.172 118.306  0.00  0.00     0.119 C 
BRANCH   8   9
ATOM      9  C   LIG d   1      -0.923  92.962 118.709  0.00  0.00     0.028 C 
ATOM     10  C   LIG d   1       0.038  93.098 117.515  0.00  0.00     0.006 C 
ENDBRANCH   8   9
BRANCH   8  11
ATOM     11  C   LIG d   1      -3.010  94.003 119.435  0.00  0.00     0.028 C 
ATOM     12  C   LIG d   1      -4.521  94.223 119.259  0.00  0.00     0.006 C 
ENDBRANCH   8  11
ENDBRANCH   7   8
ENDBRANCH   1   7
BRANCH   6  13
ATOM     13  N   LIG d   1      -1.561  89.605 116.850  0.00  0.00    -0.311 N 
ATOM     14  C   LIG d   1      -0.990  88.583 117.487  0.00  0.00     0.210 C 
ATOM     15  C   LIG d   1       0.538  88.536 117.393  0.00  0.00     0.109 C 
ATOM     16  O   LIG d   1      -1.606  87.695 118.093  0.00  0.00    -0.276 OA
ATOM     17  H   LIG d   1      -0.987  90.260 116.357  0.00  0.00     0.149 HD
ENDBRANCH   6  13
BRANCH   5  18
ATOM     18  N   LIG d   1      -3.618  87.733 115.586  0.00  0.00     0.381 N 
ATOM     19  H   LIG d   1      -2.721  87.448 115.926  0.00  0.00    -0.090 HD
ATOM     20  H   LIG d   1      -3.711  87.413 114.638  0.00  0.00    -0.090 HD
ATOM     21  H   LIG d   1      -4.337  87.337 116.150  0.00  0.00    -0.090 HD
ENDBRANCH   5  18
BRANCH   3  22
ATOM     22  C   LIG d   1      -6.571  91.483 115.192  0.00  0.00     0.382 C 
ATOM     23  O   LIG d   1      -7.652  90.848 115.234  0.00  0.00    -0.241 OA
ATOM     24  O   LIG d   1      -6.523  92.575 114.595  0.00  0.00    -0.241 OA
ENDBRANCH   3  22
TORSDOF 7
ENDMDL
MODEL 5
REMARK VINA RESULT:      -4.8      2.254      6.159
REMARK  7 active torsions:
REMARK  status: ('A' for Active; 'I' for Inactive)
REMARK    1  A    between atoms: C_2  and  C_3 
REMARK    2  A    between atoms: C_3  and  O_6 
REMARK    3  A    between atoms: C_3  and  C_4 
REMARK    4  A    between atoms: C_7  and  O_6 
REMARK    5  A    between atoms: C_9  and  C_10 
REMARK    6  A    between atoms: N_15  and  C_14 
REMARK    7  A    between atoms: N_20  and  C_19 
REMARK       I    between atoms: C_22  and  N_20 
ROOT
ATOM      1  C   LIG d   1      -3.811  90.509 117.025  0.00  0.00     0.161 C 
ATOM      2  C   LIG d   1      -4.754  91.532 117.221  0.00  0.00     0.016 C 
ATOM      3  C   LIG d   1      -4.433  92.789 117.785  0.00  0.00     0.038 C 
ATOM      4  C   LIG d   1      -3.109  93.164 118.054  0.00  0.00     0.028 C 
ATOM      5  C   LIG d   1      -2.190  91.981 118.343  0.00  0.00    -0.047 C 
ATOM      6  C   LIG d   1      -2.341  90.941 117.210  0.00  0.00     0.091 C 
ENDROOT
BRANCH   1   7
ATOM      7  O   LIG d   1      -3.999  89.914 115.726  0.00  0.00    -0.368 OA
BRANCH   7   8
ATOM      8  C   LIG d   1      -4.949  88.822 115.657  0.00  0.00     0.119 C 
BRANCH   8   9
ATOM      9  C   LIG d   1      -4.317  87.713 114.793  0.00  0.00     0.028 C 
ATOM     10  C   LIG d   1      -3.205  86.953 115.535  0.00  0.00     0.006 C 
ENDBRANCH   8   9
BRANCH   8  11
ATOM     11  C   LIG d   1      -6.223  89.238 114.916  0.00  0.00     0.028 C 
ATOM     12  C   LIG d   1      -7.475  89.181 115.805  0.00  0.00     0.006 C 
ENDBRANCH   8  11
ENDBRANCH   7   8
ENDBRANCH   1   7
BRANCH   6  13
ATOM     13  N   LIG d   1      -1.540  89.714 117.457  0.00  0.00    -0.311 N 
ATOM     14  C   LIG d   1      -0.336  89.505 116.927  0.00  0.00     0.210 C 
ATOM     15  C   LIG d   1       0.309  88.165 117.295  0.00  0.00     0.109 C 
ATOM     16  O   LIG d   1       0.273  90.316 116.213  0.00  0.00    -0.276 OA
ATOM     17  H   LIG d   1      -1.945  89.016 118.051  0.00  0.00     0.149 HD
ENDBRANCH   6  13
BRANCH   5  18
ATOM     18  N   LIG d   1      -0.817  92.504 118.470  0.00  0.00     0.381 N 
ATOM     19  H   LIG d   1      -0.625  92.723 119.427  0.00  0.00    -0.090 HD
ATOM     20  H   LIG d   1      -0.739  93.349 117.931  0.00  0.00    -0.090 HD
ATOM     21  H   LIG d   1      -0.163  91.829 118.138  0.00  0.00    -0.090 HD
ENDBRANCH   5  18
BRANCH   3  22
ATOM     22  C   LIG d   1      -5.449  93.670 118.122  0.00  0.00     0.382 C 
ATOM     23  O   LIG d   1      -5.255  94.544 119.001  0.00  0.00    -0.241 OA
ATOM     24  O   LIG d   1      -6.572  93.573 117.591  0.00  0.00    -0.241 OA
ENDBRANCH   3  22
TORSDOF 7
ENDMDL
MODEL 6
REMARK VINA RESULT:      -4.7      2.114      3.577
REMARK  7 active torsions:
REMARK  status: ('A' for Active; 'I' for Inactive)
REMARK    1  A    between atoms: C_2  and  C_3 
REMARK    2  A    between atoms: C_3  and  O_6 
REMARK    3  A    between atoms: C_3  and  C_4 
REMARK    4  A    between atoms: C_7  and  O_6 
REMARK    5  A    between atoms: C_9  and  C_10 
REMARK    6  A    between atoms: N_15  and  C_14 
REMARK    7  A    between atoms: N_20  and  C_19 
REMARK       I    between atoms: C_22  and  N_20 
ROOT
ATOM      1  C   LIG d   1      -3.102  90.662 117.190  0.00  0.00     0.161 C 
ATOM      2  C   LIG d   1      -4.151  90.061 116.476  0.00  0.00     0.016 C 
ATOM      3  C   LIG d   1      -5.406  90.680 116.269  0.00  0.00     0.038 C 
ATOM      4  C   LIG d   1      -5.645  92.013 116.635  0.00  0.00     0.028 C 
ATOM      5  C   LIG d   1      -4.787  92.483 117.805  0.00  0.00    -0.047 C 
ATOM      6  C   LIG d   1      -3.306  92.160 117.502  0.00  0.00     0.091 C 
ENDROOT
BRANCH   1   7
ATOM      7  O   LIG d   1      -1.857  90.461 116.492  0.00  0.00    -0.368 OA
BRANCH   7   8
ATOM      8  C   LIG d   1      -0.821  89.763 117.226  0.00  0.00     0.119 C 
BRANCH   8   9
ATOM      9  C   LIG d   1       0.537  90.216 116.653  0.00  0.00     0.028 C 
ATOM     10  C   LIG d   1       1.264  89.086 115.905  0.00  0.00     0.006 C 
ENDBRANCH   8   9
BRANCH   8  11
ATOM     11  C   LIG d   1      -0.882  88.253 116.977  0.00  0.00     0.028 C 
ATOM     12  C   LIG d   1      -1.437  87.473 118.179  0.00  0.00     0.006 C 
ENDBRANCH   8  11
ENDBRANCH   7   8
ENDBRANCH   1   7
BRANCH   6  13
ATOM     13  N   LIG d   1      -2.406  92.511 118.632  0.00  0.00    -0.311 N 
ATOM     14  C   LIG d   1      -1.288  93.220 118.486  0.00  0.00     0.210 C 
ATOM     15  C   LIG d   1      -0.497  93.452 119.777  0.00  0.00     0.109 C 
ATOM     16  O   LIG d   1      -0.894  93.706 117.415  0.00  0.00    -0.276 OA
ATOM     17  H   LIG d   1      -2.667  92.183 119.541  0.00  0.00     0.149 HD
ENDBRANCH   6  13
BRANCH   5  18
ATOM     18  N   LIG d   1      -5.038  93.924 117.991  0.00  0.00     0.381 N 
ATOM     19  H   LIG d   1      -5.693  94.245 117.306  0.00  0.00    -0.090 HD
ATOM     20  H   LIG d   1      -4.176  94.424 117.861  0.00  0.00    -0.090 HD
ATOM     21  H   LIG d   1      -5.393  94.093 118.906  0.00  0.00    -0.090 HD
ENDBRANCH   5  18
BRANCH   3  22
ATOM     22  C   LIG d   1      -6.451  89.949 115.724  0.00  0.00     0.382 C 
ATOM     23  O   LIG d   1      -7.516  90.525 115.398  0.00  0.00    -0.241 OA
ATOM     24  O   LIG d   1      -6.358  88.713 115.595  0.00  0.00    -0.241 OA
ENDBRANCH   3  22
TORSDOF 7
ENDMDL
MODEL 7
REMARK VINA RESULT:      -4.5      2.538      4.392
REMARK  7 active torsions:
REMARK  status: ('A' for Active; 'I' for Inactive)
REMARK    1  A    between atoms: C_2  and  C_3 
REMARK    2  A    between atoms: C_3  and  O_6 
REMARK    3  A    between atoms: C_3  and  C_4 
REMARK    4  A    between atoms: C_7  and  O_6 
REMARK    5  A    between atoms: C_9  and  C_10 
REMARK    6  A    between atoms: N_15  and  C_14 
REMARK    7  A    between atoms: N_20  and  C_19 
REMARK       I    between atoms: C_22  and  N_20 
ROOT
ATOM      1  C   LIG d   1      -4.129  92.007 118.053  0.00  0.00     0.161 C 
ATOM      2  C   LIG d   1      -5.085  92.025 117.024  0.00  0.00     0.016 C 
ATOM      3  C   LIG d   1      -5.043  91.160 115.907  0.00  0.00     0.038 C 
ATOM      4  C   LIG d   1      -4.120  90.107 115.819  0.00  0.00     0.028 C 
ATOM      5  C   LIG d   1      -2.827  90.370 116.585  0.00  0.00    -0.047 C 
ATOM      6  C   LIG d   1      -3.178  90.792 118.030  0.00  0.00     0.091 C 
ENDROOT
BRANCH   1   7
ATOM      7  O   LIG d   1      -4.786  92.105 119.332  0.00  0.00    -0.368 OA
BRANCH   7   8
ATOM      8  C   LIG d   1      -4.835  93.426 119.924  0.00  0.00     0.119 C 
BRANCH   8   9
ATOM      9  C   LIG d   1      -6.293  93.919 119.836  0.00  0.00     0.028 C 
ATOM     10  C   LIG d   1      -6.481  95.009 118.767  0.00  0.00     0.006 C 
ENDBRANCH   8   9
BRANCH   8  11
ATOM     11  C   LIG d   1      -4.017  94.433 119.109  0.00  0.00     0.028 C 
ATOM     12  C   LIG d   1      -2.881  95.073 119.921  0.00  0.00     0.006 C 
ENDBRANCH   8  11
ENDBRANCH   7   8
ENDBRANCH   1   7
BRANCH   6  13
ATOM     13  N   LIG d   1      -1.973  91.149 118.824  0.00  0.00    -0.311 N 
ATOM     14  C   LIG d   1      -1.138  92.131 118.487  0.00  0.00     0.210 C 
ATOM     15  C   LIG d   1       0.053  92.319 119.433  0.00  0.00     0.109 C 
ATOM     16  O   LIG d   1      -1.287  92.884 117.514  0.00  0.00    -0.276 OA
ATOM     17  H   LIG d   1      -1.793  90.609 119.647  0.00  0.00     0.149 HD
ENDBRANCH   6  13
BRANCH   5  18
ATOM     18  N   LIG d   1      -2.015  89.140 116.523  0.00  0.00     0.381 N 
ATOM     19  H   LIG d   1      -1.185  89.255 117.070  0.00  0.00    -0.090 HD
ATOM     20  H   LIG d   1      -1.744  88.978 115.569  0.00  0.00    -0.090 HD
ATOM     21  H   LIG d   1      -2.541  88.366 116.863  0.00  0.00    -0.090 HD
ENDBRANCH   5  18
BRANCH   3  22
ATOM     22  C   LIG d   1      -5.908  91.368 114.843  0.00  0.00     0.382 C 
ATOM     23  O   LIG d   1      -6.622  90.426 114.422  0.00  0.00    -0.241 OA
ATOM     24  O   LIG d   1      -5.950  92.473 114.270  0.00  0.00    -0.241 OA
ENDBRANCH   3  22
TORSDOF 7
ENDMDL
MODEL 8
REMARK VINA RESULT:      -4.5      2.654      4.678
REMARK  7 active torsions:
REMARK  status: ('A' for Active; 'I' for Inactive)
REMARK    1  A    between atoms: C_2  and  C_3 
REMARK    2  A    between atoms: C_3  and  O_6 
REMARK    3  A    between atoms: C_3  and  C_4 
REMARK    4  A    between atoms: C_7  and  O_6 
REMARK    5  A    between atoms: C_9  and  C_10 
REMARK    6  A    between atoms: N_15  and  C_14 
REMARK    7  A    between atoms: N_20  and  C_19 
REMARK       I    between atoms: C_22  and  N_20 
ROOT
ATOM      1  C   LIG d   1      -2.252  90.527 117.273  0.00  0.00     0.161 C 
ATOM      2  C   LIG d   1      -3.343  89.916 116.633  0.00  0.00     0.016 C 
ATOM      3  C   LIG d   1      -3.414  88.529 116.370  0.00  0.00     0.038 C 
ATOM      4  C   LIG d   1      -2.460  87.630 116.869  0.00  0.00     0.028 C 
ATOM      5  C   LIG d   1      -1.088  88.260 117.084  0.00  0.00    -0.047 C 
ATOM      6  C   LIG d   1      -1.253  89.547 117.924  0.00  0.00     0.091 C 
ENDROOT
BRANCH   1   7
ATOM      7  O   LIG d   1      -2.727  91.478 118.247  0.00  0.00    -0.368 OA
BRANCH   7   8
ATOM      8  C   LIG d   1      -3.081  92.788 117.738  0.00  0.00     0.119 C 
BRANCH   8   9
ATOM      9  C   LIG d   1      -2.107  93.805 118.364  0.00  0.00     0.028 C 
ATOM     10  C   LIG d   1      -0.791  93.918 117.577  0.00  0.00     0.006 C 
ENDBRANCH   8   9
BRANCH   8  11
ATOM     11  C   LIG d   1      -4.473  93.213 118.214  0.00  0.00     0.028 C 
ATOM     12  C   LIG d   1      -5.581  92.856 117.211  0.00  0.00     0.006 C 
ENDBRANCH   8  11
ENDBRANCH   7   8
ENDBRANCH   1   7
BRANCH   6  13
ATOM     13  N   LIG d   1       0.031  90.272 118.109  0.00  0.00    -0.311 N 
ATOM     14  C   LIG d   1       0.851  90.579 117.105  0.00  0.00     0.210 C 
ATOM     15  C   LIG d   1       2.132  91.310 117.517  0.00  0.00     0.109 C 
ATOM     16  O   LIG d   1       0.623  90.344 115.909  0.00  0.00    -0.276 OA
ATOM     17  H   LIG d   1       0.279  90.529 119.044  0.00  0.00     0.149 HD
ENDBRANCH   6  13
BRANCH   5  18
ATOM     18  N   LIG d   1      -0.231  87.251 117.734  0.00  0.00     0.381 N 
ATOM     19  H   LIG d   1       0.175  86.654 117.042  0.00  0.00    -0.090 HD
ATOM     20  H   LIG d   1      -0.797  86.688 118.344  0.00  0.00    -0.090 HD
ATOM     21  H   LIG d   1       0.488  87.701 118.258  0.00  0.00    -0.090 HD
ENDBRANCH   5  18
BRANCH   3  22
ATOM     22  C   LIG d   1      -4.429  88.033 115.566  0.00  0.00     0.382 C 
ATOM     23  O   LIG d   1      -5.615  88.395 115.758  0.00  0.00    -0.241 OA
ATOM     24  O   LIG d   1      -4.180  87.194 114.680  0.00  0.00    -0.241 OA
ENDBRANCH   3  22
TORSDOF 7
ENDMDL
MODEL 9
REMARK VINA RESULT:      -4.5      2.437      4.391
REMARK  7 active torsions:
REMARK  status: ('A' for Active; 'I' for Inactive)
REMARK    1  A    between atoms: C_2  and  C_3 
REMARK    2  A    between atoms: C_3  and  O_6 
REMARK    3  A    between atoms: C_3  and  C_4 
REMARK    4  A    between atoms: C_7  and  O_6 
REMARK    5  A    between atoms: C_9  and  C_10 
REMARK    6  A    between atoms: N_15  and  C_14 
REMARK    7  A    between atoms: N_20  and  C_19 
REMARK       I    between atoms: C_22  and  N_20 
ROOT
ATOM      1  C   LIG d   1      -3.053  90.378 116.908  0.00  0.00     0.161 C 
ATOM      2  C   LIG d   1      -4.076  90.035 116.009  0.00  0.00     0.016 C 
ATOM      3  C   LIG d   1      -4.281  88.722 115.526  0.00  0.00     0.038 C 
ATOM      4  C   LIG d   1      -3.565  87.627 116.031  0.00  0.00     0.028 C 
ATOM      5  C   LIG d   1      -2.186  87.999 116.565  0.00  0.00    -0.047 C 
ATOM      6  C   LIG d   1      -2.332  89.177 117.555  0.00  0.00     0.091 C 
ENDROOT
BRANCH   1   7
ATOM      7  O   LIG d   1      -3.571  91.259 117.925  0.00  0.00    -0.368 OA
BRANCH   7   8
ATOM      8  C   LIG d   1      -3.347  92.675 117.715  0.00  0.00     0.119 C 
BRANCH   8   9
ATOM      9  C   LIG d   1      -2.046  93.051 118.449  0.00  0.00     0.028 C 
ATOM     10  C   LIG d   1      -2.065  92.634 119.930  0.00  0.00     0.006 C 
ENDBRANCH   8   9
BRANCH   8  11
ATOM     11  C   LIG d   1      -4.444  93.516 118.376  0.00  0.00     0.028 C 
ATOM     12  C   LIG d   1      -5.817  93.332 117.712  0.00  0.00     0.006 C 
ENDBRANCH   8  11
ENDBRANCH   7   8
ENDBRANCH   1   7
BRANCH   6  13
ATOM     13  N   LIG d   1      -1.020  89.659 118.061  0.00  0.00    -0.311 N 
ATOM     14  C   LIG d   1      -0.469  89.228 119.194  0.00  0.00     0.210 C 
ATOM     15  C   LIG d   1       0.879  89.870 119.542  0.00  0.00     0.109 C 
ATOM     16  O   LIG d   1      -0.952  88.353 119.929  0.00  0.00    -0.276 OA
ATOM     17  H   LIG d   1      -0.544  90.347 117.511  0.00  0.00     0.149 HD
ENDBRANCH   6  13
BRANCH   5  18
ATOM     18  N   LIG d   1      -1.607  86.791 117.184  0.00  0.00     0.381 N 
ATOM     19  H   LIG d   1      -2.338  86.216 117.553  0.00  0.00    -0.090 HD
ATOM     20  H   LIG d   1      -1.011  87.070 117.944  0.00  0.00    -0.090 HD
ATOM     21  H   LIG d   1      -1.081  86.281 116.510  0.00  0.00    -0.090 HD
ENDBRANCH   5  18
BRANCH   3  22
ATOM     22  C   LIG d   1      -5.184  88.501 114.498  0.00  0.00     0.382 C 
ATOM     23  O   LIG d   1      -6.211  89.216 114.400  0.00  0.00    -0.241 OA
ATOM     24  O   LIG d   1      -5.009  87.567 113.692  0.00  0.00    -0.241 OA
ENDBRANCH   3  22
TORSDOF 7
ENDMDL
