MODEL 1
REMARK VINA RESULT:      -5.8      0.000      0.000
REMARK  7 active torsions:
REMARK  status: ('A' for Active; 'I' for Inactive)
REMARK    1  A    between atoms: C_2  and  C_3 
REMARK    2  A    between atoms: C_3  and  O_6 
REMARK    3  A    between atoms: C_3  and  C_4 
REMARK    4  A    between atoms: C_7  and  O_6 
REMARK    5  A    between atoms: C_9  and  C_10 
REMARK    6  A    between atoms: N_15  and  C_14 
REMARK    7  A    between atoms: N_20  and  C_19 
REMARK       I    between atoms: C_22  and  N_20 
ROOT
ATOM      1  C   LIG d   1       1.592  88.532 115.674  0.00  0.00     0.161 C 
ATOM      2  C   LIG d   1       0.304  88.663 116.221  0.00  0.00     0.016 C 
ATOM      3  C   LIG d   1      -0.095  89.762 117.016  0.00  0.00     0.038 C 
ATOM      4  C   LIG d   1       0.726  90.886 117.194  0.00  0.00     0.028 C 
ATOM      5  C   LIG d   1       2.214  90.573 117.081  0.00  0.00    -0.047 C 
ATOM      6  C   LIG d   1       2.465  89.801 115.765  0.00  0.00     0.091 C 
ENDROOT
BRANCH   1   7
ATOM      7  O   LIG d   1       1.499  88.085 114.307  0.00  0.00    -0.368 OA
BRANCH   7   8
ATOM      8  C   LIG d   1       1.660  86.661 114.090  0.00  0.00     0.119 C 
BRANCH   8   9
ATOM      9  C   LIG d   1       3.158  86.396 113.847  0.00  0.00     0.028 C 
ATOM     10  C   LIG d   1       3.603  86.801 112.431  0.00  0.00     0.006 C 
ENDBRANCH   8   9
BRANCH   8  11
ATOM     11  C   LIG d   1       0.955  86.210 112.807  0.00  0.00     0.028 C 
ATOM     12  C   LIG d   1      -0.486  85.736 113.054  0.00  0.00     0.006 C 
ENDBRANCH   8  11
ENDBRANCH   7   8
ENDBRANCH   1   7
BRANCH   6  13
ATOM     13  N   LIG d   1       3.883  89.382 115.616  0.00  0.00    -0.311 N 
ATOM     14  C   LIG d   1       4.629  89.684 114.555  0.00  0.00     0.210 C 
ATOM     15  C   LIG d   1       6.060  89.137 114.593  0.00  0.00     0.109 C 
ATOM     16  O   LIG d   1       4.252  90.380 113.600  0.00  0.00    -0.276 OA
ATOM     17  H   LIG d   1       4.280  88.840 116.359  0.00  0.00     0.149 HD
ENDBRANCH   6  13
BRANCH   5  18
ATOM     18  N   LIG d   1       2.945  91.852 117.149  0.00  0.00     0.381 N 
ATOM     19  H   LIG d   1       3.398  91.936 118.037  0.00  0.00    -0.090 HD
ATOM     20  H   LIG d   1       2.288  92.607 117.057  0.00  0.00    -0.090 HD
ATOM     21  H   LIG d   1       3.619  91.899 116.417  0.00  0.00    -0.090 HD
ENDBRANCH   5  18
BRANCH   3  22
ATOM     22  C   LIG d   1      -1.314  89.725 117.676  0.00  0.00     0.382 C 
ATOM     23  O   LIG d   1      -1.367  89.954 118.908  0.00  0.00    -0.241 OA
ATOM     24  O   LIG d   1      -2.355  89.423 117.063  0.00  0.00    -0.241 OA
ENDBRANCH   3  22
TORSDOF 7
ENDMDL
MODEL 2
REMARK VINA RESULT:      -5.0      2.396      5.529
REMARK  7 active torsions:
REMARK  status: ('A' for Active; 'I' for Inactive)
REMARK    1  A    between atoms: C_2  and  C_3 
REMARK    2  A    between atoms: C_3  and  O_6 
REMARK    3  A    between atoms: C_3  and  C_4 
REMARK    4  A    between atoms: C_7  and  O_6 
REMARK    5  A    between atoms: C_9  and  C_10 
REMARK    6  A    between atoms: N_15  and  C_14 
REMARK    7  A    between atoms: N_20  and  C_19 
REMARK       I    between atoms: C_22  and  N_20 
ROOT
ATOM      1  C   LIG d   1       2.680  89.924 116.718  0.00  0.00     0.161 C 
ATOM      2  C   LIG d   1       2.590  89.319 115.454  0.00  0.00     0.016 C 
ATOM      3  C   LIG d   1       3.713  88.851 114.733  0.00  0.00     0.038 C 
ATOM      4  C   LIG d   1       4.996  88.819 115.299  0.00  0.00     0.028 C 
ATOM      5  C   LIG d   1       5.211  89.881 116.373  0.00  0.00    -0.047 C 
ATOM      6  C   LIG d   1       4.059  89.797 117.400  0.00  0.00     0.091 C 
ENDROOT
BRANCH   1   7
ATOM      7  O   LIG d   1       1.646  89.409 117.581  0.00  0.00    -0.368 OA
BRANCH   7   8
ATOM      8  C   LIG d   1       0.799  90.395 118.219  0.00  0.00     0.119 C 
BRANCH   8   9
ATOM      9  C   LIG d   1      -0.556  89.722 118.512  0.00  0.00     0.028 C 
ATOM     10  C   LIG d   1      -1.365  89.449 117.233  0.00  0.00     0.006 C 
ENDBRANCH   8   9
BRANCH   8  11
ATOM     11  C   LIG d   1       0.479  91.554 117.269  0.00  0.00     0.028 C 
ATOM     12  C   LIG d   1       0.306  92.894 118.001  0.00  0.00     0.006 C 
ENDBRANCH   8  11
ENDBRANCH   7   8
ENDBRANCH   1   7
BRANCH   6  13
ATOM     13  N   LIG d   1       4.146  90.856 118.438  0.00  0.00    -0.311 N 
ATOM     14  C   LIG d   1       4.054  92.157 118.168  0.00  0.00     0.210 C 
ATOM     15  C   LIG d   1       4.191  93.081 119.382  0.00  0.00     0.109 C 
ATOM     16  O   LIG d   1       3.840  92.633 117.043  0.00  0.00    -0.276 OA
ATOM     17  H   LIG d   1       4.289  90.558 119.383  0.00  0.00     0.149 HD
ENDBRANCH   6  13
BRANCH   5  18
ATOM     18  N   LIG d   1       6.538  89.646 116.973  0.00  0.00     0.381 N 
ATOM     19  H   LIG d   1       6.462  89.637 117.970  0.00  0.00    -0.090 HD
ATOM     20  H   LIG d   1       7.152  90.397 116.710  0.00  0.00    -0.090 HD
ATOM     21  H   LIG d   1       6.908  88.778 116.653  0.00  0.00    -0.090 HD
ENDBRANCH   5  18
BRANCH   3  22
ATOM     22  C   LIG d   1       3.564  88.445 113.416  0.00  0.00     0.382 C 
ATOM     23  O   LIG d   1       4.546  87.980 112.788  0.00  0.00    -0.241 OA
ATOM     24  O   LIG d   1       2.472  88.578 112.833  0.00  0.00    -0.241 OA
ENDBRANCH   3  22
TORSDOF 7
ENDMDL
MODEL 3
REMARK VINA RESULT:      -5.0      2.516      5.679
REMARK  7 active torsions:
REMARK  status: ('A' for Active; 'I' for Inactive)
REMARK    1  A    between atoms: C_2  and  C_3 
REMARK    2  A    between atoms: C_3  and  O_6 
REMARK    3  A    between atoms: C_3  and  C_4 
REMARK    4  A    between atoms: C_7  and  O_6 
REMARK    5  A    between atoms: C_9  and  C_10 
REMARK    6  A    between atoms: N_15  and  C_14 
REMARK    7  A    between atoms: N_20  and  C_19 
REMARK       I    between atoms: C_22  and  N_20 
ROOT
ATOM      1  C   LIG d   1       3.106  89.824 116.787  0.00  0.00     0.161 C 
ATOM      2  C   LIG d   1       4.024  90.667 117.434  0.00  0.00     0.016 C 
ATOM      3  C   LIG d   1       5.356  90.850 116.995  0.00  0.00     0.038 C 
ATOM      4  C   LIG d   1       5.817  90.315 115.783  0.00  0.00     0.028 C 
ATOM      5  C   LIG d   1       5.079  89.050 115.360  0.00  0.00    -0.047 C 
ATOM      6  C   LIG d   1       3.557  89.319 115.400  0.00  0.00     0.091 C 
ENDROOT
BRANCH   1   7
ATOM      7  O   LIG d   1       1.826  90.479 116.688  0.00  0.00    -0.368 OA
BRANCH   7   8
ATOM      8  C   LIG d   1       0.807  90.029 117.614  0.00  0.00     0.119 C 
BRANCH   8   9
ATOM      9  C   LIG d   1      -0.297  89.339 116.789  0.00  0.00     0.028 C 
ATOM     10  C   LIG d   1      -1.698  89.553 117.387  0.00  0.00     0.006 C 
ENDBRANCH   8   9
BRANCH   8  11
ATOM     11  C   LIG d   1       0.118  91.211 118.303  0.00  0.00     0.028 C 
ATOM     12  C   LIG d   1       0.505  92.566 117.689  0.00  0.00     0.006 C 
ENDBRANCH   8  11
ENDBRANCH   7   8
ENDBRANCH   1   7
BRANCH   6  13
ATOM     13  N   LIG d   1       2.759  88.106 115.081  0.00  0.00    -0.311 N 
ATOM     14  C   LIG d   1       2.328  87.814 113.855  0.00  0.00     0.210 C 
ATOM     15  C   LIG d   1       1.504  86.527 113.749  0.00  0.00     0.109 C 
ATOM     16  O   LIG d   1       2.577  88.482 112.840  0.00  0.00    -0.276 OA
ATOM     17  H   LIG d   1       2.538  87.493 115.841  0.00  0.00     0.149 HD
ENDBRANCH   6  13
BRANCH   5  18
ATOM     18  N   LIG d   1       5.565  88.678 114.018  0.00  0.00     0.381 N 
ATOM     19  H   LIG d   1       6.503  89.003 113.895  0.00  0.00    -0.090 HD
ATOM     20  H   LIG d   1       4.985  89.122 113.327  0.00  0.00    -0.090 HD
ATOM     21  H   LIG d   1       5.531  87.689 113.904  0.00  0.00    -0.090 HD
ENDBRANCH   5  18
BRANCH   3  22
ATOM     22  C   LIG d   1       6.253  91.544 117.793  0.00  0.00     0.382 C 
ATOM     23  O   LIG d   1       7.472  91.563 117.495  0.00  0.00    -0.241 OA
ATOM     24  O   LIG d   1       5.866  92.114 118.830  0.00  0.00    -0.241 OA
ENDBRANCH   3  22
TORSDOF 7
ENDMDL
MODEL 4
REMARK VINA RESULT:      -5.0      2.423      5.452
REMARK  7 active torsions:
REMARK  status: ('A' for Active; 'I' for Inactive)
REMARK    1  A    between atoms: C_2  and  C_3 
REMARK    2  A    between atoms: C_3  and  O_6 
REMARK    3  A    between atoms: C_3  and  C_4 
REMARK    4  A    between atoms: C_7  and  O_6 
REMARK    5  A    between atoms: C_9  and  C_10 
REMARK    6  A    between atoms: N_15  and  C_14 
REMARK    7  A    between atoms: N_20  and  C_19 
REMARK       I    between atoms: C_22  and  N_20 
ROOT
ATOM      1  C   LIG d   1       2.851  90.036 116.596  0.00  0.00     0.161 C 
ATOM      2  C   LIG d   1       2.754  89.388 115.353  0.00  0.00     0.016 C 
ATOM      3  C   LIG d   1       3.857  88.794 114.697  0.00  0.00     0.038 C 
ATOM      4  C   LIG d   1       5.111  88.675 115.314  0.00  0.00     0.028 C 
ATOM      5  C   LIG d   1       5.380  89.759 116.353  0.00  0.00    -0.047 C 
ATOM      6  C   LIG d   1       4.188  89.819 117.335  0.00  0.00     0.091 C 
ENDROOT
BRANCH   1   7
ATOM      7  O   LIG d   1       1.745  89.650 117.436  0.00  0.00    -0.368 OA
BRANCH   7   8
ATOM      8  C   LIG d   1       0.467  90.256 117.125  0.00  0.00     0.119 C 
BRANCH   8   9
ATOM      9  C   LIG d   1       0.574  91.758 117.453  0.00  0.00     0.028 C 
ATOM     10  C   LIG d   1       0.613  92.026 118.967  0.00  0.00     0.006 C 
ENDBRANCH   8   9
BRANCH   8  11
ATOM     11  C   LIG d   1      -0.641  89.720 118.036  0.00  0.00     0.028 C 
ATOM     12  C   LIG d   1      -1.993  89.587 117.317  0.00  0.00     0.006 C 
ENDBRANCH   8  11
ENDBRANCH   7   8
ENDBRANCH   1   7
BRANCH   6  13
ATOM     13  N   LIG d   1       4.331  90.910 118.334  0.00  0.00    -0.311 N 
ATOM     14  C   LIG d   1       4.218  92.202 118.030  0.00  0.00     0.210 C 
ATOM     15  C   LIG d   1       4.422  93.163 119.206  0.00  0.00     0.109 C 
ATOM     16  O   LIG d   1       3.937  92.642 116.905  0.00  0.00    -0.276 OA
ATOM     17  H   LIG d   1       4.530  90.641 119.278  0.00  0.00     0.149 HD
ENDBRANCH   6  13
BRANCH   5  18
ATOM     18  N   LIG d   1       6.658  89.435 117.014  0.00  0.00     0.381 N 
ATOM     19  H   LIG d   1       6.832  88.452 116.953  0.00  0.00    -0.090 HD
ATOM     20  H   LIG d   1       6.594  89.685 117.985  0.00  0.00    -0.090 HD
ATOM     21  H   LIG d   1       7.402  89.939 116.582  0.00  0.00    -0.090 HD
ENDBRANCH   5  18
BRANCH   3  22
ATOM     22  C   LIG d   1       3.720  88.347 113.392  0.00  0.00     0.382 C 
ATOM     23  O   LIG d   1       2.631  88.499 112.788  0.00  0.00    -0.241 OA
ATOM     24  O   LIG d   1       4.658  87.753 112.826  0.00  0.00    -0.241 OA
ENDBRANCH   3  22
TORSDOF 7
ENDMDL
MODEL 5
REMARK VINA RESULT:      -4.9      2.654      5.329
REMARK  7 active torsions:
REMARK  status: ('A' for Active; 'I' for Inactive)
REMARK    1  A    between atoms: C_2  and  C_3 
REMARK    2  A    between atoms: C_3  and  O_6 
REMARK    3  A    between atoms: C_3  and  C_4 
REMARK    4  A    between atoms: C_7  and  O_6 
REMARK    5  A    between atoms: C_9  and  C_10 
REMARK    6  A    between atoms: N_15  and  C_14 
REMARK    7  A    between atoms: N_20  and  C_19 
REMARK       I    between atoms: C_22  and  N_20 
ROOT
ATOM      1  C   LIG d   1       3.831  88.613 116.909  0.00  0.00     0.161 C 
ATOM      2  C   LIG d   1       4.599  89.458 117.727  0.00  0.00     0.016 C 
ATOM      3  C   LIG d   1       5.586  90.339 117.226  0.00  0.00     0.038 C 
ATOM      4  C   LIG d   1       5.767  90.544 115.851  0.00  0.00     0.028 C 
ATOM      5  C   LIG d   1       5.365  89.344 115.001  0.00  0.00    -0.047 C 
ATOM      6  C   LIG d   1       3.937  88.904 115.398  0.00  0.00     0.091 C 
ENDROOT
BRANCH   1   7
ATOM      7  O   LIG d   1       2.453  88.646 117.330  0.00  0.00    -0.368 OA
BRANCH   7   8
ATOM      8  C   LIG d   1       1.632  89.687 116.745  0.00  0.00     0.119 C 
BRANCH   8   9
ATOM      9  C   LIG d   1       1.293  90.693 117.862  0.00  0.00     0.028 C 
ATOM     10  C   LIG d   1       1.931  92.072 117.623  0.00  0.00     0.006 C 
ENDBRANCH   8   9
BRANCH   8  11
ATOM     11  C   LIG d   1       0.284  89.134 116.274  0.00  0.00     0.028 C 
ATOM     12  C   LIG d   1      -0.872  89.497 117.220  0.00  0.00     0.006 C 
ENDBRANCH   8  11
ENDBRANCH   7   8
ENDBRANCH   1   7
BRANCH   6  13
ATOM     13  N   LIG d   1       3.498  87.683 114.673  0.00  0.00    -0.311 N 
ATOM     14  C   LIG d   1       2.829  87.714 113.522  0.00  0.00     0.210 C 
ATOM     15  C   LIG d   1       2.455  86.342 112.953  0.00  0.00     0.109 C 
ATOM     16  O   LIG d   1       2.537  88.748 112.901  0.00  0.00    -0.276 OA
ATOM     17  H   LIG d   1       3.720  86.800 115.090  0.00  0.00     0.149 HD
ENDBRANCH   6  13
BRANCH   5  18
ATOM     18  N   LIG d   1       5.474  89.743 113.585  0.00  0.00     0.381 N 
ATOM     19  H   LIG d   1       6.418  90.000 113.378  0.00  0.00    -0.090 HD
ATOM     20  H   LIG d   1       4.887  90.543 113.427  0.00  0.00    -0.090 HD
ATOM     21  H   LIG d   1       5.189  88.992 112.996  0.00  0.00    -0.090 HD
ENDBRANCH   5  18
BRANCH   3  22
ATOM     22  C   LIG d   1       6.431  90.996 118.107  0.00  0.00     0.382 C 
ATOM     23  O   LIG d   1       6.054  91.231 119.281  0.00  0.00    -0.241 OA
ATOM     24  O   LIG d   1       7.549  91.395 117.731  0.00  0.00    -0.241 OA
ENDBRANCH   3  22
TORSDOF 7
ENDMDL
MODEL 6
REMARK VINA RESULT:      -4.9      1.582      4.957
REMARK  7 active torsions:
REMARK  status: ('A' for Active; 'I' for Inactive)
REMARK    1  A    between atoms: C_2  and  C_3 
REMARK    2  A    between atoms: C_3  and  O_6 
REMARK    3  A    between atoms: C_3  and  C_4 
REMARK    4  A    between atoms: C_7  and  O_6 
REMARK    5  A    between atoms: C_9  and  C_10 
REMARK    6  A    between atoms: N_15  and  C_14 
REMARK    7  A    between atoms: N_20  and  C_19 
REMARK       I    between atoms: C_22  and  N_20 
ROOT
ATOM      1  C   LIG d   1       1.705  88.691 114.929  0.00  0.00     0.161 C 
ATOM      2  C   LIG d   1       3.032  88.800 114.481  0.00  0.00     0.016 C 
ATOM      3  C   LIG d   1       3.985  89.661 115.072  0.00  0.00     0.038 C 
ATOM      4  C   LIG d   1       3.715  90.364 116.255  0.00  0.00     0.028 C 
ATOM      5  C   LIG d   1       2.235  90.673 116.453  0.00  0.00    -0.047 C 
ATOM      6  C   LIG d   1       1.424  89.367 116.287  0.00  0.00     0.091 C 
ENDROOT
BRANCH   1   7
ATOM      7  O   LIG d   1       1.315  87.304 114.970  0.00  0.00    -0.368 OA
BRANCH   7   8
ATOM      8  C   LIG d   1       2.292  86.353 114.478  0.00  0.00     0.119 C 
BRANCH   8   9
ATOM      9  C   LIG d   1       1.574  85.430 113.474  0.00  0.00     0.028 C 
ATOM     10  C   LIG d   1       0.107  85.833 113.251  0.00  0.00     0.006 C 
ENDBRANCH   8   9
BRANCH   8  11
ATOM     11  C   LIG d   1       2.783  85.430 115.598  0.00  0.00     0.028 C 
ATOM     12  C   LIG d   1       4.052  85.955 116.288  0.00  0.00     0.006 C 
ENDBRANCH   8  11
ENDBRANCH   7   8
ENDBRANCH   1   7
BRANCH   6  13
ATOM     13  N   LIG d   1      -0.042  89.595 116.381  0.00  0.00    -0.311 N 
ATOM     14  C   LIG d   1      -0.711  89.595 117.533  0.00  0.00     0.210 C 
ATOM     15  C   LIG d   1      -2.220  89.829 117.404  0.00  0.00     0.109 C 
ATOM     16  O   LIG d   1      -0.194  89.455 118.652  0.00  0.00    -0.276 OA
ATOM     17  H   LIG d   1      -0.536  89.748 115.524  0.00  0.00     0.149 HD
ENDBRANCH   6  13
BRANCH   5  18
ATOM     18  N   LIG d   1       2.081  91.284 117.786  0.00  0.00     0.381 N 
ATOM     19  H   LIG d   1       2.342  92.249 117.749  0.00  0.00    -0.090 HD
ATOM     20  H   LIG d   1       2.693  90.816 118.431  0.00  0.00    -0.090 HD
ATOM     21  H   LIG d   1       1.137  91.200 118.093  0.00  0.00    -0.090 HD
ENDBRANCH   5  18
BRANCH   3  22
ATOM     22  C   LIG d   1       5.211  89.855 114.455  0.00  0.00     0.382 C 
ATOM     23  O   LIG d   1       5.361  89.552 113.247  0.00  0.00    -0.241 OA
ATOM     24  O   LIG d   1       6.183  90.289 115.103  0.00  0.00    -0.241 OA
ENDBRANCH   3  22
TORSDOF 7
ENDMDL
MODEL 7
REMARK VINA RESULT:      -4.6      2.694      3.660
REMARK  7 active torsions:
REMARK  status: ('A' for Active; 'I' for Inactive)
REMARK    1  A    between atoms: C_2  and  C_3 
REMARK    2  A    between atoms: C_3  and  O_6 
REMARK    3  A    between atoms: C_3  and  C_4 
REMARK    4  A    between atoms: C_7  and  O_6 
REMARK    5  A    between atoms: C_9  and  C_10 
REMARK    6  A    between atoms: N_15  and  C_14 
REMARK    7  A    between atoms: N_20  and  C_19 
REMARK       I    between atoms: C_22  and  N_20 
ROOT
ATOM      1  C   LIG d   1       3.436  90.089 116.403  0.00  0.00     0.161 C 
ATOM      2  C   LIG d   1       2.393  90.982 116.701  0.00  0.00     0.016 C 
ATOM      3  C   LIG d   1       2.396  91.831 117.832  0.00  0.00     0.038 C 
ATOM      4  C   LIG d   1       3.519  91.954 118.664  0.00  0.00     0.028 C 
ATOM      5  C   LIG d   1       4.392  90.704 118.691  0.00  0.00    -0.047 C 
ATOM      6  C   LIG d   1       4.718  90.288 117.238  0.00  0.00     0.091 C 
ENDROOT
BRANCH   1   7
ATOM      7  O   LIG d   1       3.741  90.146 114.995  0.00  0.00    -0.368 OA
BRANCH   7   8
ATOM      8  C   LIG d   1       3.426  88.960 114.225  0.00  0.00     0.119 C 
BRANCH   8   9
ATOM      9  C   LIG d   1       2.705  87.975 115.167  0.00  0.00     0.028 C 
ATOM     10  C   LIG d   1       3.330  86.570 115.136  0.00  0.00     0.006 C 
ENDBRANCH   8   9
BRANCH   8  11
ATOM     11  C   LIG d   1       4.697  88.234 113.776  0.00  0.00     0.028 C 
ATOM     12  C   LIG d   1       5.896  89.181 113.606  0.00  0.00     0.006 C 
ENDBRANCH   8  11
ENDBRANCH   7   8
ENDBRANCH   1   7
BRANCH   6  13
ATOM     13  N   LIG d   1       5.499  89.026 117.171  0.00  0.00    -0.311 N 
ATOM     14  C   LIG d   1       6.829  88.990 117.105  0.00  0.00     0.210 C 
ATOM     15  C   LIG d   1       7.434  87.585 117.023  0.00  0.00     0.109 C 
ATOM     16  O   LIG d   1       7.566  89.986 117.139  0.00  0.00    -0.276 OA
ATOM     17  H   LIG d   1       4.982  88.169 117.170  0.00  0.00     0.149 HD
ENDBRANCH   6  13
BRANCH   5  18
ATOM     18  N   LIG d   1       5.595  91.018 119.485  0.00  0.00     0.381 N 
ATOM     19  H   LIG d   1       6.246  90.261 119.427  0.00  0.00    -0.090 HD
ATOM     20  H   LIG d   1       5.328  91.132 120.447  0.00  0.00    -0.090 HD
ATOM     21  H   LIG d   1       6.017  91.856 119.149  0.00  0.00    -0.090 HD
ENDBRANCH   5  18
BRANCH   3  22
ATOM     22  C   LIG d   1       1.251  92.540 118.161  0.00  0.00     0.382 C 
ATOM     23  O   LIG d   1       1.003  92.806 119.362  0.00  0.00    -0.241 OA
ATOM     24  O   LIG d   1       0.441  92.878 117.278  0.00  0.00    -0.241 OA
ENDBRANCH   3  22
TORSDOF 7
ENDMDL
MODEL 8
REMARK VINA RESULT:      -4.6      1.745      2.170
REMARK  7 active torsions:
REMARK  status: ('A' for Active; 'I' for Inactive)
REMARK    1  A    between atoms: C_2  and  C_3 
REMARK    2  A    between atoms: C_3  and  O_6 
REMARK    3  A    between atoms: C_3  and  C_4 
REMARK    4  A    between atoms: C_7  and  O_6 
REMARK    5  A    between atoms: C_9  and  C_10 
REMARK    6  A    between atoms: N_15  and  C_14 
REMARK    7  A    between atoms: N_20  and  C_19 
REMARK       I    between atoms: C_22  and  N_20 
ROOT
ATOM      1  C   LIG d   1       1.681  89.267 116.248  0.00  0.00     0.161 C 
ATOM      2  C   LIG d   1       0.287  89.319 116.409  0.00  0.00     0.016 C 
ATOM      3  C   LIG d   1      -0.364  90.236 117.266  0.00  0.00     0.038 C 
ATOM      4  C   LIG d   1       0.330  91.271 117.909  0.00  0.00     0.028 C 
ATOM      5  C   LIG d   1       1.796  90.945 118.172  0.00  0.00    -0.047 C 
ATOM      6  C   LIG d   1       2.447  90.461 116.856  0.00  0.00     0.091 C 
ENDROOT
BRANCH   1   7
ATOM      7  O   LIG d   1       2.007  89.122 114.851  0.00  0.00    -0.368 OA
BRANCH   7   8
ATOM      8  C   LIG d   1       2.476  87.815 114.439  0.00  0.00     0.119 C 
BRANCH   8   9
ATOM      9  C   LIG d   1       2.819  87.022 115.715  0.00  0.00     0.028 C 
ATOM     10  C   LIG d   1       4.306  86.636 115.783  0.00  0.00     0.006 C 
ENDBRANCH   8   9
BRANCH   8  11
ATOM     11  C   LIG d   1       3.789  87.915 113.657  0.00  0.00     0.028 C 
ATOM     12  C   LIG d   1       3.824  86.991 112.430  0.00  0.00     0.006 C 
ENDBRANCH   8  11
ENDBRANCH   7   8
ENDBRANCH   1   7
BRANCH   6  13
ATOM     13  N   LIG d   1       3.860  90.041 117.043  0.00  0.00    -0.311 N 
ATOM     14  C   LIG d   1       4.889  90.884 116.989  0.00  0.00     0.210 C 
ATOM     15  C   LIG d   1       6.265  90.240 117.189  0.00  0.00     0.109 C 
ATOM     16  O   LIG d   1       4.791  92.110 116.825  0.00  0.00    -0.276 OA
ATOM     17  H   LIG d   1       4.028  89.068 117.212  0.00  0.00     0.149 HD
ENDBRANCH   6  13
BRANCH   5  18
ATOM     18  N   LIG d   1       2.432  92.158 118.720  0.00  0.00     0.381 N 
ATOM     19  H   LIG d   1       2.618  92.032 119.695  0.00  0.00    -0.090 HD
ATOM     20  H   LIG d   1       1.799  92.931 118.617  0.00  0.00    -0.090 HD
ATOM     21  H   LIG d   1       3.281  92.347 118.234  0.00  0.00    -0.090 HD
ENDBRANCH   5  18
BRANCH   3  22
ATOM     22  C   LIG d   1      -1.721  90.097 117.517  0.00  0.00     0.382 C 
ATOM     23  O   LIG d   1      -2.287  90.859 118.338  0.00  0.00    -0.241 OA
ATOM     24  O   LIG d   1      -2.376  89.192 116.967  0.00  0.00    -0.241 OA
ENDBRANCH   3  22
TORSDOF 7
ENDMDL
MODEL 9
REMARK VINA RESULT:      -4.6      1.823      2.214
REMARK  7 active torsions:
REMARK  status: ('A' for Active; 'I' for Inactive)
REMARK    1  A    between atoms: C_2  and  C_3 
REMARK    2  A    between atoms: C_3  and  O_6 
REMARK    3  A    between atoms: C_3  and  C_4 
REMARK    4  A    between atoms: C_7  and  O_6 
REMARK    5  A    between atoms: C_9  and  C_10 
REMARK    6  A    between atoms: N_15  and  C_14 
REMARK    7  A    between atoms: N_20  and  C_19 
REMARK       I    between atoms: C_22  and  N_20 
ROOT
ATOM      1  C   LIG d   1       2.538  89.710 116.280  0.00  0.00     0.161 C 
ATOM      2  C   LIG d   1       1.417  90.494 116.600  0.00  0.00     0.016 C 
ATOM      3  C   LIG d   1       1.481  91.647 117.417  0.00  0.00     0.038 C 
ATOM      4  C   LIG d   1       2.704  92.182 117.848  0.00  0.00     0.028 C 
ATOM      5  C   LIG d   1       3.812  91.142 117.970  0.00  0.00    -0.047 C 
ATOM      6  C   LIG d   1       3.896  90.342 116.650  0.00  0.00     0.091 C 
ENDROOT
BRANCH   1   7
ATOM      7  O   LIG d   1       2.510  89.366 114.881  0.00  0.00    -0.368 OA
BRANCH   7   8
ATOM      8  C   LIG d   1       2.544  87.951 114.571  0.00  0.00     0.119 C 
BRANCH   8   9
ATOM      9  C   LIG d   1       2.929  87.811 113.086  0.00  0.00     0.028 C 
ATOM     10  C   LIG d   1       4.399  87.400 112.897  0.00  0.00     0.006 C 
ENDBRANCH   8   9
BRANCH   8  11
ATOM     11  C   LIG d   1       1.153  87.320 114.691  0.00  0.00     0.028 C 
ATOM     12  C   LIG d   1       0.922  86.190 113.676  0.00  0.00     0.006 C 
ENDBRANCH   8  11
ENDBRANCH   7   8
ENDBRANCH   1   7
BRANCH   6  13
ATOM     13  N   LIG d   1       4.899  89.246 116.714  0.00  0.00    -0.311 N 
ATOM     14  C   LIG d   1       5.877  89.095 115.823  0.00  0.00     0.210 C 
ATOM     15  C   LIG d   1       6.789  87.888 116.063  0.00  0.00     0.109 C 
ATOM     16  O   LIG d   1       6.094  89.863 114.874  0.00  0.00    -0.276 OA
ATOM     17  H   LIG d   1       4.815  88.595 117.470  0.00  0.00     0.149 HD
ENDBRANCH   6  13
BRANCH   5  18
ATOM     18  N   LIG d   1       5.061  91.856 118.294  0.00  0.00     0.381 N 
ATOM     19  H   LIG d   1       5.738  91.211 118.649  0.00  0.00    -0.090 HD
ATOM     20  H   LIG d   1       4.870  92.538 119.007  0.00  0.00    -0.090 HD
ATOM     21  H   LIG d   1       5.416  92.307 117.480  0.00  0.00    -0.090 HD
ENDBRANCH   5  18
BRANCH   3  22
ATOM     22  C   LIG d   1       0.309  92.253 117.843  0.00  0.00     0.382 C 
ATOM     23  O   LIG d   1      -0.410  91.691 118.704  0.00  0.00    -0.241 OA
ATOM     24  O   LIG d   1      -0.060  93.333 117.345  0.00  0.00    -0.241 OA
ENDBRANCH   3  22
TORSDOF 7
ENDMDL
