MODEL 1
REMARK VINA RESULT:      -4.6      0.000      0.000
REMARK  7 active torsions:
REMARK  status: ('A' for Active; 'I' for Inactive)
REMARK    1  A    between atoms: C_2  and  C_3 
REMARK    2  A    between atoms: C_3  and  O_6 
REMARK    3  A    between atoms: C_3  and  C_4 
REMARK    4  A    between atoms: C_7  and  O_6 
REMARK    5  A    between atoms: C_9  and  C_10 
REMARK    6  A    between atoms: N_15  and  C_14 
REMARK    7  A    between atoms: N_20  and  C_19 
REMARK       I    between atoms: C_22  and  N_20 
ROOT
ATOM      1  C   LIG d   1       3.523  90.083 116.835  0.00  0.00     0.161 C 
ATOM      2  C   LIG d   1       2.430  90.862 117.249  0.00  0.00     0.016 C 
ATOM      3  C   LIG d   1       2.486  91.765 118.335  0.00  0.00     0.038 C 
ATOM      4  C   LIG d   1       3.689  92.063 118.991  0.00  0.00     0.028 C 
ATOM      5  C   LIG d   1       4.706  90.928 118.936  0.00  0.00    -0.047 C 
ATOM      6  C   LIG d   1       4.875  90.476 117.467  0.00  0.00     0.091 C 
ENDROOT
BRANCH   1   7
ATOM      7  O   LIG d   1       3.619  90.100 115.397  0.00  0.00    -0.368 OA
BRANCH   7   8
ATOM      8  C   LIG d   1       3.289  88.862 114.721  0.00  0.00     0.119 C 
BRANCH   8   9
ATOM      9  C   LIG d   1       3.241  87.751 115.787  0.00  0.00     0.028 C 
ATOM     10  C   LIG d   1       4.090  86.528 115.398  0.00  0.00     0.006 C 
ENDBRANCH   8   9
BRANCH   8  11
ATOM     11  C   LIG d   1       4.397  88.445 113.749  0.00  0.00     0.028 C 
ATOM     12  C   LIG d   1       5.517  89.491 113.638  0.00  0.00     0.006 C 
ENDBRANCH   8  11
ENDBRANCH   7   8
ENDBRANCH   1   7
BRANCH   6  13
ATOM     13  N   LIG d   1       5.790  89.312 117.334  0.00  0.00    -0.311 N 
ATOM     14  C   LIG d   1       7.099  89.430 117.121  0.00  0.00     0.210 C 
ATOM     15  C   LIG d   1       7.855  88.104 116.994  0.00  0.00     0.109 C 
ATOM     16  O   LIG d   1       7.711  90.507 117.057  0.00  0.00    -0.276 OA
ATOM     17  H   LIG d   1       5.381  88.401 117.404  0.00  0.00     0.149 HD
ENDBRANCH   6  13
BRANCH   5  18
ATOM     18  N   LIG d   1       5.960  91.423 119.536  0.00  0.00     0.381 N 
ATOM     19  H   LIG d   1       5.785  91.746 120.466  0.00  0.00    -0.090 HD
ATOM     20  H   LIG d   1       6.297  92.197 118.991  0.00  0.00    -0.090 HD
ATOM     21  H   LIG d   1       6.641  90.696 119.551  0.00  0.00    -0.090 HD
ENDBRANCH   5  18
BRANCH   3  22
ATOM     22  C   LIG d   1       1.319  92.351 118.802  0.00  0.00     0.382 C 
ATOM     23  O   LIG d   1       1.377  93.295 119.626  0.00  0.00    -0.241 OA
ATOM     24  O   LIG d   1       0.207  91.919 118.442  0.00  0.00    -0.241 OA
ENDBRANCH   3  22
TORSDOF 7
ENDMDL
MODEL 2
REMARK VINA RESULT:      -4.3      1.776      2.286
REMARK  7 active torsions:
REMARK  status: ('A' for Active; 'I' for Inactive)
REMARK    1  A    between atoms: C_2  and  C_3 
REMARK    2  A    between atoms: C_3  and  O_6 
REMARK    3  A    between atoms: C_3  and  C_4 
REMARK    4  A    between atoms: C_7  and  O_6 
REMARK    5  A    between atoms: C_9  and  C_10 
REMARK    6  A    between atoms: N_15  and  C_14 
REMARK    7  A    between atoms: N_20  and  C_19 
REMARK       I    between atoms: C_22  and  N_20 
ROOT
ATOM      1  C   LIG d   1       4.912  88.241 116.650  0.00  0.00     0.161 C 
ATOM      2  C   LIG d   1       3.885  89.198 116.697  0.00  0.00     0.016 C 
ATOM      3  C   LIG d   1       4.017  90.450 117.341  0.00  0.00     0.038 C 
ATOM      4  C   LIG d   1       5.245  90.893 117.855  0.00  0.00     0.028 C 
ATOM      5  C   LIG d   1       6.171  89.757 118.276  0.00  0.00    -0.047 C 
ATOM      6  C   LIG d   1       6.294  88.752 117.109  0.00  0.00     0.091 C 
ENDROOT
BRANCH   1   7
ATOM      7  O   LIG d   1       4.999  87.683 115.324  0.00  0.00    -0.368 OA
BRANCH   7   8
ATOM      8  C   LIG d   1       3.841  87.873 114.474  0.00  0.00     0.119 C 
BRANCH   8   9
ATOM      9  C   LIG d   1       3.278  86.479 114.139  0.00  0.00     0.028 C 
ATOM     10  C   LIG d   1       3.064  86.279 112.629  0.00  0.00     0.006 C 
ENDBRANCH   8   9
BRANCH   8  11
ATOM     11  C   LIG d   1       4.233  88.487 113.127  0.00  0.00     0.028 C 
ATOM     12  C   LIG d   1       5.427  89.449 113.235  0.00  0.00     0.006 C 
ENDBRANCH   8  11
ENDBRANCH   7   8
ENDBRANCH   1   7
BRANCH   6  13
ATOM     13  N   LIG d   1       7.116  87.566 117.466  0.00  0.00    -0.311 N 
ATOM     14  C   LIG d   1       8.431  87.498 117.266  0.00  0.00     0.210 C 
ATOM     15  C   LIG d   1       9.081  86.177 117.688  0.00  0.00     0.109 C 
ATOM     16  O   LIG d   1       9.125  88.418 116.808  0.00  0.00    -0.276 OA
ATOM     17  H   LIG d   1       6.638  86.785 117.872  0.00  0.00     0.149 HD
ENDBRANCH   6  13
BRANCH   5  18
ATOM     18  N   LIG d   1       7.463  90.356 118.662  0.00  0.00     0.381 N 
ATOM     19  H   LIG d   1       7.352  91.340 118.803  0.00  0.00    -0.090 HD
ATOM     20  H   LIG d   1       8.122  90.216 117.917  0.00  0.00    -0.090 HD
ATOM     21  H   LIG d   1       7.800  89.929 119.497  0.00  0.00    -0.090 HD
ENDBRANCH   5  18
BRANCH   3  22
ATOM     22  C   LIG d   1       2.902  91.257 117.510  0.00  0.00     0.382 C 
ATOM     23  O   LIG d   1       1.757  90.745 117.539  0.00  0.00    -0.241 OA
ATOM     24  O   LIG d   1       3.024  92.494 117.591  0.00  0.00    -0.241 OA
ENDBRANCH   3  22
TORSDOF 7
ENDMDL
MODEL 3
REMARK VINA RESULT:      -4.2      2.144      5.091
REMARK  7 active torsions:
REMARK  status: ('A' for Active; 'I' for Inactive)
REMARK    1  A    between atoms: C_2  and  C_3 
REMARK    2  A    between atoms: C_3  and  O_6 
REMARK    3  A    between atoms: C_3  and  C_4 
REMARK    4  A    between atoms: C_7  and  O_6 
REMARK    5  A    between atoms: C_9  and  C_10 
REMARK    6  A    between atoms: N_15  and  C_14 
REMARK    7  A    between atoms: N_20  and  C_19 
REMARK       I    between atoms: C_22  and  N_20 
ROOT
ATOM      1  C   LIG d   1       2.520  89.943 116.552  0.00  0.00     0.161 C 
ATOM      2  C   LIG d   1       3.813  89.522 116.202  0.00  0.00     0.016 C 
ATOM      3  C   LIG d   1       4.990  90.110 116.721  0.00  0.00     0.038 C 
ATOM      4  C   LIG d   1       4.951  91.066 117.747  0.00  0.00     0.028 C 
ATOM      5  C   LIG d   1       3.661  91.879 117.768  0.00  0.00    -0.047 C 
ATOM      6  C   LIG d   1       2.457  90.909 117.753  0.00  0.00     0.091 C 
ENDROOT
BRANCH   1   7
ATOM      7  O   LIG d   1       1.679  88.796 116.787  0.00  0.00    -0.368 OA
BRANCH   7   8
ATOM      8  C   LIG d   1       2.338  87.506 116.755  0.00  0.00     0.119 C 
BRANCH   8   9
ATOM      9  C   LIG d   1       1.562  86.614 115.767  0.00  0.00     0.028 C 
ATOM     10  C   LIG d   1       2.378  86.286 114.506  0.00  0.00     0.006 C 
ENDBRANCH   8   9
BRANCH   8  11
ATOM     11  C   LIG d   1       2.238  86.795 118.108  0.00  0.00     0.028 C 
ATOM     12  C   LIG d   1       3.284  87.289 119.120  0.00  0.00     0.006 C 
ENDBRANCH   8  11
ENDBRANCH   7   8
ENDBRANCH   1   7
BRANCH   6  13
ATOM     13  N   LIG d   1       1.155  91.624 117.687  0.00  0.00    -0.311 N 
ATOM     14  C   LIG d   1       0.504  92.061 118.764  0.00  0.00     0.210 C 
ATOM     15  C   LIG d   1      -0.831  92.754 118.475  0.00  0.00     0.109 C 
ATOM     16  O   LIG d   1       0.921  91.970 119.928  0.00  0.00    -0.276 OA
ATOM     17  H   LIG d   1       0.759  91.768 116.779  0.00  0.00     0.149 HD
ENDBRANCH   6  13
BRANCH   5  18
ATOM     18  N   LIG d   1       3.695  92.738 118.966  0.00  0.00     0.381 N 
ATOM     19  H   LIG d   1       4.559  92.605 119.454  0.00  0.00    -0.090 HD
ATOM     20  H   LIG d   1       2.944  92.474 119.578  0.00  0.00    -0.090 HD
ATOM     21  H   LIG d   1       3.598  93.694 118.703  0.00  0.00    -0.090 HD
ENDBRANCH   5  18
BRANCH   3  22
ATOM     22  C   LIG d   1       6.222  89.770 116.184  0.00  0.00     0.382 C 
ATOM     23  O   LIG d   1       6.284  89.015 115.184  0.00  0.00    -0.241 OA
ATOM     24  O   LIG d   1       7.275  90.173 116.714  0.00  0.00    -0.241 OA
ENDBRANCH   3  22
TORSDOF 7
ENDMDL
MODEL 4
REMARK VINA RESULT:      -4.2      1.912      5.206
REMARK  7 active torsions:
REMARK  status: ('A' for Active; 'I' for Inactive)
REMARK    1  A    between atoms: C_2  and  C_3 
REMARK    2  A    between atoms: C_3  and  O_6 
REMARK    3  A    between atoms: C_3  and  C_4 
REMARK    4  A    between atoms: C_7  and  O_6 
REMARK    5  A    between atoms: C_9  and  C_10 
REMARK    6  A    between atoms: N_15  and  C_14 
REMARK    7  A    between atoms: N_20  and  C_19 
REMARK       I    between atoms: C_22  and  N_20 
ROOT
ATOM      1  C   LIG d   1       4.840  90.058 116.843  0.00  0.00     0.161 C 
ATOM      2  C   LIG d   1       4.427  89.947 115.506  0.00  0.00     0.016 C 
ATOM      3  C   LIG d   1       4.903  88.951 114.624  0.00  0.00     0.038 C 
ATOM      4  C   LIG d   1       5.718  87.897 115.066  0.00  0.00     0.028 C 
ATOM      5  C   LIG d   1       6.562  88.255 116.284  0.00  0.00    -0.047 C 
ATOM      6  C   LIG d   1       5.643  88.852 117.374  0.00  0.00     0.091 C 
ENDROOT
BRANCH   1   7
ATOM      7  O   LIG d   1       3.700  90.312 117.688  0.00  0.00    -0.368 OA
BRANCH   7   8
ATOM      8  C   LIG d   1       3.299  91.698 117.818  0.00  0.00     0.119 C 
BRANCH   8   9
ATOM      9  C   LIG d   1       3.922  92.240 119.119  0.00  0.00     0.028 C 
ATOM     10  C   LIG d   1       5.130  93.155 118.855  0.00  0.00     0.006 C 
ENDBRANCH   8   9
BRANCH   8  11
ATOM     11  C   LIG d   1       1.785  91.824 118.010  0.00  0.00     0.028 C 
ATOM     12  C   LIG d   1       1.408  92.575 119.297  0.00  0.00     0.006 C 
ENDBRANCH   8  11
ENDBRANCH   7   8
ENDBRANCH   1   7
BRANCH   6  13
ATOM     13  N   LIG d   1       6.402  89.307 118.568  0.00  0.00    -0.311 N 
ATOM     14  C   LIG d   1       7.404  90.182 118.511  0.00  0.00     0.210 C 
ATOM     15  C   LIG d   1       8.064  90.499 119.856  0.00  0.00     0.109 C 
ATOM     16  O   LIG d   1       7.789  90.750 117.477  0.00  0.00    -0.276 OA
ATOM     17  H   LIG d   1       6.136  88.920 119.452  0.00  0.00     0.149 HD
ENDBRANCH   6  13
BRANCH   5  18
ATOM     18  N   LIG d   1       7.256  87.029 116.720  0.00  0.00     0.381 N 
ATOM     19  H   LIG d   1       8.171  87.258 117.055  0.00  0.00    -0.090 HD
ATOM     20  H   LIG d   1       7.354  86.412 115.933  0.00  0.00    -0.090 HD
ATOM     21  H   LIG d   1       6.735  86.580 117.440  0.00  0.00    -0.090 HD
ENDBRANCH   5  18
BRANCH   3  22
ATOM     22  C   LIG d   1       4.597  89.024 113.273  0.00  0.00     0.382 C 
ATOM     23  O   LIG d   1       3.416  88.845 112.888  0.00  0.00    -0.241 OA
ATOM     24  O   LIG d   1       5.493  89.223 112.432  0.00  0.00    -0.241 OA
ENDBRANCH   3  22
TORSDOF 7
ENDMDL
MODEL 5
REMARK VINA RESULT:      -4.0      1.489      2.120
REMARK  7 active torsions:
REMARK  status: ('A' for Active; 'I' for Inactive)
REMARK    1  A    between atoms: C_2  and  C_3 
REMARK    2  A    between atoms: C_3  and  O_6 
REMARK    3  A    between atoms: C_3  and  C_4 
REMARK    4  A    between atoms: C_7  and  O_6 
REMARK    5  A    between atoms: C_9  and  C_10 
REMARK    6  A    between atoms: N_15  and  C_14 
REMARK    7  A    between atoms: N_20  and  C_19 
REMARK       I    between atoms: C_22  and  N_20 
ROOT
ATOM      1  C   LIG d   1       4.478  89.841 118.314  0.00  0.00     0.161 C 
ATOM      2  C   LIG d   1       3.199  90.420 118.257  0.00  0.00     0.016 C 
ATOM      3  C   LIG d   1       2.947  91.781 118.544  0.00  0.00     0.038 C 
ATOM      4  C   LIG d   1       3.986  92.698 118.761  0.00  0.00     0.028 C 
ATOM      5  C   LIG d   1       5.250  92.058 119.325  0.00  0.00    -0.047 C 
ATOM      6  C   LIG d   1       5.638  90.850 118.441  0.00  0.00     0.091 C 
ENDROOT
BRANCH   1   7
ATOM      7  O   LIG d   1       4.679  88.987 117.170  0.00  0.00    -0.368 OA
BRANCH   7   8
ATOM      8  C   LIG d   1       5.283  89.609 116.009  0.00  0.00     0.119 C 
BRANCH   8   9
ATOM      9  C   LIG d   1       4.268  89.515 114.853  0.00  0.00     0.028 C 
ATOM     10  C   LIG d   1       4.951  89.438 113.478  0.00  0.00     0.006 C 
ENDBRANCH   8   9
BRANCH   8  11
ATOM     11  C   LIG d   1       6.511  88.827 115.535  0.00  0.00     0.028 C 
ATOM     12  C   LIG d   1       6.751  87.544 116.346  0.00  0.00     0.006 C 
ENDBRANCH   8  11
ENDBRANCH   7   8
ENDBRANCH   1   7
BRANCH   6  13
ATOM     13  N   LIG d   1       6.817  90.116 118.970  0.00  0.00    -0.311 N 
ATOM     14  C   LIG d   1       8.063  90.333 118.554  0.00  0.00     0.210 C 
ATOM     15  C   LIG d   1       9.128  89.453 119.216  0.00  0.00     0.109 C 
ATOM     16  O   LIG d   1       8.392  91.193 117.723  0.00  0.00    -0.276 OA
ATOM     17  H   LIG d   1       6.645  89.421 119.670  0.00  0.00     0.149 HD
ENDBRANCH   6  13
BRANCH   5  18
ATOM     18  N   LIG d   1       6.294  93.099 119.372  0.00  0.00     0.381 N 
ATOM     19  H   LIG d   1       7.127  92.725 119.782  0.00  0.00    -0.090 HD
ATOM     20  H   LIG d   1       5.971  93.856 119.948  0.00  0.00    -0.090 HD
ATOM     21  H   LIG d   1       6.487  93.430 118.452  0.00  0.00    -0.090 HD
ENDBRANCH   5  18
BRANCH   3  22
ATOM     22  C   LIG d   1       1.639  92.229 118.654  0.00  0.00     0.382 C 
ATOM     23  O   LIG d   1       0.716  91.622 118.061  0.00  0.00    -0.241 OA
ATOM     24  O   LIG d   1       1.377  93.259 119.304  0.00  0.00    -0.241 OA
ENDBRANCH   3  22
TORSDOF 7
ENDMDL
MODEL 6
REMARK VINA RESULT:      -4.0      3.294      5.673
REMARK  7 active torsions:
REMARK  status: ('A' for Active; 'I' for Inactive)
REMARK    1  A    between atoms: C_2  and  C_3 
REMARK    2  A    between atoms: C_3  and  O_6 
REMARK    3  A    between atoms: C_3  and  C_4 
REMARK    4  A    between atoms: C_7  and  O_6 
REMARK    5  A    between atoms: C_9  and  C_10 
REMARK    6  A    between atoms: N_15  and  C_14 
REMARK    7  A    between atoms: N_20  and  C_19 
REMARK       I    between atoms: C_22  and  N_20 
ROOT
ATOM      1  C   LIG d   1       5.082  86.926 115.918  0.00  0.00     0.161 C 
ATOM      2  C   LIG d   1       6.055  87.609 116.666  0.00  0.00     0.016 C 
ATOM      3  C   LIG d   1       6.530  88.898 116.331  0.00  0.00     0.038 C 
ATOM      4  C   LIG d   1       5.951  89.658 115.304  0.00  0.00     0.028 C 
ATOM      5  C   LIG d   1       5.314  88.810 114.208  0.00  0.00    -0.047 C 
ATOM      6  C   LIG d   1       4.358  87.784 114.859  0.00  0.00     0.091 C 
ENDROOT
BRANCH   1   7
ATOM      7  O   LIG d   1       4.125  86.313 116.805  0.00  0.00    -0.368 OA
BRANCH   7   8
ATOM      8  C   LIG d   1       3.808  87.053 118.010  0.00  0.00     0.119 C 
BRANCH   8   9
ATOM      9  C   LIG d   1       3.062  86.095 118.959  0.00  0.00     0.028 C 
ATOM     10  C   LIG d   1       1.666  85.718 118.433  0.00  0.00     0.006 C 
ENDBRANCH   8   9
BRANCH   8  11
ATOM     11  C   LIG d   1       2.823  88.190 117.724  0.00  0.00     0.028 C 
ATOM     12  C   LIG d   1       3.335  89.557 118.205  0.00  0.00     0.006 C 
ENDBRANCH   8  11
ENDBRANCH   7   8
ENDBRANCH   1   7
BRANCH   6  13
ATOM     13  N   LIG d   1       3.757  86.859 113.864  0.00  0.00    -0.311 N 
ATOM     14  C   LIG d   1       2.486  86.463 113.905  0.00  0.00     0.210 C 
ATOM     15  C   LIG d   1       2.075  85.492 112.795  0.00  0.00     0.109 C 
ATOM     16  O   LIG d   1       1.651  86.850 114.737  0.00  0.00    -0.276 OA
ATOM     17  H   LIG d   1       4.355  86.521 113.136  0.00  0.00     0.149 HD
ENDBRANCH   6  13
BRANCH   5  18
ATOM     18  N   LIG d   1       4.630  89.727 113.277  0.00  0.00     0.381 N 
ATOM     19  H   LIG d   1       4.001  90.318 113.783  0.00  0.00    -0.090 HD
ATOM     20  H   LIG d   1       4.095  89.185 112.622  0.00  0.00    -0.090 HD
ATOM     21  H   LIG d   1       5.300  90.282 112.791  0.00  0.00    -0.090 HD
ENDBRANCH   5  18
BRANCH   3  22
ATOM     22  C   LIG d   1       7.624  89.423 117.002  0.00  0.00     0.382 C 
ATOM     23  O   LIG d   1       8.679  88.751 117.104  0.00  0.00    -0.241 OA
ATOM     24  O   LIG d   1       7.555  90.541 117.546  0.00  0.00    -0.241 OA
ENDBRANCH   3  22
TORSDOF 7
ENDMDL
MODEL 7
REMARK VINA RESULT:      -3.9      2.294      4.961
REMARK  7 active torsions:
REMARK  status: ('A' for Active; 'I' for Inactive)
REMARK    1  A    between atoms: C_2  and  C_3 
REMARK    2  A    between atoms: C_3  and  O_6 
REMARK    3  A    between atoms: C_3  and  C_4 
REMARK    4  A    between atoms: C_7  and  O_6 
REMARK    5  A    between atoms: C_9  and  C_10 
REMARK    6  A    between atoms: N_15  and  C_14 
REMARK    7  A    between atoms: N_20  and  C_19 
REMARK       I    between atoms: C_22  and  N_20 
ROOT
ATOM      1  C   LIG d   1       5.708  89.928 116.226  0.00  0.00     0.161 C 
ATOM      2  C   LIG d   1       4.690  89.573 115.325  0.00  0.00     0.016 C 
ATOM      3  C   LIG d   1       4.455  88.245 114.901  0.00  0.00     0.038 C 
ATOM      4  C   LIG d   1       5.130  87.154 115.470  0.00  0.00     0.028 C 
ATOM      5  C   LIG d   1       6.510  87.512 116.011  0.00  0.00    -0.047 C 
ATOM      6  C   LIG d   1       6.382  88.739 116.942  0.00  0.00     0.091 C 
ENDROOT
BRANCH   1   7
ATOM      7  O   LIG d   1       5.199  90.870 117.191  0.00  0.00    -0.368 OA
BRANCH   7   8
ATOM      8  C   LIG d   1       3.797  90.738 117.533  0.00  0.00     0.119 C 
BRANCH   8   9
ATOM      9  C   LIG d   1       3.249  92.155 117.792  0.00  0.00     0.028 C 
ATOM     10  C   LIG d   1       1.975  92.142 118.655  0.00  0.00     0.006 C 
ENDBRANCH   8   9
BRANCH   8  11
ATOM     11  C   LIG d   1       3.615  89.985 118.854  0.00  0.00     0.028 C 
ATOM     12  C   LIG d   1       3.262  88.503 118.651  0.00  0.00     0.006 C 
ENDBRANCH   8  11
ENDBRANCH   7   8
ENDBRANCH   1   7
BRANCH   6  13
ATOM     13  N   LIG d   1       7.698  89.206 117.448  0.00  0.00    -0.311 N 
ATOM     14  C   LIG d   1       8.217  88.817 118.612  0.00  0.00     0.210 C 
ATOM     15  C   LIG d   1       9.577  89.434 118.953  0.00  0.00     0.109 C 
ATOM     16  O   LIG d   1       7.695  87.993 119.378  0.00  0.00    -0.276 OA
ATOM     17  H   LIG d   1       8.204  89.852 116.875  0.00  0.00     0.149 HD
ENDBRANCH   6  13
BRANCH   5  18
ATOM     18  N   LIG d   1       7.043  86.319 116.696  0.00  0.00     0.381 N 
ATOM     19  H   LIG d   1       8.027  86.245 116.533  0.00  0.00    -0.090 HD
ATOM     20  H   LIG d   1       6.598  85.501 116.318  0.00  0.00    -0.090 HD
ATOM     21  H   LIG d   1       6.865  86.380 117.675  0.00  0.00    -0.090 HD
ENDBRANCH   5  18
BRANCH   3  22
ATOM     22  C   LIG d   1       3.563  88.001 113.868  0.00  0.00     0.382 C 
ATOM     23  O   LIG d   1       3.505  88.786 112.891  0.00  0.00    -0.241 OA
ATOM     24  O   LIG d   1       2.785  87.030 113.921  0.00  0.00    -0.241 OA
ENDBRANCH   3  22
TORSDOF 7
ENDMDL
MODEL 8
REMARK VINA RESULT:      -3.8      2.625      4.666
REMARK  7 active torsions:
REMARK  status: ('A' for Active; 'I' for Inactive)
REMARK    1  A    between atoms: C_2  and  C_3 
REMARK    2  A    between atoms: C_3  and  O_6 
REMARK    3  A    between atoms: C_3  and  C_4 
REMARK    4  A    between atoms: C_7  and  O_6 
REMARK    5  A    between atoms: C_9  and  C_10 
REMARK    6  A    between atoms: N_15  and  C_14 
REMARK    7  A    between atoms: N_20  and  C_19 
REMARK       I    between atoms: C_22  and  N_20 
ROOT
ATOM      1  C   LIG d   1       5.477  88.996 115.520  0.00  0.00     0.161 C 
ATOM      2  C   LIG d   1       5.515  90.059 116.437  0.00  0.00     0.016 C 
ATOM      3  C   LIG d   1       4.379  90.522 117.140  0.00  0.00     0.038 C 
ATOM      4  C   LIG d   1       3.149  89.850 117.086  0.00  0.00     0.028 C 
ATOM      5  C   LIG d   1       2.937  89.079 115.787  0.00  0.00    -0.047 C 
ATOM      6  C   LIG d   1       4.167  88.179 115.532  0.00  0.00     0.091 C 
ENDROOT
BRANCH   1   7
ATOM      7  O   LIG d   1       6.609  88.129 115.729  0.00  0.00    -0.368 OA
BRANCH   7   8
ATOM      8  C   LIG d   1       7.160  88.112 117.069  0.00  0.00     0.119 C 
BRANCH   8   9
ATOM      9  C   LIG d   1       8.691  88.005 116.939  0.00  0.00     0.028 C 
ATOM     10  C   LIG d   1       9.128  86.756 116.156  0.00  0.00     0.006 C 
ENDBRANCH   8   9
BRANCH   8  11
ATOM     11  C   LIG d   1       6.729  86.856 117.832  0.00  0.00     0.028 C 
ATOM     12  C   LIG d   1       5.582  87.122 118.820  0.00  0.00     0.006 C 
ENDBRANCH   8  11
ENDBRANCH   7   8
ENDBRANCH   1   7
BRANCH   6  13
ATOM     13  N   LIG d   1       4.079  87.452 114.238  0.00  0.00    -0.311 N 
ATOM     14  C   LIG d   1       3.565  86.230 114.118  0.00  0.00     0.210 C 
ATOM     15  C   LIG d   1       3.588  85.655 112.698  0.00  0.00     0.109 C 
ATOM     16  O   LIG d   1       3.062  85.579 115.047  0.00  0.00    -0.276 OA
ATOM     17  H   LIG d   1       4.436  87.919 113.428  0.00  0.00     0.149 HD
ENDBRANCH   6  13
BRANCH   5  18
ATOM     18  N   LIG d   1       1.681  88.316 115.922  0.00  0.00     0.381 N 
ATOM     19  H   LIG d   1       1.121  88.712 116.650  0.00  0.00    -0.090 HD
ATOM     20  H   LIG d   1       1.902  87.369 116.174  0.00  0.00    -0.090 HD
ATOM     21  H   LIG d   1       1.179  88.330 115.062  0.00  0.00    -0.090 HD
ENDBRANCH   5  18
BRANCH   3  22
ATOM     22  C   LIG d   1       4.457  91.694 117.876  0.00  0.00     0.382 C 
ATOM     23  O   LIG d   1       3.857  92.723 117.483  0.00  0.00    -0.241 OA
ATOM     24  O   LIG d   1       5.157  91.748 118.906  0.00  0.00    -0.241 OA
ENDBRANCH   3  22
TORSDOF 7
ENDMDL
MODEL 9
REMARK VINA RESULT:      -3.8      2.344      4.869
REMARK  7 active torsions:
REMARK  status: ('A' for Active; 'I' for Inactive)
REMARK    1  A    between atoms: C_2  and  C_3 
REMARK    2  A    between atoms: C_3  and  O_6 
REMARK    3  A    between atoms: C_3  and  C_4 
REMARK    4  A    between atoms: C_7  and  O_6 
REMARK    5  A    between atoms: C_9  and  C_10 
REMARK    6  A    between atoms: N_15  and  C_14 
REMARK    7  A    between atoms: N_20  and  C_19 
REMARK       I    between atoms: C_22  and  N_20 
ROOT
ATOM      1  C   LIG d   1       4.930  88.700 116.831  0.00  0.00     0.161 C 
ATOM      2  C   LIG d   1       4.292  87.694 116.087  0.00  0.00     0.016 C 
ATOM      3  C   LIG d   1       2.916  87.720 115.762  0.00  0.00     0.038 C 
ATOM      4  C   LIG d   1       2.111  88.836 116.034  0.00  0.00     0.028 C 
ATOM      5  C   LIG d   1       2.593  89.654 117.227  0.00  0.00    -0.047 C 
ATOM      6  C   LIG d   1       4.093  89.979 117.040  0.00  0.00     0.091 C 
ENDROOT
BRANCH   1   7
ATOM      7  O   LIG d   1       6.198  89.024 116.229  0.00  0.00    -0.368 OA
BRANCH   7   8
ATOM      8  C   LIG d   1       7.377  88.590 116.951  0.00  0.00     0.119 C 
BRANCH   8   9
ATOM      9  C   LIG d   1       7.940  87.356 116.219  0.00  0.00     0.028 C 
ATOM     10  C   LIG d   1       7.602  86.041 116.941  0.00  0.00     0.006 C 
ENDBRANCH   8   9
BRANCH   8  11
ATOM     11  C   LIG d   1       7.020  88.100 118.357  0.00  0.00     0.028 C 
ATOM     12  C   LIG d   1       7.611  88.986 119.465  0.00  0.00     0.006 C 
ENDBRANCH   8  11
ENDBRANCH   7   8
ENDBRANCH   1   7
BRANCH   6  13
ATOM     13  N   LIG d   1       4.664  90.705 118.204  0.00  0.00    -0.311 N 
ATOM     14  C   LIG d   1       4.628  92.031 118.331  0.00  0.00     0.210 C 
ATOM     15  C   LIG d   1       5.293  92.578 119.598  0.00  0.00     0.109 C 
ATOM     16  O   LIG d   1       4.080  92.803 117.530  0.00  0.00    -0.276 OA
ATOM     17  H   LIG d   1       5.101  90.154 118.917  0.00  0.00     0.149 HD
ENDBRANCH   6  13
BRANCH   5  18
ATOM     18  N   LIG d   1       1.747  90.859 117.312  0.00  0.00     0.381 N 
ATOM     19  H   LIG d   1       1.659  91.276 116.407  0.00  0.00    -0.090 HD
ATOM     20  H   LIG d   1       2.187  91.524 117.923  0.00  0.00    -0.090 HD
ATOM     21  H   LIG d   1       0.846  90.620 117.664  0.00  0.00    -0.090 HD
ENDBRANCH   5  18
BRANCH   3  22
ATOM     22  C   LIG d   1       2.323  86.602 115.194  0.00  0.00     0.382 C 
ATOM     23  O   LIG d   1       3.019  85.597 114.913  0.00  0.00    -0.241 OA
ATOM     24  O   LIG d   1       1.108  86.603 114.919  0.00  0.00    -0.241 OA
ENDBRANCH   3  22
TORSDOF 7
ENDMDL
