MODEL 1
REMARK VINA RESULT:      -4.8      0.000      0.000
REMARK  7 active torsions:
REMARK  status: ('A' for Active; 'I' for Inactive)
REMARK    1  A    between atoms: C_2  and  C_3 
REMARK    2  A    between atoms: C_3  and  O_6 
REMARK    3  A    between atoms: C_3  and  C_4 
REMARK    4  A    between atoms: C_7  and  O_6 
REMARK    5  A    between atoms: C_9  and  C_10 
REMARK    6  A    between atoms: N_15  and  C_14 
REMARK    7  A    between atoms: N_20  and  C_19 
REMARK       I    between atoms: C_22  and  N_20 
ROOT
ATOM      1  C   LIG d   1      -5.337  92.981 118.351  0.00  0.00     0.161 C 
ATOM      2  C   LIG d   1      -6.179  92.630 117.282  0.00  0.00     0.016 C 
ATOM      3  C   LIG d   1      -5.869  91.616 116.347  0.00  0.00     0.038 C 
ATOM      4  C   LIG d   1      -4.757  90.775 116.507  0.00  0.00     0.028 C 
ATOM      5  C   LIG d   1      -3.616  91.421 117.285  0.00  0.00    -0.047 C 
ATOM      6  C   LIG d   1      -4.173  92.000 118.606  0.00  0.00     0.091 C 
ENDROOT
BRANCH   1   7
ATOM      7  O   LIG d   1      -6.116  93.156 119.550  0.00  0.00    -0.368 OA
BRANCH   7   8
ATOM      8  C   LIG d   1      -6.403  94.525 119.930  0.00  0.00     0.119 C 
BRANCH   8   9
ATOM      9  C   LIG d   1      -7.869  94.813 119.552  0.00  0.00     0.028 C 
ATOM     10  C   LIG d   1      -7.993  95.581 118.226  0.00  0.00     0.006 C 
ENDBRANCH   8   9
BRANCH   8  11
ATOM     11  C   LIG d   1      -5.571  95.516 119.111  0.00  0.00     0.028 C 
ATOM     12  C   LIG d   1      -4.446  96.170 119.930  0.00  0.00     0.006 C 
ENDBRANCH   8  11
ENDBRANCH   7   8
ENDBRANCH   1   7
BRANCH   6  13
ATOM     13  N   LIG d   1      -3.138  92.724 119.389  0.00  0.00    -0.311 N 
ATOM     14  C   LIG d   1      -2.200  93.489 118.833  0.00  0.00     0.210 C 
ATOM     15  C   LIG d   1      -1.219  94.128 119.821  0.00  0.00     0.109 C 
ATOM     16  O   LIG d   1      -2.107  93.724 117.619  0.00  0.00    -0.276 OA
ATOM     17  H   LIG d   1      -3.159  92.614 120.384  0.00  0.00     0.149 HD
ENDBRANCH   6  13
BRANCH   5  18
ATOM     18  N   LIG d   1      -2.582  90.391 117.497  0.00  0.00     0.381 N 
ATOM     19  H   LIG d   1      -2.885  89.521 117.107  0.00  0.00    -0.090 HD
ATOM     20  H   LIG d   1      -2.446  90.264 118.484  0.00  0.00    -0.090 HD
ATOM     21  H   LIG d   1      -1.727  90.674 117.071  0.00  0.00    -0.090 HD
ENDBRANCH   5  18
BRANCH   3  22
ATOM     22  C   LIG d   1      -6.654  91.462 115.215  0.00  0.00     0.382 C 
ATOM     23  O   LIG d   1      -6.632  92.333 114.313  0.00  0.00    -0.241 OA
ATOM     24  O   LIG d   1      -7.418  90.484 115.105  0.00  0.00    -0.241 OA
ENDBRANCH   3  22
TORSDOF 7
ENDMDL
MODEL 2
REMARK VINA RESULT:      -4.7      7.633     10.337
REMARK  7 active torsions:
REMARK  status: ('A' for Active; 'I' for Inactive)
REMARK    1  A    between atoms: C_2  and  C_3 
REMARK    2  A    between atoms: C_3  and  O_6 
REMARK    3  A    between atoms: C_3  and  C_4 
REMARK    4  A    between atoms: C_7  and  O_6 
REMARK    5  A    between atoms: C_9  and  C_10 
REMARK    6  A    between atoms: N_15  and  C_14 
REMARK    7  A    between atoms: N_20  and  C_19 
REMARK       I    between atoms: C_22  and  N_20 
ROOT
ATOM      1  C   LIG d   1       2.222  87.821 115.756  0.00  0.00     0.161 C 
ATOM      2  C   LIG d   1       1.220  87.718 116.735  0.00  0.00     0.016 C 
ATOM      3  C   LIG d   1       0.990  88.706 117.721  0.00  0.00     0.038 C 
ATOM      4  C   LIG d   1       1.654  89.941 117.700  0.00  0.00     0.028 C 
ATOM      5  C   LIG d   1       3.025  89.882 117.035  0.00  0.00    -0.047 C 
ATOM      6  C   LIG d   1       2.882  89.212 115.650  0.00  0.00     0.091 C 
ENDROOT
BRANCH   1   7
ATOM      7  O   LIG d   1       1.697  87.416 114.476  0.00  0.00    -0.368 OA
BRANCH   7   8
ATOM      8  C   LIG d   1       1.814  86.008 114.155  0.00  0.00     0.119 C 
BRANCH   8   9
ATOM      9  C   LIG d   1       3.292  85.731 113.819  0.00  0.00     0.028 C 
ATOM     10  C   LIG d   1       3.688  86.261 112.431  0.00  0.00     0.006 C 
ENDBRANCH   8   9
BRANCH   8  11
ATOM     11  C   LIG d   1       1.037  85.660 112.883  0.00  0.00     0.028 C 
ATOM     12  C   LIG d   1      -0.486  85.712 113.082  0.00  0.00     0.006 C 
ENDBRANCH   8  11
ENDBRANCH   7   8
ENDBRANCH   1   7
BRANCH   6  13
ATOM     13  N   LIG d   1       4.190  89.037 114.966  0.00  0.00    -0.311 N 
ATOM     14  C   LIG d   1       4.501  89.632 113.816  0.00  0.00     0.210 C 
ATOM     15  C   LIG d   1       5.895  89.301 113.273  0.00  0.00     0.109 C 
ATOM     16  O   LIG d   1       3.768  90.428 113.210  0.00  0.00    -0.276 OA
ATOM     17  H   LIG d   1       4.857  88.433 115.405  0.00  0.00     0.149 HD
ENDBRANCH   6  13
BRANCH   5  18
ATOM     18  N   LIG d   1       3.544  91.260 116.960  0.00  0.00     0.381 N 
ATOM     19  H   LIG d   1       3.794  91.579 117.875  0.00  0.00    -0.090 HD
ATOM     20  H   LIG d   1       2.822  91.861 116.603  0.00  0.00    -0.090 HD
ATOM     21  H   LIG d   1       4.339  91.293 116.360  0.00  0.00    -0.090 HD
ENDBRANCH   5  18
BRANCH   3  22
ATOM     22  C   LIG d   1       0.116  88.444 118.765  0.00  0.00     0.382 C 
ATOM     23  O   LIG d   1      -0.164  89.348 119.588  0.00  0.00    -0.241 OA
ATOM     24  O   LIG d   1      -0.361  87.304 118.919  0.00  0.00    -0.241 OA
ENDBRANCH   3  22
TORSDOF 7
ENDMDL
MODEL 3
REMARK VINA RESULT:      -4.7      2.278      3.315
REMARK  7 active torsions:
REMARK  status: ('A' for Active; 'I' for Inactive)
REMARK    1  A    between atoms: C_2  and  C_3 
REMARK    2  A    between atoms: C_3  and  O_6 
REMARK    3  A    between atoms: C_3  and  C_4 
REMARK    4  A    between atoms: C_7  and  O_6 
REMARK    5  A    between atoms: C_9  and  C_10 
REMARK    6  A    between atoms: N_15  and  C_14 
REMARK    7  A    between atoms: N_20  and  C_19 
REMARK       I    between atoms: C_22  and  N_20 
ROOT
ATOM      1  C   LIG d   1      -2.997  93.114 118.154  0.00  0.00     0.161 C 
ATOM      2  C   LIG d   1      -4.359  92.978 117.838  0.00  0.00     0.016 C 
ATOM      3  C   LIG d   1      -4.953  91.750 117.467  0.00  0.00     0.038 C 
ATOM      4  C   LIG d   1      -4.252  90.537 117.535  0.00  0.00     0.028 C 
ATOM      5  C   LIG d   1      -2.746  90.697 117.362  0.00  0.00    -0.047 C 
ATOM      6  C   LIG d   1      -2.241  91.781 118.342  0.00  0.00     0.091 C 
ENDROOT
BRANCH   1   7
ATOM      7  O   LIG d   1      -2.847  93.943 119.323  0.00  0.00    -0.368 OA
BRANCH   7   8
ATOM      8  C   LIG d   1      -1.901  95.035 119.213  0.00  0.00     0.119 C 
BRANCH   8   9
ATOM      9  C   LIG d   1      -2.523  96.259 119.913  0.00  0.00     0.028 C 
ATOM     10  C   LIG d   1      -3.209  97.216 118.924  0.00  0.00     0.006 C 
ENDBRANCH   8   9
BRANCH   8  11
ATOM     11  C   LIG d   1      -1.706  95.459 117.754  0.00  0.00     0.028 C 
ATOM     12  C   LIG d   1      -0.226  95.585 117.362  0.00  0.00     0.006 C 
ENDBRANCH   8  11
ENDBRANCH   7   8
ENDBRANCH   1   7
BRANCH   6  13
ATOM     13  N   LIG d   1      -0.790  92.061 118.179  0.00  0.00    -0.311 N 
ATOM     14  C   LIG d   1       0.155  91.487 118.923  0.00  0.00     0.210 C 
ATOM     15  C   LIG d   1       1.586  91.931 118.604  0.00  0.00     0.109 C 
ATOM     16  O   LIG d   1      -0.054  90.629 119.794  0.00  0.00    -0.276 OA
ATOM     17  H   LIG d   1      -0.529  92.722 117.474  0.00  0.00     0.149 HD
ENDBRANCH   6  13
BRANCH   5  18
ATOM     18  N   LIG d   1      -2.128  89.378 117.593  0.00  0.00     0.381 N 
ATOM     19  H   LIG d   1      -2.640  88.881 118.294  0.00  0.00    -0.090 HD
ATOM     20  H   LIG d   1      -1.189  89.512 117.924  0.00  0.00    -0.090 HD
ATOM     21  H   LIG d   1      -2.117  88.853 116.745  0.00  0.00    -0.090 HD
ENDBRANCH   5  18
BRANCH   3  22
ATOM     22  C   LIG d   1      -6.253  91.734 116.984  0.00  0.00     0.382 C 
ATOM     23  O   LIG d   1      -6.763  90.656 116.593  0.00  0.00    -0.241 OA
ATOM     24  O   LIG d   1      -6.907  92.790 116.894  0.00  0.00    -0.241 OA
ENDBRANCH   3  22
TORSDOF 7
ENDMDL
MODEL 4
REMARK VINA RESULT:      -4.6      7.963     10.880
REMARK  7 active torsions:
REMARK  status: ('A' for Active; 'I' for Inactive)
REMARK    1  A    between atoms: C_2  and  C_3 
REMARK    2  A    between atoms: C_3  and  O_6 
REMARK    3  A    between atoms: C_3  and  C_4 
REMARK    4  A    between atoms: C_7  and  O_6 
REMARK    5  A    between atoms: C_9  and  C_10 
REMARK    6  A    between atoms: N_15  and  C_14 
REMARK    7  A    between atoms: N_20  and  C_19 
REMARK       I    between atoms: C_22  and  N_20 
ROOT
ATOM      1  C   LIG d   1       3.674  90.210 116.005  0.00  0.00     0.161 C 
ATOM      2  C   LIG d   1       2.705  91.177 116.324  0.00  0.00     0.016 C 
ATOM      3  C   LIG d   1       2.743  91.956 117.503  0.00  0.00     0.038 C 
ATOM      4  C   LIG d   1       3.841  91.928 118.376  0.00  0.00     0.028 C 
ATOM      5  C   LIG d   1       4.598  90.605 118.355  0.00  0.00    -0.047 C 
ATOM      6  C   LIG d   1       4.937  90.244 116.890  0.00  0.00     0.091 C 
ENDROOT
BRANCH   1   7
ATOM      7  O   LIG d   1       4.034  90.320 114.614  0.00  0.00    -0.368 OA
BRANCH   7   8
ATOM      8  C   LIG d   1       3.646  89.211 113.766  0.00  0.00     0.119 C 
BRANCH   8   9
ATOM      9  C   LIG d   1       2.884  88.200 114.645  0.00  0.00     0.028 C 
ATOM     10  C   LIG d   1       3.481  86.785 114.564  0.00  0.00     0.006 C 
ENDBRANCH   8   9
BRANCH   8  11
ATOM     11  C   LIG d   1       4.870  88.453 113.245  0.00  0.00     0.028 C 
ATOM     12  C   LIG d   1       6.148  89.307 113.254  0.00  0.00     0.006 C 
ENDBRANCH   8  11
ENDBRANCH   7   8
ENDBRANCH   1   7
BRANCH   6  13
ATOM     13  N   LIG d   1       5.605  88.922 116.773  0.00  0.00    -0.311 N 
ATOM     14  C   LIG d   1       6.927  88.762 116.802  0.00  0.00     0.210 C 
ATOM     15  C   LIG d   1       7.408  87.317 116.644  0.00  0.00     0.109 C 
ATOM     16  O   LIG d   1       7.746  89.677 116.977  0.00  0.00    -0.276 OA
ATOM     17  H   LIG d   1       5.014  88.121 116.659  0.00  0.00     0.149 HD
ENDBRANCH   6  13
BRANCH   5  18
ATOM     18  N   LIG d   1       5.794  90.762 119.204  0.00  0.00     0.381 N 
ATOM     19  H   LIG d   1       5.541  91.202 120.066  0.00  0.00    -0.090 HD
ATOM     20  H   LIG d   1       6.454  91.352 118.729  0.00  0.00    -0.090 HD
ATOM     21  H   LIG d   1       6.203  89.872 119.384  0.00  0.00    -0.090 HD
ENDBRANCH   5  18
BRANCH   3  22
ATOM     22  C   LIG d   1       1.654  92.747 117.839  0.00  0.00     0.382 C 
ATOM     23  O   LIG d   1       0.568  92.211 118.165  0.00  0.00    -0.241 OA
ATOM     24  O   LIG d   1       1.732  93.988 117.776  0.00  0.00    -0.241 OA
ENDBRANCH   3  22
TORSDOF 7
ENDMDL
MODEL 5
REMARK VINA RESULT:      -4.6      8.369     10.372
REMARK  7 active torsions:
REMARK  status: ('A' for Active; 'I' for Inactive)
REMARK    1  A    between atoms: C_2  and  C_3 
REMARK    2  A    between atoms: C_3  and  O_6 
REMARK    3  A    between atoms: C_3  and  C_4 
REMARK    4  A    between atoms: C_7  and  O_6 
REMARK    5  A    between atoms: C_9  and  C_10 
REMARK    6  A    between atoms: N_15  and  C_14 
REMARK    7  A    between atoms: N_20  and  C_19 
REMARK       I    between atoms: C_22  and  N_20 
ROOT
ATOM      1  C   LIG d   1       4.487  90.508 116.864  0.00  0.00     0.161 C 
ATOM      2  C   LIG d   1       3.594  90.492 115.779  0.00  0.00     0.016 C 
ATOM      3  C   LIG d   1       3.801  89.720 114.612  0.00  0.00     0.038 C 
ATOM      4  C   LIG d   1       4.846  88.790 114.514  0.00  0.00     0.028 C 
ATOM      5  C   LIG d   1       6.053  89.142 115.377  0.00  0.00    -0.047 C 
ATOM      6  C   LIG d   1       5.575  89.415 116.821  0.00  0.00     0.091 C 
ENDROOT
BRANCH   1   7
ATOM      7  O   LIG d   1       3.752  90.436 118.102  0.00  0.00    -0.368 OA
BRANCH   7   8
ATOM      8  C   LIG d   1       3.880  91.577 118.986  0.00  0.00     0.119 C 
BRANCH   8   9
ATOM      9  C   LIG d   1       2.480  92.201 119.142  0.00  0.00     0.028 C 
ATOM     10  C   LIG d   1       2.132  93.157 117.989  0.00  0.00     0.006 C 
ENDBRANCH   8   9
BRANCH   8  11
ATOM     11  C   LIG d   1       4.745  92.674 118.358  0.00  0.00     0.028 C 
ATOM     12  C   LIG d   1       5.854  93.171 119.299  0.00  0.00     0.006 C 
ENDBRANCH   8  11
ENDBRANCH   7   8
ENDBRANCH   1   7
BRANCH   6  13
ATOM     13  N   LIG d   1       6.682  89.848 117.713  0.00  0.00    -0.311 N 
ATOM     14  C   LIG d   1       7.370  89.011 118.488  0.00  0.00     0.210 C 
ATOM     15  C   LIG d   1       8.457  89.669 119.344  0.00  0.00     0.109 C 
ATOM     16  O   LIG d   1       7.205  87.783 118.524  0.00  0.00    -0.276 OA
ATOM     17  H   LIG d   1       6.905  90.825 117.722  0.00  0.00     0.149 HD
ENDBRANCH   6  13
BRANCH   5  18
ATOM     18  N   LIG d   1       7.008  88.021 115.286  0.00  0.00     0.381 N 
ATOM     19  H   LIG d   1       7.788  88.286 114.719  0.00  0.00    -0.090 HD
ATOM     20  H   LIG d   1       6.551  87.240 114.849  0.00  0.00    -0.090 HD
ATOM     21  H   LIG d   1       7.322  87.766 116.196  0.00  0.00    -0.090 HD
ENDBRANCH   5  18
BRANCH   3  22
ATOM     22  C   LIG d   1       2.978  89.905 113.511  0.00  0.00     0.382 C 
ATOM     23  O   LIG d   1       2.208  88.986 113.142  0.00  0.00    -0.241 OA
ATOM     24  O   LIG d   1       3.029  90.963 112.856  0.00  0.00    -0.241 OA
ENDBRANCH   3  22
TORSDOF 7
ENDMDL
MODEL 6
REMARK VINA RESULT:      -4.6      4.502      7.130
REMARK  7 active torsions:
REMARK  status: ('A' for Active; 'I' for Inactive)
REMARK    1  A    between atoms: C_2  and  C_3 
REMARK    2  A    between atoms: C_3  and  O_6 
REMARK    3  A    between atoms: C_3  and  C_4 
REMARK    4  A    between atoms: C_7  and  O_6 
REMARK    5  A    between atoms: C_9  and  C_10 
REMARK    6  A    between atoms: N_15  and  C_14 
REMARK    7  A    between atoms: N_20  and  C_19 
REMARK       I    between atoms: C_22  and  N_20 
ROOT
ATOM      1  C   LIG d   1       0.005  90.715 117.688  0.00  0.00     0.161 C 
ATOM      2  C   LIG d   1      -1.359  90.573 117.381  0.00  0.00     0.016 C 
ATOM      3  C   LIG d   1      -2.295  91.628 117.492  0.00  0.00     0.038 C 
ATOM      4  C   LIG d   1      -1.899  92.944 117.773  0.00  0.00     0.028 C 
ATOM      5  C   LIG d   1      -0.609  93.029 118.582  0.00  0.00    -0.047 C 
ATOM      6  C   LIG d   1       0.474  92.171 117.889  0.00  0.00     0.091 C 
ENDROOT
BRANCH   1   7
ATOM      7  O   LIG d   1       0.802  90.067 116.677  0.00  0.00    -0.368 OA
BRANCH   7   8
ATOM      8  C   LIG d   1       1.660  88.993 117.135  0.00  0.00     0.119 C 
BRANCH   8   9
ATOM      9  C   LIG d   1       2.938  89.022 116.274  0.00  0.00     0.028 C 
ATOM     10  C   LIG d   1       2.856  90.056 115.138  0.00  0.00     0.006 C 
ENDBRANCH   8   9
BRANCH   8  11
ATOM     11  C   LIG d   1       1.027  87.623 116.873  0.00  0.00     0.028 C 
ATOM     12  C   LIG d   1       0.591  86.912 118.164  0.00  0.00     0.006 C 
ENDBRANCH   8  11
ENDBRANCH   7   8
ENDBRANCH   1   7
BRANCH   6  13
ATOM     13  N   LIG d   1       1.744  92.131 118.661  0.00  0.00    -0.311 N 
ATOM     14  C   LIG d   1       2.914  92.533 118.168  0.00  0.00     0.210 C 
ATOM     15  C   LIG d   1       4.103  92.388 119.123  0.00  0.00     0.109 C 
ATOM     16  O   LIG d   1       3.075  93.026 117.041  0.00  0.00    -0.276 OA
ATOM     17  H   LIG d   1       1.699  91.774 119.595  0.00  0.00     0.149 HD
ENDBRANCH   6  13
BRANCH   5  18
ATOM     18  N   LIG d   1      -0.241  94.453 118.684  0.00  0.00     0.381 N 
ATOM     19  H   LIG d   1       0.755  94.549 118.649  0.00  0.00    -0.090 HD
ATOM     20  H   LIG d   1      -0.560  94.809 119.568  0.00  0.00    -0.090 HD
ATOM     21  H   LIG d   1      -0.658  94.968 117.941  0.00  0.00    -0.090 HD
ENDBRANCH   5  18
BRANCH   3  22
ATOM     22  C   LIG d   1      -3.649  91.361 117.358  0.00  0.00     0.382 C 
ATOM     23  O   LIG d   1      -4.407  92.212 116.832  0.00  0.00    -0.241 OA
ATOM     24  O   LIG d   1      -4.130  90.300 117.798  0.00  0.00    -0.241 OA
ENDBRANCH   3  22
TORSDOF 7
ENDMDL
MODEL 7
REMARK VINA RESULT:      -4.6      7.930     10.683
REMARK  7 active torsions:
REMARK  status: ('A' for Active; 'I' for Inactive)
REMARK    1  A    between atoms: C_2  and  C_3 
REMARK    2  A    between atoms: C_3  and  O_6 
REMARK    3  A    between atoms: C_3  and  C_4 
REMARK    4  A    between atoms: C_7  and  O_6 
REMARK    5  A    between atoms: C_9  and  C_10 
REMARK    6  A    between atoms: N_15  and  C_14 
REMARK    7  A    between atoms: N_20  and  C_19 
REMARK       I    between atoms: C_22  and  N_20 
ROOT
ATOM      1  C   LIG d   1       3.337  89.296 115.722  0.00  0.00     0.161 C 
ATOM      2  C   LIG d   1       2.109  89.965 115.856  0.00  0.00     0.016 C 
ATOM      3  C   LIG d   1       1.805  90.824 116.937  0.00  0.00     0.038 C 
ATOM      4  C   LIG d   1       2.770  91.192 117.886  0.00  0.00     0.028 C 
ATOM      5  C   LIG d   1       3.865  90.148 118.072  0.00  0.00    -0.047 C 
ATOM      6  C   LIG d   1       4.442  89.772 116.688  0.00  0.00     0.091 C 
ENDROOT
BRANCH   1   7
ATOM      7  O   LIG d   1       3.794  89.381 114.357  0.00  0.00    -0.368 OA
BRANCH   7   8
ATOM      8  C   LIG d   1       3.828  88.135 113.618  0.00  0.00     0.119 C 
BRANCH   8   9
ATOM      9  C   LIG d   1       5.162  88.090 112.848  0.00  0.00     0.028 C 
ATOM     10  C   LIG d   1       6.117  89.221 113.264  0.00  0.00     0.006 C 
ENDBRANCH   8   9
BRANCH   8  11
ATOM     11  C   LIG d   1       2.737  88.096 112.543  0.00  0.00     0.028 C 
ATOM     12  C   LIG d   1       1.786  86.899 112.702  0.00  0.00     0.006 C 
ENDBRANCH   8  11
ENDBRANCH   7   8
ENDBRANCH   1   7
BRANCH   6  13
ATOM     13  N   LIG d   1       5.461  88.694 116.772  0.00  0.00    -0.311 N 
ATOM     14  C   LIG d   1       6.770  88.927 116.848  0.00  0.00     0.210 C 
ATOM     15  C   LIG d   1       7.648  87.673 116.906  0.00  0.00     0.109 C 
ATOM     16  O   LIG d   1       7.286  90.054 116.905  0.00  0.00    -0.276 OA
ATOM     17  H   LIG d   1       5.128  87.750 116.763  0.00  0.00     0.149 HD
ENDBRANCH   6  13
BRANCH   5  18
ATOM     18  N   LIG d   1       4.875  90.719 118.983  0.00  0.00     0.381 N 
ATOM     19  H   LIG d   1       5.708  90.165 118.956  0.00  0.00    -0.090 HD
ATOM     20  H   LIG d   1       4.515  90.699 119.921  0.00  0.00    -0.090 HD
ATOM     21  H   LIG d   1       5.082  91.657 118.719  0.00  0.00    -0.090 HD
ENDBRANCH   5  18
BRANCH   3  22
ATOM     22  C   LIG d   1       0.510  91.292 117.099  0.00  0.00     0.382 C 
ATOM     23  O   LIG d   1       0.312  92.453 117.530  0.00  0.00    -0.241 OA
ATOM     24  O   LIG d   1      -0.464  90.552 116.861  0.00  0.00    -0.241 OA
ENDBRANCH   3  22
TORSDOF 7
ENDMDL
MODEL 8
REMARK VINA RESULT:      -4.5      3.537      6.066
REMARK  7 active torsions:
REMARK  status: ('A' for Active; 'I' for Inactive)
REMARK    1  A    between atoms: C_2  and  C_3 
REMARK    2  A    between atoms: C_3  and  O_6 
REMARK    3  A    between atoms: C_3  and  C_4 
REMARK    4  A    between atoms: C_7  and  O_6 
REMARK    5  A    between atoms: C_9  and  C_10 
REMARK    6  A    between atoms: N_15  and  C_14 
REMARK    7  A    between atoms: N_20  and  C_19 
REMARK       I    between atoms: C_22  and  N_20 
ROOT
ATOM      1  C   LIG d   1      -1.057  90.972 117.786  0.00  0.00     0.161 C 
ATOM      2  C   LIG d   1      -2.395  90.730 117.431  0.00  0.00     0.016 C 
ATOM      3  C   LIG d   1      -3.410  91.710 117.507  0.00  0.00     0.038 C 
ATOM      4  C   LIG d   1      -3.125  93.052 117.802  0.00  0.00     0.028 C 
ATOM      5  C   LIG d   1      -1.875  93.232 118.656  0.00  0.00    -0.047 C 
ATOM      6  C   LIG d   1      -0.706  92.459 118.004  0.00  0.00     0.091 C 
ENDROOT
BRANCH   1   7
ATOM      7  O   LIG d   1      -0.178  90.388 116.805  0.00  0.00    -0.368 OA
BRANCH   7   8
ATOM      8  C   LIG d   1       0.627  89.271 117.256  0.00  0.00     0.119 C 
BRANCH   8   9
ATOM      9  C   LIG d   1       0.217  88.961 118.709  0.00  0.00     0.028 C 
ATOM     10  C   LIG d   1      -0.223  87.500 118.896  0.00  0.00     0.006 C 
ENDBRANCH   8   9
BRANCH   8  11
ATOM     11  C   LIG d   1       2.111  89.645 117.325  0.00  0.00     0.028 C 
ATOM     12  C   LIG d   1       2.509  90.697 116.278  0.00  0.00     0.006 C 
ENDBRANCH   8  11
ENDBRANCH   7   8
ENDBRANCH   1   7
BRANCH   6  13
ATOM     13  N   LIG d   1       0.535  92.513 118.820  0.00  0.00    -0.311 N 
ATOM     14  C   LIG d   1       1.502  93.408 118.626  0.00  0.00     0.210 C 
ATOM     15  C   LIG d   1       2.704  93.275 119.566  0.00  0.00     0.109 C 
ATOM     16  O   LIG d   1       1.463  94.320 117.787  0.00  0.00    -0.276 OA
ATOM     17  H   LIG d   1       0.635  91.829 119.544  0.00  0.00     0.149 HD
ENDBRANCH   6  13
BRANCH   5  18
ATOM     18  N   LIG d   1      -1.618  94.680 118.772  0.00  0.00     0.381 N 
ATOM     19  H   LIG d   1      -2.397  95.192 118.408  0.00  0.00    -0.090 HD
ATOM     20  H   LIG d   1      -0.807  94.910 118.226  0.00  0.00    -0.090 HD
ATOM     21  H   LIG d   1      -1.466  94.924 119.725  0.00  0.00    -0.090 HD
ENDBRANCH   5  18
BRANCH   3  22
ATOM     22  C   LIG d   1      -4.735  91.343 117.325  0.00  0.00     0.382 C 
ATOM     23  O   LIG d   1      -5.644  91.947 117.945  0.00  0.00    -0.241 OA
ATOM     24  O   LIG d   1      -5.029  90.387 116.583  0.00  0.00    -0.241 OA
ENDBRANCH   3  22
TORSDOF 7
ENDMDL
MODEL 9
REMARK VINA RESULT:      -4.4      7.639     10.525
REMARK  7 active torsions:
REMARK  status: ('A' for Active; 'I' for Inactive)
REMARK    1  A    between atoms: C_2  and  C_3 
REMARK    2  A    between atoms: C_3  and  O_6 
REMARK    3  A    between atoms: C_3  and  C_4 
REMARK    4  A    between atoms: C_7  and  O_6 
REMARK    5  A    between atoms: C_9  and  C_10 
REMARK    6  A    between atoms: N_15  and  C_14 
REMARK    7  A    between atoms: N_20  and  C_19 
REMARK       I    between atoms: C_22  and  N_20 
ROOT
ATOM      1  C   LIG d   1       3.837  90.131 116.619  0.00  0.00     0.161 C 
ATOM      2  C   LIG d   1       4.678  90.373 117.718  0.00  0.00     0.016 C 
ATOM      3  C   LIG d   1       6.055  90.053 117.729  0.00  0.00     0.038 C 
ATOM      4  C   LIG d   1       6.721  89.603 116.580  0.00  0.00     0.028 C 
ATOM      5  C   LIG d   1       5.812  88.869 115.600  0.00  0.00    -0.047 C 
ATOM      6  C   LIG d   1       4.569  89.744 115.317  0.00  0.00     0.091 C 
ENDROOT
BRANCH   1   7
ATOM      7  O   LIG d   1       2.986  91.272 116.394  0.00  0.00    -0.368 OA
BRANCH   7   8
ATOM      8  C   LIG d   1       1.982  91.528 117.408  0.00  0.00     0.119 C 
BRANCH   8   9
ATOM      9  C   LIG d   1       0.609  91.195 116.793  0.00  0.00     0.028 C 
ATOM     10  C   LIG d   1      -0.271  90.361 117.739  0.00  0.00     0.006 C 
ENDBRANCH   8   9
BRANCH   8  11
ATOM     11  C   LIG d   1       1.917  93.016 117.765  0.00  0.00     0.028 C 
ATOM     12  C   LIG d   1       2.318  93.296 119.222  0.00  0.00     0.006 C 
ENDBRANCH   8  11
ENDBRANCH   7   8
ENDBRANCH   1   7
BRANCH   6  13
ATOM     13  N   LIG d   1       3.587  89.064 114.433  0.00  0.00    -0.311 N 
ATOM     14  C   LIG d   1       3.009  89.654 113.388  0.00  0.00     0.210 C 
ATOM     15  C   LIG d   1       2.011  88.780 112.623  0.00  0.00     0.109 C 
ATOM     16  O   LIG d   1       3.253  90.808 113.004  0.00  0.00    -0.276 OA
ATOM     17  H   LIG d   1       3.354  88.115 114.655  0.00  0.00     0.149 HD
ENDBRANCH   6  13
BRANCH   5  18
ATOM     18  N   LIG d   1       6.602  88.578 114.390  0.00  0.00     0.381 N 
ATOM     19  H   LIG d   1       7.473  88.158 114.647  0.00  0.00    -0.090 HD
ATOM     20  H   LIG d   1       6.797  89.441 113.913  0.00  0.00    -0.090 HD
ATOM     21  H   LIG d   1       6.094  87.966 113.789  0.00  0.00    -0.090 HD
ENDBRANCH   5  18
BRANCH   3  22
ATOM     22  C   LIG d   1       6.772  90.143 118.913  0.00  0.00     0.382 C 
ATOM     23  O   LIG d   1       6.653  91.158 119.641  0.00  0.00    -0.241 OA
ATOM     24  O   LIG d   1       7.569  89.244 119.239  0.00  0.00    -0.241 OA
ENDBRANCH   3  22
TORSDOF 7
ENDMDL
