MODEL 1
REMARK VINA RESULT:      -5.3      0.000      0.000
REMARK  7 active torsions:
REMARK  status: ('A' for Active; 'I' for Inactive)
REMARK    1  A    between atoms: C_2  and  C_3 
REMARK    2  A    between atoms: C_3  and  O_6 
REMARK    3  A    between atoms: C_3  and  C_4 
REMARK    4  A    between atoms: C_7  and  O_6 
REMARK    5  A    between atoms: C_9  and  C_10 
REMARK    6  A    between atoms: N_15  and  C_14 
REMARK    7  A    between atoms: N_20  and  C_19 
REMARK       I    between atoms: C_22  and  N_20 
ROOT
ATOM      1  C   LIG d   1      -6.281  92.999 118.014  0.00  0.00     0.161 C 
ATOM      2  C   LIG d   1      -5.243  93.696 118.654  0.00  0.00     0.016 C 
ATOM      3  C   LIG d   1      -3.925  93.198 118.768  0.00  0.00     0.038 C 
ATOM      4  C   LIG d   1      -3.516  92.027 118.113  0.00  0.00     0.028 C 
ATOM      5  C   LIG d   1      -4.651  91.036 117.879  0.00  0.00    -0.047 C 
ATOM      6  C   LIG d   1      -5.827  91.771 117.197  0.00  0.00     0.091 C 
ENDROOT
BRANCH   1   7
ATOM      7  O   LIG d   1      -7.037  93.902 117.183  0.00  0.00    -0.368 OA
BRANCH   7   8
ATOM      8  C   LIG d   1      -8.084  94.652 117.846  0.00  0.00     0.119 C 
BRANCH   8   9
ATOM      9  C   LIG d   1      -7.651  96.131 117.867  0.00  0.00     0.028 C 
ATOM     10  C   LIG d   1      -8.761  97.060 118.387  0.00  0.00     0.006 C 
ENDBRANCH   8   9
BRANCH   8  11
ATOM     11  C   LIG d   1      -8.215  94.247 119.317  0.00  0.00     0.028 C 
ATOM     12  C   LIG d   1      -9.675  94.056 119.756  0.00  0.00     0.006 C 
ENDBRANCH   8  11
ENDBRANCH   7   8
ENDBRANCH   1   7
BRANCH   6  13
ATOM     13  N   LIG d   1      -7.011  90.893 117.008  0.00  0.00    -0.311 N 
ATOM     14  C   LIG d   1      -7.176  90.102 115.949  0.00  0.00     0.210 C 
ATOM     15  C   LIG d   1      -8.478  89.295 115.942  0.00  0.00     0.109 C 
ATOM     16  O   LIG d   1      -6.353  89.969 115.031  0.00  0.00    -0.276 OA
ATOM     17  H   LIG d   1      -7.714  90.916 117.721  0.00  0.00     0.149 HD
ENDBRANCH   6  13
BRANCH   5  18
ATOM     18  N   LIG d   1      -4.114  89.927 117.068  0.00  0.00     0.381 N 
ATOM     19  H   LIG d   1      -3.363  90.258 116.495  0.00  0.00    -0.090 HD
ATOM     20  H   LIG d   1      -4.841  89.583 116.466  0.00  0.00    -0.090 HD
ATOM     21  H   LIG d   1      -3.790  89.195 117.662  0.00  0.00    -0.090 HD
ENDBRANCH   5  18
BRANCH   3  22
ATOM     22  C   LIG d   1      -3.010  93.853 119.578  0.00  0.00     0.382 C 
ATOM     23  O   LIG d   1      -3.220  95.040 119.928  0.00  0.00    -0.241 OA
ATOM     24  O   LIG d   1      -1.957  93.288 119.928  0.00  0.00    -0.241 OA
ENDBRANCH   3  22
TORSDOF 7
ENDMDL
MODEL 2
REMARK VINA RESULT:      -5.2      2.213      4.939
REMARK  7 active torsions:
REMARK  status: ('A' for Active; 'I' for Inactive)
REMARK    1  A    between atoms: C_2  and  C_3 
REMARK    2  A    between atoms: C_3  and  O_6 
REMARK    3  A    between atoms: C_3  and  C_4 
REMARK    4  A    between atoms: C_7  and  O_6 
REMARK    5  A    between atoms: C_9  and  C_10 
REMARK    6  A    between atoms: N_15  and  C_14 
REMARK    7  A    between atoms: N_20  and  C_19 
REMARK       I    between atoms: C_22  and  N_20 
ROOT
ATOM      1  C   LIG d   1      -4.595  91.553 117.908  0.00  0.00     0.161 C 
ATOM      2  C   LIG d   1      -3.890  92.551 118.601  0.00  0.00     0.016 C 
ATOM      3  C   LIG d   1      -4.494  93.731 119.092  0.00  0.00     0.038 C 
ATOM      4  C   LIG d   1      -5.883  93.923 119.056  0.00  0.00     0.028 C 
ATOM      5  C   LIG d   1      -6.569  93.175 117.918  0.00  0.00    -0.047 C 
ATOM      6  C   LIG d   1      -6.130  91.693 117.957  0.00  0.00     0.091 C 
ENDROOT
BRANCH   1   7
ATOM      7  O   LIG d   1      -4.195  90.252 118.385  0.00  0.00    -0.368 OA
BRANCH   7   8
ATOM      8  C   LIG d   1      -2.794  90.100 118.721  0.00  0.00     0.119 C 
BRANCH   8   9
ATOM      9  C   LIG d   1      -2.112  89.374 117.546  0.00  0.00     0.028 C 
ATOM     10  C   LIG d   1      -0.629  89.757 117.400  0.00  0.00     0.006 C 
ENDBRANCH   8   9
BRANCH   8  11
ATOM     11  C   LIG d   1      -2.608  89.178 119.930  0.00  0.00     0.028 C 
ATOM     12  C   LIG d   1      -2.815  87.695 119.585  0.00  0.00     0.006 C 
ENDBRANCH   8  11
ENDBRANCH   7   8
ENDBRANCH   1   7
BRANCH   6  13
ATOM     13  N   LIG d   1      -6.690  90.907 116.826  0.00  0.00    -0.311 N 
ATOM     14  C   LIG d   1      -6.858  91.402 115.601  0.00  0.00     0.210 C 
ATOM     15  C   LIG d   1      -7.468  90.428 114.588  0.00  0.00     0.109 C 
ATOM     16  O   LIG d   1      -6.529  92.545 115.249  0.00  0.00    -0.276 OA
ATOM     17  H   LIG d   1      -6.954  89.960 117.015  0.00  0.00     0.149 HD
ENDBRANCH   6  13
BRANCH   5  18
ATOM     18  N   LIG d   1      -8.024  93.351 118.082  0.00  0.00     0.381 N 
ATOM     19  H   LIG d   1      -8.418  92.539 118.512  0.00  0.00    -0.090 HD
ATOM     20  H   LIG d   1      -8.442  93.461 117.174  0.00  0.00    -0.090 HD
ATOM     21  H   LIG d   1      -8.210  94.155 118.640  0.00  0.00    -0.090 HD
ENDBRANCH   5  18
BRANCH   3  22
ATOM     22  C   LIG d   1      -3.701  94.753 119.592  0.00  0.00     0.382 C 
ATOM     23  O   LIG d   1      -4.154  95.920 119.665  0.00  0.00    -0.241 OA
ATOM     24  O   LIG d   1      -2.523  94.530 119.930  0.00  0.00    -0.241 OA
ENDBRANCH   3  22
TORSDOF 7
ENDMDL
MODEL 3
REMARK VINA RESULT:      -5.1      8.428     10.696
REMARK  7 active torsions:
REMARK  status: ('A' for Active; 'I' for Inactive)
REMARK    1  A    between atoms: C_2  and  C_3 
REMARK    2  A    between atoms: C_3  and  O_6 
REMARK    3  A    between atoms: C_3  and  C_4 
REMARK    4  A    between atoms: C_7  and  O_6 
REMARK    5  A    between atoms: C_9  and  C_10 
REMARK    6  A    between atoms: N_15  and  C_14 
REMARK    7  A    between atoms: N_20  and  C_19 
REMARK       I    between atoms: C_22  and  N_20 
ROOT
ATOM      1  C   LIG d   1       3.222  88.803 116.045  0.00  0.00     0.161 C 
ATOM      2  C   LIG d   1       3.603  89.768 116.991  0.00  0.00     0.016 C 
ATOM      3  C   LIG d   1       4.720  90.619 116.829  0.00  0.00     0.038 C 
ATOM      4  C   LIG d   1       5.449  90.665 115.631  0.00  0.00     0.028 C 
ATOM      5  C   LIG d   1       5.410  89.358 114.848  0.00  0.00    -0.047 C 
ATOM      6  C   LIG d   1       3.939  88.915 114.683  0.00  0.00     0.091 C 
ENDROOT
BRANCH   1   7
ATOM      7  O   LIG d   1       1.793  88.834 115.863  0.00  0.00    -0.368 OA
BRANCH   7   8
ATOM      8  C   LIG d   1       1.022  87.954 116.717  0.00  0.00     0.119 C 
BRANCH   8   9
ATOM      9  C   LIG d   1       0.458  86.826 115.832  0.00  0.00     0.028 C 
ATOM     10  C   LIG d   1       1.349  85.573 115.840  0.00  0.00     0.006 C 
ENDBRANCH   8   9
BRANCH   8  11
ATOM     11  C   LIG d   1      -0.204  88.669 117.293  0.00  0.00     0.028 C 
ATOM     12  C   LIG d   1      -1.406  87.731 117.483  0.00  0.00     0.006 C 
ENDBRANCH   8  11
ENDBRANCH   7   8
ENDBRANCH   1   7
BRANCH   6  13
ATOM     13  N   LIG d   1       3.815  87.601 114.000  0.00  0.00    -0.311 N 
ATOM     14  C   LIG d   1       2.995  87.382 112.974  0.00  0.00     0.210 C 
ATOM     15  C   LIG d   1       3.008  85.949 112.430  0.00  0.00     0.109 C 
ATOM     16  O   LIG d   1       2.282  88.245 112.442  0.00  0.00    -0.276 OA
ATOM     17  H   LIG d   1       4.381  86.851 114.348  0.00  0.00     0.149 HD
ENDBRANCH   6  13
BRANCH   5  18
ATOM     18  N   LIG d   1       6.092  89.589 113.561  0.00  0.00     0.381 N 
ATOM     19  H   LIG d   1       6.481  90.511 113.544  0.00  0.00    -0.090 HD
ATOM     20  H   LIG d   1       5.419  89.517 112.818  0.00  0.00    -0.090 HD
ATOM     21  H   LIG d   1       6.814  88.914 113.431  0.00  0.00    -0.090 HD
ENDBRANCH   5  18
BRANCH   3  22
ATOM     22  C   LIG d   1       5.143  91.408 117.888  0.00  0.00     0.382 C 
ATOM     23  O   LIG d   1       5.785  90.893 118.836  0.00  0.00    -0.241 OA
ATOM     24  O   LIG d   1       4.853  92.618 117.930  0.00  0.00    -0.241 OA
ENDBRANCH   3  22
TORSDOF 7
ENDMDL
MODEL 4
REMARK VINA RESULT:      -5.0      7.290     10.582
REMARK  7 active torsions:
REMARK  status: ('A' for Active; 'I' for Inactive)
REMARK    1  A    between atoms: C_2  and  C_3 
REMARK    2  A    between atoms: C_3  and  O_6 
REMARK    3  A    between atoms: C_3  and  C_4 
REMARK    4  A    between atoms: C_7  and  O_6 
REMARK    5  A    between atoms: C_9  and  C_10 
REMARK    6  A    between atoms: N_15  and  C_14 
REMARK    7  A    between atoms: N_20  and  C_19 
REMARK       I    between atoms: C_22  and  N_20 
ROOT
ATOM      1  C   LIG d   1       1.474  88.041 116.441  0.00  0.00     0.161 C 
ATOM      2  C   LIG d   1       0.145  87.696 116.741  0.00  0.00     0.016 C 
ATOM      3  C   LIG d   1      -0.752  88.562 117.409  0.00  0.00     0.038 C 
ATOM      4  C   LIG d   1      -0.424  89.896 117.689  0.00  0.00     0.028 C 
ATOM      5  C   LIG d   1       1.074  90.130 117.858  0.00  0.00    -0.047 C 
ATOM      6  C   LIG d   1       1.815  89.533 116.640  0.00  0.00     0.091 C 
ENDROOT
BRANCH   1   7
ATOM      7  O   LIG d   1       1.794  87.628 115.098  0.00  0.00    -0.368 OA
BRANCH   7   8
ATOM      8  C   LIG d   1       2.428  86.333 114.964  0.00  0.00     0.119 C 
BRANCH   8   9
ATOM      9  C   LIG d   1       3.873  86.572 114.485  0.00  0.00     0.028 C 
ATOM     10  C   LIG d   1       3.933  87.387 113.182  0.00  0.00     0.006 C 
ENDBRANCH   8   9
BRANCH   8  11
ATOM     11  C   LIG d   1       1.768  85.501 113.860  0.00  0.00     0.028 C 
ATOM     12  C   LIG d   1       0.426  86.088 113.394  0.00  0.00     0.006 C 
ENDBRANCH   8  11
ENDBRANCH   7   8
ENDBRANCH   1   7
BRANCH   6  13
ATOM     13  N   LIG d   1       3.292  89.643 116.766  0.00  0.00    -0.311 N 
ATOM     14  C   LIG d   1       4.076  90.120 115.800  0.00  0.00     0.210 C 
ATOM     15  C   LIG d   1       5.572  90.128 116.127  0.00  0.00     0.109 C 
ATOM     16  O   LIG d   1       3.671  90.565 114.716  0.00  0.00    -0.276 OA
ATOM     17  H   LIG d   1       3.701  89.333 117.625  0.00  0.00     0.149 HD
ENDBRANCH   6  13
BRANCH   5  18
ATOM     18  N   LIG d   1       1.284  91.582 118.008  0.00  0.00     0.381 N 
ATOM     19  H   LIG d   1       2.256  91.770 118.154  0.00  0.00    -0.090 HD
ATOM     20  H   LIG d   1       0.777  91.902 118.814  0.00  0.00    -0.090 HD
ATOM     21  H   LIG d   1       0.965  92.059 117.194  0.00  0.00    -0.090 HD
ENDBRANCH   5  18
BRANCH   3  22
ATOM     22  C   LIG d   1      -1.979  88.080 117.839  0.00  0.00     0.382 C 
ATOM     23  O   LIG d   1      -2.033  87.050 118.553  0.00  0.00    -0.241 OA
ATOM     24  O   LIG d   1      -3.035  88.638 117.486  0.00  0.00    -0.241 OA
ENDBRANCH   3  22
TORSDOF 7
ENDMDL
MODEL 5
REMARK VINA RESULT:      -5.0      8.019     10.900
REMARK  7 active torsions:
REMARK  status: ('A' for Active; 'I' for Inactive)
REMARK    1  A    between atoms: C_2  and  C_3 
REMARK    2  A    between atoms: C_3  and  O_6 
REMARK    3  A    between atoms: C_3  and  C_4 
REMARK    4  A    between atoms: C_7  and  O_6 
REMARK    5  A    between atoms: C_9  and  C_10 
REMARK    6  A    between atoms: N_15  and  C_14 
REMARK    7  A    between atoms: N_20  and  C_19 
REMARK       I    between atoms: C_22  and  N_20 
ROOT
ATOM      1  C   LIG d   1       3.336  90.574 117.110  0.00  0.00     0.161 C 
ATOM      2  C   LIG d   1       3.121  89.980 115.855  0.00  0.00     0.016 C 
ATOM      3  C   LIG d   1       4.169  89.555 115.006  0.00  0.00     0.038 C 
ATOM      4  C   LIG d   1       5.508  89.557 115.423  0.00  0.00     0.028 C 
ATOM      5  C   LIG d   1       5.812  90.613 116.480  0.00  0.00    -0.047 C 
ATOM      6  C   LIG d   1       4.786  90.483 117.629  0.00  0.00     0.091 C 
ENDROOT
BRANCH   1   7
ATOM      7  O   LIG d   1       2.422  90.018 118.076  0.00  0.00    -0.368 OA
BRANCH   7   8
ATOM      8  C   LIG d   1       1.505  90.952 118.697  0.00  0.00     0.119 C 
BRANCH   8   9
ATOM      9  C   LIG d   1       0.127  90.267 118.773  0.00  0.00     0.028 C 
ATOM     10  C   LIG d   1      -0.492  90.041 117.383  0.00  0.00     0.006 C 
ENDBRANCH   8   9
BRANCH   8  11
ATOM     11  C   LIG d   1       1.295  92.192 117.823  0.00  0.00     0.028 C 
ATOM     12  C   LIG d   1       1.269  93.496 118.635  0.00  0.00     0.006 C 
ENDBRANCH   8  11
ENDBRANCH   7   8
ENDBRANCH   1   7
BRANCH   6  13
ATOM     13  N   LIG d   1       4.959  91.533 118.666  0.00  0.00    -0.311 N 
ATOM     14  C   LIG d   1       4.872  92.838 118.410  0.00  0.00     0.210 C 
ATOM     15  C   LIG d   1       5.104  93.751 119.618  0.00  0.00     0.109 C 
ATOM     16  O   LIG d   1       4.593  93.324 117.303  0.00  0.00    -0.276 OA
ATOM     17  H   LIG d   1       5.157  91.226 119.598  0.00  0.00     0.149 HD
ENDBRANCH   6  13
BRANCH   5  18
ATOM     18  N   LIG d   1       7.205  90.413 116.923  0.00  0.00     0.381 N 
ATOM     19  H   LIG d   1       7.820  90.460 116.136  0.00  0.00    -0.090 HD
ATOM     20  H   LIG d   1       7.287  89.500 117.335  0.00  0.00    -0.090 HD
ATOM     21  H   LIG d   1       7.454  91.110 117.590  0.00  0.00    -0.090 HD
ENDBRANCH   5  18
BRANCH   3  22
ATOM     22  C   LIG d   1       3.884  89.158 113.708  0.00  0.00     0.382 C 
ATOM     23  O   LIG d   1       4.780  88.637 113.001  0.00  0.00    -0.241 OA
ATOM     24  O   LIG d   1       2.755  89.355 113.221  0.00  0.00    -0.241 OA
ENDBRANCH   3  22
TORSDOF 7
ENDMDL
MODEL 6
REMARK VINA RESULT:      -4.9      7.518     10.829
REMARK  7 active torsions:
REMARK  status: ('A' for Active; 'I' for Inactive)
REMARK    1  A    between atoms: C_2  and  C_3 
REMARK    2  A    between atoms: C_3  and  O_6 
REMARK    3  A    between atoms: C_3  and  C_4 
REMARK    4  A    between atoms: C_7  and  O_6 
REMARK    5  A    between atoms: C_9  and  C_10 
REMARK    6  A    between atoms: N_15  and  C_14 
REMARK    7  A    between atoms: N_20  and  C_19 
REMARK       I    between atoms: C_22  and  N_20 
ROOT
ATOM      1  C   LIG d   1       2.090  88.795 116.530  0.00  0.00     0.161 C 
ATOM      2  C   LIG d   1       0.877  88.094 116.629  0.00  0.00     0.016 C 
ATOM      3  C   LIG d   1      -0.158  88.452 117.524  0.00  0.00     0.038 C 
ATOM      4  C   LIG d   1      -0.109  89.633 118.279  0.00  0.00     0.028 C 
ATOM      5  C   LIG d   1       1.310  90.099 118.584  0.00  0.00    -0.047 C 
ATOM      6  C   LIG d   1       2.116  90.151 117.266  0.00  0.00     0.091 C 
ENDROOT
BRANCH   1   7
ATOM      7  O   LIG d   1       2.441  88.971 115.143  0.00  0.00    -0.368 OA
BRANCH   7   8
ATOM      8  C   LIG d   1       3.331  87.976 114.579  0.00  0.00     0.119 C 
BRANCH   8   9
ATOM      9  C   LIG d   1       4.767  88.523 114.692  0.00  0.00     0.028 C 
ATOM     10  C   LIG d   1       4.891  89.961 114.161  0.00  0.00     0.006 C 
ENDBRANCH   8   9
BRANCH   8  11
ATOM     11  C   LIG d   1       3.083  87.793 113.079  0.00  0.00     0.028 C 
ATOM     12  C   LIG d   1       4.049  86.787 112.434  0.00  0.00     0.006 C 
ENDBRANCH   8  11
ENDBRANCH   7   8
ENDBRANCH   1   7
BRANCH   6  13
ATOM     13  N   LIG d   1       3.539  90.516 117.486  0.00  0.00    -0.311 N 
ATOM     14  C   LIG d   1       4.009  91.754 117.340  0.00  0.00     0.210 C 
ATOM     15  C   LIG d   1       5.512  91.909 117.595  0.00  0.00     0.109 C 
ATOM     16  O   LIG d   1       3.319  92.744 117.054  0.00  0.00    -0.276 OA
ATOM     17  H   LIG d   1       4.164  89.780 117.750  0.00  0.00     0.149 HD
ENDBRANCH   6  13
BRANCH   5  18
ATOM     18  N   LIG d   1       1.215  91.409 119.256  0.00  0.00     0.381 N 
ATOM     19  H   LIG d   1       0.928  92.106 118.598  0.00  0.00    -0.090 HD
ATOM     20  H   LIG d   1       2.121  91.660 119.608  0.00  0.00    -0.090 HD
ATOM     21  H   LIG d   1       0.561  91.361 120.006  0.00  0.00    -0.090 HD
ENDBRANCH   5  18
BRANCH   3  22
ATOM     22  C   LIG d   1      -1.239  87.602 117.699  0.00  0.00     0.382 C 
ATOM     23  O   LIG d   1      -2.391  87.978 117.375  0.00  0.00    -0.241 OA
ATOM     24  O   LIG d   1      -1.083  86.480 118.218  0.00  0.00    -0.241 OA
ENDBRANCH   3  22
TORSDOF 7
ENDMDL
MODEL 7
REMARK VINA RESULT:      -4.8      2.012      5.200
REMARK  7 active torsions:
REMARK  status: ('A' for Active; 'I' for Inactive)
REMARK    1  A    between atoms: C_2  and  C_3 
REMARK    2  A    between atoms: C_3  and  O_6 
REMARK    3  A    between atoms: C_3  and  C_4 
REMARK    4  A    between atoms: C_7  and  O_6 
REMARK    5  A    between atoms: C_9  and  C_10 
REMARK    6  A    between atoms: N_15  and  C_14 
REMARK    7  A    between atoms: N_20  and  C_19 
REMARK       I    between atoms: C_22  and  N_20 
ROOT
ATOM      1  C   LIG d   1      -6.460  92.423 117.237  0.00  0.00     0.161 C 
ATOM      2  C   LIG d   1      -7.378  93.487 117.241  0.00  0.00     0.016 C 
ATOM      3  C   LIG d   1      -7.244  94.627 118.067  0.00  0.00     0.038 C 
ATOM      4  C   LIG d   1      -6.095  94.852 118.839  0.00  0.00     0.028 C 
ATOM      5  C   LIG d   1      -5.379  93.569 119.249  0.00  0.00    -0.047 C 
ATOM      6  C   LIG d   1      -5.143  92.702 117.991  0.00  0.00     0.091 C 
ENDROOT
BRANCH   1   7
ATOM      7  O   LIG d   1      -6.185  92.021 115.881  0.00  0.00    -0.368 OA
BRANCH   7   8
ATOM      8  C   LIG d   1      -7.051  90.999 115.330  0.00  0.00     0.119 C 
BRANCH   8   9
ATOM      9  C   LIG d   1      -7.690  90.247 116.514  0.00  0.00     0.028 C 
ATOM     10  C   LIG d   1      -8.659  89.144 116.056  0.00  0.00     0.006 C 
ENDBRANCH   8   9
BRANCH   8  11
ATOM     11  C   LIG d   1      -6.250  89.942 114.564  0.00  0.00     0.028 C 
ATOM     12  C   LIG d   1      -5.031  89.433 115.349  0.00  0.00     0.006 C 
ENDBRANCH   8  11
ENDBRANCH   7   8
ENDBRANCH   1   7
BRANCH   6  13
ATOM     13  N   LIG d   1      -4.523  91.391 118.315  0.00  0.00    -0.311 N 
ATOM     14  C   LIG d   1      -3.210  91.214 118.450  0.00  0.00     0.210 C 
ATOM     15  C   LIG d   1      -2.780  89.778 118.764  0.00  0.00     0.109 C 
ATOM     16  O   LIG d   1      -2.363  92.116 118.370  0.00  0.00    -0.276 OA
ATOM     17  H   LIG d   1      -5.140  90.610 118.427  0.00  0.00     0.149 HD
ENDBRANCH   6  13
BRANCH   5  18
ATOM     18  N   LIG d   1      -4.129  93.954 119.930  0.00  0.00     0.381 N 
ATOM     19  H   LIG d   1      -3.616  94.596 119.359  0.00  0.00    -0.090 HD
ATOM     20  H   LIG d   1      -3.565  93.133 120.064  0.00  0.00    -0.090 HD
ATOM     21  H   LIG d   1      -4.334  94.372 120.811  0.00  0.00    -0.090 HD
ENDBRANCH   5  18
BRANCH   3  22
ATOM     22  C   LIG d   1      -8.285  95.538 118.155  0.00  0.00     0.382 C 
ATOM     23  O   LIG d   1      -9.464  95.164 117.944  0.00  0.00    -0.241 OA
ATOM     24  O   LIG d   1      -8.057  96.738 118.399  0.00  0.00    -0.241 OA
ENDBRANCH   3  22
TORSDOF 7
ENDMDL
MODEL 8
REMARK VINA RESULT:      -4.8      8.298     10.692
REMARK  7 active torsions:
REMARK  status: ('A' for Active; 'I' for Inactive)
REMARK    1  A    between atoms: C_2  and  C_3 
REMARK    2  A    between atoms: C_3  and  O_6 
REMARK    3  A    between atoms: C_3  and  C_4 
REMARK    4  A    between atoms: C_7  and  O_6 
REMARK    5  A    between atoms: C_9  and  C_10 
REMARK    6  A    between atoms: N_15  and  C_14 
REMARK    7  A    between atoms: N_20  and  C_19 
REMARK       I    between atoms: C_22  and  N_20 
ROOT
ATOM      1  C   LIG d   1       3.148  88.872 116.021  0.00  0.00     0.161 C 
ATOM      2  C   LIG d   1       3.547  89.832 116.966  0.00  0.00     0.016 C 
ATOM      3  C   LIG d   1       4.689  90.652 116.808  0.00  0.00     0.038 C 
ATOM      4  C   LIG d   1       5.428  90.671 115.616  0.00  0.00     0.028 C 
ATOM      5  C   LIG d   1       5.360  89.361 114.839  0.00  0.00    -0.047 C 
ATOM      6  C   LIG d   1       3.878  88.957 114.665  0.00  0.00     0.091 C 
ENDROOT
BRANCH   1   7
ATOM      7  O   LIG d   1       1.721  88.941 115.827  0.00  0.00    -0.368 OA
BRANCH   7   8
ATOM      8  C   LIG d   1       0.950  87.844 116.375  0.00  0.00     0.119 C 
BRANCH   8   9
ATOM      9  C   LIG d   1       0.230  88.367 117.633  0.00  0.00     0.028 C 
ATOM     10  C   LIG d   1      -0.638  89.604 117.341  0.00  0.00     0.006 C 
ENDBRANCH   8   9
BRANCH   8  11
ATOM     11  C   LIG d   1       1.860  86.715 116.869  0.00  0.00     0.028 C 
ATOM     12  C   LIG d   1       1.728  85.434 116.031  0.00  0.00     0.006 C 
ENDBRANCH   8  11
ENDBRANCH   7   8
ENDBRANCH   1   7
BRANCH   6  13
ATOM     13  N   LIG d   1       3.725  87.642 113.988  0.00  0.00    -0.311 N 
ATOM     14  C   LIG d   1       2.893  87.435 112.969  0.00  0.00     0.210 C 
ATOM     15  C   LIG d   1       2.875  86.001 112.431  0.00  0.00     0.109 C 
ATOM     16  O   LIG d   1       2.193  88.310 112.438  0.00  0.00    -0.276 OA
ATOM     17  H   LIG d   1       4.279  86.884 114.335  0.00  0.00     0.149 HD
ENDBRANCH   6  13
BRANCH   5  18
ATOM     18  N   LIG d   1       6.059  89.566 113.556  0.00  0.00     0.381 N 
ATOM     19  H   LIG d   1       5.658  88.976 112.854  0.00  0.00    -0.090 HD
ATOM     20  H   LIG d   1       7.024  89.312 113.668  0.00  0.00    -0.090 HD
ATOM     21  H   LIG d   1       5.988  90.520 113.279  0.00  0.00    -0.090 HD
ENDBRANCH   5  18
BRANCH   3  22
ATOM     22  C   LIG d   1       5.124  91.435 117.866  0.00  0.00     0.382 C 
ATOM     23  O   LIG d   1       5.578  90.892 118.902  0.00  0.00    -0.241 OA
ATOM     24  O   LIG d   1       5.028  92.676 117.815  0.00  0.00    -0.241 OA
ENDBRANCH   3  22
TORSDOF 7
ENDMDL
MODEL 9
REMARK VINA RESULT:      -4.6      2.502      4.541
REMARK  7 active torsions:
REMARK  status: ('A' for Active; 'I' for Inactive)
REMARK    1  A    between atoms: C_2  and  C_3 
REMARK    2  A    between atoms: C_3  and  O_6 
REMARK    3  A    between atoms: C_3  and  C_4 
REMARK    4  A    between atoms: C_7  and  O_6 
REMARK    5  A    between atoms: C_9  and  C_10 
REMARK    6  A    between atoms: N_15  and  C_14 
REMARK    7  A    between atoms: N_20  and  C_19 
REMARK       I    between atoms: C_22  and  N_20 
ROOT
ATOM      1  C   LIG d   1      -4.958  90.993 118.382  0.00  0.00     0.161 C 
ATOM      2  C   LIG d   1      -5.463  92.287 118.589  0.00  0.00     0.016 C 
ATOM      3  C   LIG d   1      -4.687  93.353 119.100  0.00  0.00     0.038 C 
ATOM      4  C   LIG d   1      -3.303  93.233 119.298  0.00  0.00     0.028 C 
ATOM      5  C   LIG d   1      -2.852  91.804 119.580  0.00  0.00    -0.047 C 
ATOM      6  C   LIG d   1      -3.424  90.872 118.487  0.00  0.00     0.091 C 
ENDROOT
BRANCH   1   7
ATOM      7  O   LIG d   1      -5.415  90.488 117.111  0.00  0.00    -0.368 OA
BRANCH   7   8
ATOM      8  C   LIG d   1      -6.724  90.936 116.680  0.00  0.00     0.119 C 
BRANCH   8   9
ATOM      9  C   LIG d   1      -7.238  89.926 115.636  0.00  0.00     0.028 C 
ATOM     10  C   LIG d   1      -8.538  89.234 116.080  0.00  0.00     0.006 C 
ENDBRANCH   8   9
BRANCH   8  11
ATOM     11  C   LIG d   1      -6.639  92.275 115.941  0.00  0.00     0.028 C 
ATOM     12  C   LIG d   1      -6.994  92.156 114.451  0.00  0.00     0.006 C 
ENDBRANCH   8  11
ENDBRANCH   7   8
ENDBRANCH   1   7
BRANCH   6  13
ATOM     13  N   LIG d   1      -3.100  89.443 118.734  0.00  0.00    -0.311 N 
ATOM     14  C   LIG d   1      -2.066  88.818 118.174  0.00  0.00     0.210 C 
ATOM     15  C   LIG d   1      -1.925  87.339 118.549  0.00  0.00     0.109 C 
ATOM     16  O   LIG d   1      -1.234  89.356 117.429  0.00  0.00    -0.276 OA
ATOM     17  H   LIG d   1      -3.706  88.939 119.351  0.00  0.00     0.149 HD
ENDBRANCH   6  13
BRANCH   5  18
ATOM     18  N   LIG d   1      -1.378  91.803 119.628  0.00  0.00     0.381 N 
ATOM     19  H   LIG d   1      -1.070  91.704 120.575  0.00  0.00    -0.090 HD
ATOM     20  H   LIG d   1      -1.041  92.681 119.277  0.00  0.00    -0.090 HD
ATOM     21  H   LIG d   1      -1.020  91.055 119.076  0.00  0.00    -0.090 HD
ENDBRANCH   5  18
BRANCH   3  22
ATOM     22  C   LIG d   1      -5.303  94.543 119.457  0.00  0.00     0.382 C 
ATOM     23  O   LIG d   1      -4.615  95.500 119.887  0.00  0.00    -0.241 OA
ATOM     24  O   LIG d   1      -6.542  94.656 119.395  0.00  0.00    -0.241 OA
ENDBRANCH   3  22
TORSDOF 7
ENDMDL
