MODEL 1
REMARK VINA RESULT:      -5.0      0.000      0.000
REMARK  7 active torsions:
REMARK  status: ('A' for Active; 'I' for Inactive)
REMARK    1  A    between atoms: C_2  and  C_3 
REMARK    2  A    between atoms: C_3  and  O_6 
REMARK    3  A    between atoms: C_3  and  C_4 
REMARK    4  A    between atoms: C_7  and  O_6 
REMARK    5  A    between atoms: C_9  and  C_10 
REMARK    6  A    between atoms: N_15  and  C_14 
REMARK    7  A    between atoms: N_20  and  C_19 
REMARK       I    between atoms: C_22  and  N_20 
ROOT
ATOM      1  C   LIG d   1      -3.786  91.008 117.109  0.00  0.00     0.161 C 
ATOM      2  C   LIG d   1      -4.667  90.279 116.294  0.00  0.00     0.016 C 
ATOM      3  C   LIG d   1      -5.960  90.733 115.944  0.00  0.00     0.038 C 
ATOM      4  C   LIG d   1      -6.403  92.025 116.265  0.00  0.00     0.028 C 
ATOM      5  C   LIG d   1      -5.743  92.600 117.513  0.00  0.00    -0.047 C 
ATOM      6  C   LIG d   1      -4.209  92.468 117.376  0.00  0.00     0.091 C 
ENDROOT
BRANCH   1   7
ATOM      7  O   LIG d   1      -2.457  90.967 116.552  0.00  0.00    -0.368 OA
BRANCH   7   8
ATOM      8  C   LIG d   1      -1.507  90.111 117.233  0.00  0.00     0.119 C 
BRANCH   8   9
ATOM      9  C   LIG d   1      -2.213  89.530 118.473  0.00  0.00     0.028 C 
ATOM     10  C   LIG d   1      -1.880  88.045 118.696  0.00  0.00     0.006 C 
ENDBRANCH   8   9
BRANCH   8  11
ATOM     11  C   LIG d   1      -0.325  90.917 117.780  0.00  0.00     0.028 C 
ATOM     12  C   LIG d   1       0.512  91.574 116.672  0.00  0.00     0.006 C 
ENDBRANCH   8  11
ENDBRANCH   7   8
ENDBRANCH   1   7
BRANCH   6  13
ATOM     13  N   LIG d   1      -3.490  92.930 118.592  0.00  0.00    -0.311 N 
ATOM     14  C   LIG d   1      -2.510  93.831 118.565  0.00  0.00     0.210 C 
ATOM     15  C   LIG d   1      -1.888  94.151 119.929  0.00  0.00     0.109 C 
ATOM     16  O   LIG d   1      -2.117  94.420 117.547  0.00  0.00    -0.276 OA
ATOM     17  H   LIG d   1      -3.766  92.527 119.466  0.00  0.00     0.149 HD
ENDBRANCH   6  13
BRANCH   5  18
ATOM     18  N   LIG d   1      -6.193  93.998 117.652  0.00  0.00     0.381 N 
ATOM     19  H   LIG d   1      -6.671  94.284 116.821  0.00  0.00    -0.090 HD
ATOM     20  H   LIG d   1      -5.389  94.588 117.773  0.00  0.00    -0.090 HD
ATOM     21  H   LIG d   1      -6.799  94.084 118.438  0.00  0.00    -0.090 HD
ENDBRANCH   5  18
BRANCH   3  22
ATOM     22  C   LIG d   1      -6.838  89.876 115.300  0.00  0.00     0.382 C 
ATOM     23  O   LIG d   1      -6.649  89.572 114.097  0.00  0.00    -0.241 OA
ATOM     24  O   LIG d   1      -7.843  89.438 115.892  0.00  0.00    -0.241 OA
ENDBRANCH   3  22
TORSDOF 7
ENDMDL
MODEL 2
REMARK VINA RESULT:      -5.0      5.188      7.366
REMARK  7 active torsions:
REMARK  status: ('A' for Active; 'I' for Inactive)
REMARK    1  A    between atoms: C_2  and  C_3 
REMARK    2  A    between atoms: C_3  and  O_6 
REMARK    3  A    between atoms: C_3  and  C_4 
REMARK    4  A    between atoms: C_7  and  O_6 
REMARK    5  A    between atoms: C_9  and  C_10 
REMARK    6  A    between atoms: N_15  and  C_14 
REMARK    7  A    between atoms: N_20  and  C_19 
REMARK       I    between atoms: C_22  and  N_20 
ROOT
ATOM      1  C   LIG d   1       1.484  87.938 115.593  0.00  0.00     0.161 C 
ATOM      2  C   LIG d   1       0.179  87.749 116.079  0.00  0.00     0.016 C 
ATOM      3  C   LIG d   1      -0.519  88.721 116.833  0.00  0.00     0.038 C 
ATOM      4  C   LIG d   1      -0.013  90.015 117.025  0.00  0.00     0.028 C 
ATOM      5  C   LIG d   1       1.510  90.082 116.984  0.00  0.00    -0.047 C 
ATOM      6  C   LIG d   1       2.009  89.386 115.697  0.00  0.00     0.091 C 
ENDROOT
BRANCH   1   7
ATOM      7  O   LIG d   1       1.571  87.470 114.233  0.00  0.00    -0.368 OA
BRANCH   7   8
ATOM      8  C   LIG d   1       1.938  86.079 114.060  0.00  0.00     0.119 C 
BRANCH   8   9
ATOM      9  C   LIG d   1       3.465  86.027 113.854  0.00  0.00     0.028 C 
ATOM     10  C   LIG d   1       3.880  86.441 112.433  0.00  0.00     0.006 C 
ENDBRANCH   8   9
BRANCH   8  11
ATOM     11  C   LIG d   1       1.336  85.499 112.777  0.00  0.00     0.028 C 
ATOM     12  C   LIG d   1      -0.137  85.890 112.581  0.00  0.00     0.006 C 
ENDBRANCH   8  11
ENDBRANCH   7   8
ENDBRANCH   1   7
BRANCH   6  13
ATOM     13  N   LIG d   1       3.492  89.332 115.619  0.00  0.00    -0.311 N 
ATOM     14  C   LIG d   1       4.178  89.600 114.510  0.00  0.00     0.210 C 
ATOM     15  C   LIG d   1       5.699  89.467 114.642  0.00  0.00     0.109 C 
ATOM     16  O   LIG d   1       3.674  89.967 113.438  0.00  0.00    -0.276 OA
ATOM     17  H   LIG d   1       3.983  89.074 116.453  0.00  0.00     0.149 HD
ENDBRANCH   6  13
BRANCH   5  18
ATOM     18  N   LIG d   1       1.896  91.504 117.058  0.00  0.00     0.381 N 
ATOM     19  H   LIG d   1       1.147  92.038 117.452  0.00  0.00    -0.090 HD
ATOM     20  H   LIG d   1       2.070  91.843 116.128  0.00  0.00    -0.090 HD
ATOM     21  H   LIG d   1       2.716  91.606 117.615  0.00  0.00    -0.090 HD
ENDBRANCH   5  18
BRANCH   3  22
ATOM     22  C   LIG d   1      -1.720  88.387 117.439  0.00  0.00     0.382 C 
ATOM     23  O   LIG d   1      -1.736  87.579 118.399  0.00  0.00    -0.241 OA
ATOM     24  O   LIG d   1      -2.794  88.850 117.010  0.00  0.00    -0.241 OA
ENDBRANCH   3  22
TORSDOF 7
ENDMDL
MODEL 3
REMARK VINA RESULT:      -4.9      2.793      6.416
REMARK  7 active torsions:
REMARK  status: ('A' for Active; 'I' for Inactive)
REMARK    1  A    between atoms: C_2  and  C_3 
REMARK    2  A    between atoms: C_3  and  O_6 
REMARK    3  A    between atoms: C_3  and  C_4 
REMARK    4  A    between atoms: C_7  and  O_6 
REMARK    5  A    between atoms: C_9  and  C_10 
REMARK    6  A    between atoms: N_15  and  C_14 
REMARK    7  A    between atoms: N_20  and  C_19 
REMARK       I    between atoms: C_22  and  N_20 
ROOT
ATOM      1  C   LIG d   1      -5.644  92.383 118.346  0.00  0.00     0.161 C 
ATOM      2  C   LIG d   1      -4.486  92.815 119.015  0.00  0.00     0.016 C 
ATOM      3  C   LIG d   1      -3.184  92.383 118.673  0.00  0.00     0.038 C 
ATOM      4  C   LIG d   1      -2.936  91.601 117.535  0.00  0.00     0.028 C 
ATOM      5  C   LIG d   1      -4.121  90.732 117.128  0.00  0.00    -0.047 C 
ATOM      6  C   LIG d   1      -5.384  91.618 117.032  0.00  0.00     0.091 C 
ENDROOT
BRANCH   1   7
ATOM      7  O   LIG d   1      -6.517  93.505 118.109  0.00  0.00    -0.368 OA
BRANCH   7   8
ATOM      8  C   LIG d   1      -6.582  94.497 119.163  0.00  0.00     0.119 C 
BRANCH   8   9
ATOM      9  C   LIG d   1      -7.922  94.302 119.900  0.00  0.00     0.028 C 
ATOM     10  C   LIG d   1      -8.921  95.434 119.610  0.00  0.00     0.006 C 
ENDBRANCH   8   9
BRANCH   8  11
ATOM     11  C   LIG d   1      -6.637  95.916 118.590  0.00  0.00     0.028 C 
ATOM     12  C   LIG d   1      -5.547  96.833 119.166  0.00  0.00     0.006 C 
ENDBRANCH   8  11
ENDBRANCH   7   8
ENDBRANCH   1   7
BRANCH   6  13
ATOM     13  N   LIG d   1      -6.606  90.831 116.721  0.00  0.00    -0.311 N 
ATOM     14  C   LIG d   1      -7.011  90.566 115.480  0.00  0.00     0.210 C 
ATOM     15  C   LIG d   1      -8.308  89.756 115.382  0.00  0.00     0.109 C 
ATOM     16  O   LIG d   1      -6.403  90.897 114.451  0.00  0.00    -0.276 OA
ATOM     17  H   LIG d   1      -7.143  90.497 117.497  0.00  0.00     0.149 HD
ENDBRANCH   6  13
BRANCH   5  18
ATOM     18  N   LIG d   1      -3.776  90.076 115.853  0.00  0.00     0.381 N 
ATOM     19  H   LIG d   1      -4.203  90.568 115.093  0.00  0.00    -0.090 HD
ATOM     20  H   LIG d   1      -4.135  89.138 115.862  0.00  0.00    -0.090 HD
ATOM     21  H   LIG d   1      -2.787  90.061 115.734  0.00  0.00    -0.090 HD
ENDBRANCH   5  18
BRANCH   3  22
ATOM     22  C   LIG d   1      -2.116  92.701 119.499  0.00  0.00     0.382 C 
ATOM     23  O   LIG d   1      -1.902  93.896 119.815  0.00  0.00    -0.241 OA
ATOM     24  O   LIG d   1      -1.337  91.813 119.895  0.00  0.00    -0.241 OA
ENDBRANCH   3  22
TORSDOF 7
ENDMDL
MODEL 4
REMARK VINA RESULT:      -4.8      1.716      4.810
REMARK  7 active torsions:
REMARK  status: ('A' for Active; 'I' for Inactive)
REMARK    1  A    between atoms: C_2  and  C_3 
REMARK    2  A    between atoms: C_3  and  O_6 
REMARK    3  A    between atoms: C_3  and  C_4 
REMARK    4  A    between atoms: C_7  and  O_6 
REMARK    5  A    between atoms: C_9  and  C_10 
REMARK    6  A    between atoms: N_15  and  C_14 
REMARK    7  A    between atoms: N_20  and  C_19 
REMARK       I    between atoms: C_22  and  N_20 
ROOT
ATOM      1  C   LIG d   1      -3.782  92.000 117.098  0.00  0.00     0.161 C 
ATOM      2  C   LIG d   1      -3.009  93.044 117.634  0.00  0.00     0.016 C 
ATOM      3  C   LIG d   1      -3.500  93.964 118.589  0.00  0.00     0.038 C 
ATOM      4  C   LIG d   1      -4.758  93.810 119.188  0.00  0.00     0.028 C 
ATOM      5  C   LIG d   1      -5.761  93.069 118.310  0.00  0.00    -0.047 C 
ATOM      6  C   LIG d   1      -5.121  91.749 117.822  0.00  0.00     0.091 C 
ENDROOT
BRANCH   1   7
ATOM      7  O   LIG d   1      -3.002  90.789 117.052  0.00  0.00    -0.368 OA
BRANCH   7   8
ATOM      8  C   LIG d   1      -1.806  90.770 117.869  0.00  0.00     0.119 C 
BRANCH   8   9
ATOM      9  C   LIG d   1      -0.640  90.309 116.972  0.00  0.00     0.028 C 
ATOM     10  C   LIG d   1       0.371  91.435 116.700  0.00  0.00     0.006 C 
ENDBRANCH   8   9
BRANCH   8  11
ATOM     11  C   LIG d   1      -1.905  89.717 118.977  0.00  0.00     0.028 C 
ATOM     12  C   LIG d   1      -2.185  88.307 118.436  0.00  0.00     0.006 C 
ENDBRANCH   8  11
ENDBRANCH   7   8
ENDBRANCH   1   7
BRANCH   6  13
ATOM     13  N   LIG d   1      -6.004  91.003 116.888  0.00  0.00    -0.311 N 
ATOM     14  C   LIG d   1      -6.372  91.469 115.696  0.00  0.00     0.210 C 
ATOM     15  C   LIG d   1      -7.302  90.548 114.900  0.00  0.00     0.109 C 
ATOM     16  O   LIG d   1      -5.990  92.544 115.209  0.00  0.00    -0.276 OA
ATOM     17  H   LIG d   1      -6.334  90.107 117.191  0.00  0.00     0.149 HD
ENDBRANCH   6  13
BRANCH   5  18
ATOM     18  N   LIG d   1      -6.983  92.858 119.109  0.00  0.00     0.381 N 
ATOM     19  H   LIG d   1      -7.678  93.528 118.848  0.00  0.00    -0.090 HD
ATOM     20  H   LIG d   1      -6.764  92.993 120.080  0.00  0.00    -0.090 HD
ATOM     21  H   LIG d   1      -7.330  91.935 118.965  0.00  0.00    -0.090 HD
ENDBRANCH   5  18
BRANCH   3  22
ATOM     22  C   LIG d   1      -2.742  95.076 118.924  0.00  0.00     0.382 C 
ATOM     23  O   LIG d   1      -3.310  96.154 119.223  0.00  0.00    -0.241 OA
ATOM     24  O   LIG d   1      -1.498  95.028 118.887  0.00  0.00    -0.241 OA
ENDBRANCH   3  22
TORSDOF 7
ENDMDL
MODEL 5
REMARK VINA RESULT:      -4.8      1.876      2.599
REMARK  7 active torsions:
REMARK  status: ('A' for Active; 'I' for Inactive)
REMARK    1  A    between atoms: C_2  and  C_3 
REMARK    2  A    between atoms: C_3  and  O_6 
REMARK    3  A    between atoms: C_3  and  C_4 
REMARK    4  A    between atoms: C_7  and  O_6 
REMARK    5  A    between atoms: C_9  and  C_10 
REMARK    6  A    between atoms: N_15  and  C_14 
REMARK    7  A    between atoms: N_20  and  C_19 
REMARK       I    between atoms: C_22  and  N_20 
ROOT
ATOM      1  C   LIG d   1      -2.267  90.636 117.438  0.00  0.00     0.161 C 
ATOM      2  C   LIG d   1      -3.425  90.234 116.752  0.00  0.00     0.016 C 
ATOM      3  C   LIG d   1      -4.534  91.083 116.535  0.00  0.00     0.038 C 
ATOM      4  C   LIG d   1      -4.499  92.447 116.862  0.00  0.00     0.028 C 
ATOM      5  C   LIG d   1      -3.548  92.771 118.009  0.00  0.00    -0.047 C 
ATOM      6  C   LIG d   1      -2.165  92.152 117.704  0.00  0.00     0.091 C 
ENDROOT
BRANCH   1   7
ATOM      7  O   LIG d   1      -1.097  90.170 116.737  0.00  0.00    -0.368 OA
BRANCH   7   8
ATOM      8  C   LIG d   1      -0.282  89.195 117.433  0.00  0.00     0.119 C 
BRANCH   8   9
ATOM      9  C   LIG d   1      -0.288  87.903 116.593  0.00  0.00     0.028 C 
ATOM     10  C   LIG d   1       1.010  87.719 115.789  0.00  0.00     0.006 C 
ENDBRANCH   8   9
BRANCH   8  11
ATOM     11  C   LIG d   1      -0.904  88.807 118.777  0.00  0.00     0.028 C 
ATOM     12  C   LIG d   1      -1.265  87.316 118.859  0.00  0.00     0.006 C 
ENDBRANCH   8  11
ENDBRANCH   7   8
ENDBRANCH   1   7
BRANCH   6  13
ATOM     13  N   LIG d   1      -1.198  92.350 118.816  0.00  0.00    -0.311 N 
ATOM     14  C   LIG d   1      -0.010  92.932 118.659  0.00  0.00     0.210 C 
ATOM     15  C   LIG d   1       0.840  93.018 119.930  0.00  0.00     0.109 C 
ATOM     16  O   LIG d   1       0.407  93.413 117.595  0.00  0.00    -0.276 OA
ATOM     17  H   LIG d   1      -1.469  92.017 119.720  0.00  0.00     0.149 HD
ENDBRANCH   6  13
BRANCH   5  18
ATOM     18  N   LIG d   1      -3.506  94.239 118.152  0.00  0.00     0.381 N 
ATOM     19  H   LIG d   1      -3.100  94.647 117.334  0.00  0.00    -0.090 HD
ATOM     20  H   LIG d   1      -2.929  94.472 118.940  0.00  0.00    -0.090 HD
ATOM     21  H   LIG d   1      -4.427  94.595 118.288  0.00  0.00    -0.090 HD
ENDBRANCH   5  18
BRANCH   3  22
ATOM     22  C   LIG d   1      -5.711  90.559 116.022  0.00  0.00     0.382 C 
ATOM     23  O   LIG d   1      -6.817  91.021 116.392  0.00  0.00    -0.241 OA
ATOM     24  O   LIG d   1      -5.681  89.601 115.227  0.00  0.00    -0.241 OA
ENDBRANCH   3  22
TORSDOF 7
ENDMDL
MODEL 6
REMARK VINA RESULT:      -4.8      2.577      4.398
REMARK  7 active torsions:
REMARK  status: ('A' for Active; 'I' for Inactive)
REMARK    1  A    between atoms: C_2  and  C_3 
REMARK    2  A    between atoms: C_3  and  O_6 
REMARK    3  A    between atoms: C_3  and  C_4 
REMARK    4  A    between atoms: C_7  and  O_6 
REMARK    5  A    between atoms: C_9  and  C_10 
REMARK    6  A    between atoms: N_15  and  C_14 
REMARK    7  A    between atoms: N_20  and  C_19 
REMARK       I    between atoms: C_22  and  N_20 
ROOT
ATOM      1  C   LIG d   1      -2.190  92.521 117.840  0.00  0.00     0.161 C 
ATOM      2  C   LIG d   1      -3.491  92.913 117.483  0.00  0.00     0.016 C 
ATOM      3  C   LIG d   1      -4.451  92.026 116.945  0.00  0.00     0.038 C 
ATOM      4  C   LIG d   1      -4.223  90.644 116.868  0.00  0.00     0.028 C 
ATOM      5  C   LIG d   1      -2.747  90.280 116.746  0.00  0.00    -0.047 C 
ATOM      6  C   LIG d   1      -1.959  90.995 117.867  0.00  0.00     0.091 C 
ENDROOT
BRANCH   1   7
ATOM      7  O   LIG d   1      -1.835  93.104 119.109  0.00  0.00    -0.368 OA
BRANCH   7   8
ATOM      8  C   LIG d   1      -0.846  94.162 119.070  0.00  0.00     0.119 C 
BRANCH   8   9
ATOM      9  C   LIG d   1      -1.601  95.494 118.890  0.00  0.00     0.028 C 
ATOM     10  C   LIG d   1      -1.324  96.144 117.524  0.00  0.00     0.006 C 
ENDBRANCH   8   9
BRANCH   8  11
ATOM     11  C   LIG d   1       0.056  94.037 117.839  0.00  0.00     0.028 C 
ATOM     12  C   LIG d   1       1.480  93.577 118.188  0.00  0.00     0.006 C 
ENDBRANCH   8  11
ENDBRANCH   7   8
ENDBRANCH   1   7
BRANCH   6  13
ATOM     13  N   LIG d   1      -0.495  90.760 117.769  0.00  0.00    -0.311 N 
ATOM     14  C   LIG d   1       0.139  89.799 118.438  0.00  0.00     0.210 C 
ATOM     15  C   LIG d   1       1.653  89.743 118.209  0.00  0.00     0.109 C 
ATOM     16  O   LIG d   1      -0.412  88.967 119.174  0.00  0.00    -0.276 OA
ATOM     17  H   LIG d   1       0.026  91.370 117.170  0.00  0.00     0.149 HD
ENDBRANCH   6  13
BRANCH   5  18
ATOM     18  N   LIG d   1      -2.644  88.810 116.814  0.00  0.00     0.381 N 
ATOM     19  H   LIG d   1      -3.217  88.464 117.557  0.00  0.00    -0.090 HD
ATOM     20  H   LIG d   1      -1.690  88.560 117.008  0.00  0.00    -0.090 HD
ATOM     21  H   LIG d   1      -2.931  88.407 115.949  0.00  0.00    -0.090 HD
ENDBRANCH   5  18
BRANCH   3  22
ATOM     22  C   LIG d   1      -5.642  92.526 116.440  0.00  0.00     0.382 C 
ATOM     23  O   LIG d   1      -5.937  92.344 115.234  0.00  0.00    -0.241 OA
ATOM     24  O   LIG d   1      -6.404  93.195 117.164  0.00  0.00    -0.241 OA
ENDBRANCH   3  22
TORSDOF 7
ENDMDL
MODEL 7
REMARK VINA RESULT:      -4.7      2.220      4.203
REMARK  7 active torsions:
REMARK  status: ('A' for Active; 'I' for Inactive)
REMARK    1  A    between atoms: C_2  and  C_3 
REMARK    2  A    between atoms: C_3  and  O_6 
REMARK    3  A    between atoms: C_3  and  C_4 
REMARK    4  A    between atoms: C_7  and  O_6 
REMARK    5  A    between atoms: C_9  and  C_10 
REMARK    6  A    between atoms: N_15  and  C_14 
REMARK    7  A    between atoms: N_20  and  C_19 
REMARK       I    between atoms: C_22  and  N_20 
ROOT
ATOM      1  C   LIG d   1      -4.886  92.292 117.987  0.00  0.00     0.161 C 
ATOM      2  C   LIG d   1      -5.787  92.215 116.912  0.00  0.00     0.016 C 
ATOM      3  C   LIG d   1      -5.653  91.293 115.849  0.00  0.00     0.038 C 
ATOM      4  C   LIG d   1      -4.686  90.277 115.866  0.00  0.00     0.028 C 
ATOM      5  C   LIG d   1      -3.446  90.634 116.680  0.00  0.00    -0.047 C 
ATOM      6  C   LIG d   1      -3.888  91.119 118.080  0.00  0.00     0.091 C 
ENDROOT
BRANCH   1   7
ATOM      7  O   LIG d   1      -5.612  92.431 119.224  0.00  0.00    -0.368 OA
BRANCH   7   8
ATOM      8  C   LIG d   1      -5.602  93.750 119.825  0.00  0.00     0.119 C 
BRANCH   8   9
ATOM      9  C   LIG d   1      -7.023  94.330 119.692  0.00  0.00     0.028 C 
ATOM     10  C   LIG d   1      -7.075  95.543 118.747  0.00  0.00     0.006 C 
ENDBRANCH   8   9
BRANCH   8  11
ATOM     11  C   LIG d   1      -4.697  94.709 119.047  0.00  0.00     0.028 C 
ATOM     12  C   LIG d   1      -3.614  95.353 119.927  0.00  0.00     0.006 C 
ENDBRANCH   8  11
ENDBRANCH   7   8
ENDBRANCH   1   7
BRANCH   6  13
ATOM     13  N   LIG d   1      -2.741  91.568 118.912  0.00  0.00    -0.311 N 
ATOM     14  C   LIG d   1      -1.862  92.487 118.514  0.00  0.00     0.210 C 
ATOM     15  C   LIG d   1      -0.745  92.790 119.517  0.00  0.00     0.109 C 
ATOM     16  O   LIG d   1      -1.920  93.102 117.439  0.00  0.00    -0.276 OA
ATOM     17  H   LIG d   1      -2.637  91.143 119.812  0.00  0.00     0.149 HD
ENDBRANCH   6  13
BRANCH   5  18
ATOM     18  N   LIG d   1      -2.584  89.438 116.727  0.00  0.00     0.381 N 
ATOM     19  H   LIG d   1      -3.133  88.634 116.958  0.00  0.00    -0.090 HD
ATOM     20  H   LIG d   1      -1.893  89.565 117.445  0.00  0.00    -0.090 HD
ATOM     21  H   LIG d   1      -2.138  89.304 115.847  0.00  0.00    -0.090 HD
ENDBRANCH   5  18
BRANCH   3  22
ATOM     22  C   LIG d   1      -6.468  91.407 114.733  0.00  0.00     0.382 C 
ATOM     23  O   LIG d   1      -6.923  90.376 114.181  0.00  0.00    -0.241 OA
ATOM     24  O   LIG d   1      -6.719  92.525 114.246  0.00  0.00    -0.241 OA
ENDBRANCH   3  22
TORSDOF 7
ENDMDL
MODEL 8
REMARK VINA RESULT:      -4.7      5.392      8.177
REMARK  7 active torsions:
REMARK  status: ('A' for Active; 'I' for Inactive)
REMARK    1  A    between atoms: C_2  and  C_3 
REMARK    2  A    between atoms: C_3  and  O_6 
REMARK    3  A    between atoms: C_3  and  C_4 
REMARK    4  A    between atoms: C_7  and  O_6 
REMARK    5  A    between atoms: C_9  and  C_10 
REMARK    6  A    between atoms: N_15  and  C_14 
REMARK    7  A    between atoms: N_20  and  C_19 
REMARK       I    between atoms: C_22  and  N_20 
ROOT
ATOM      1  C   LIG d   1       2.659  89.826 116.327  0.00  0.00     0.161 C 
ATOM      2  C   LIG d   1       2.668  89.152 115.094  0.00  0.00     0.016 C 
ATOM      3  C   LIG d   1       3.847  88.884 114.362  0.00  0.00     0.038 C 
ATOM      4  C   LIG d   1       5.121  89.141 114.889  0.00  0.00     0.028 C 
ATOM      5  C   LIG d   1       5.139  90.278 115.905  0.00  0.00    -0.047 C 
ATOM      6  C   LIG d   1       4.049  90.016 116.970  0.00  0.00     0.091 C 
ENDROOT
BRANCH   1   7
ATOM      7  O   LIG d   1       1.770  89.158 117.243  0.00  0.00    -0.368 OA
BRANCH   7   8
ATOM      8  C   LIG d   1       0.364  89.481 117.117  0.00  0.00     0.119 C 
BRANCH   8   9
ATOM      9  C   LIG d   1       0.064  90.634 118.095  0.00  0.00     0.028 C 
ATOM     10  C   LIG d   1      -0.266  91.949 117.369  0.00  0.00     0.006 C 
ENDBRANCH   8   9
BRANCH   8  11
ATOM     11  C   LIG d   1      -0.519  88.318 117.579  0.00  0.00     0.028 C 
ATOM     12  C   LIG d   1      -2.015  88.569 117.327  0.00  0.00     0.006 C 
ENDBRANCH   8  11
ENDBRANCH   7   8
ENDBRANCH   1   7
BRANCH   6  13
ATOM     13  N   LIG d   1       3.941  91.123 117.955  0.00  0.00    -0.311 N 
ATOM     14  C   LIG d   1       3.553  92.355 117.634  0.00  0.00     0.210 C 
ATOM     15  C   LIG d   1       3.530  93.351 118.798  0.00  0.00     0.109 C 
ATOM     16  O   LIG d   1       3.194  92.711 116.501  0.00  0.00    -0.276 OA
ATOM     17  H   LIG d   1       4.184  90.914 118.904  0.00  0.00     0.149 HD
ENDBRANCH   6  13
BRANCH   5  18
ATOM     18  N   LIG d   1       6.498  90.347 116.474  0.00  0.00     0.381 N 
ATOM     19  H   LIG d   1       7.155  90.570 115.753  0.00  0.00    -0.090 HD
ATOM     20  H   LIG d   1       6.738  89.448 116.852  0.00  0.00    -0.090 HD
ATOM     21  H   LIG d   1       6.533  91.038 117.191  0.00  0.00    -0.090 HD
ENDBRANCH   5  18
BRANCH   3  22
ATOM     22  C   LIG d   1       3.756  88.389 113.070  0.00  0.00     0.382 C 
ATOM     23  O   LIG d   1       4.767  87.894 112.515  0.00  0.00    -0.241 OA
ATOM     24  O   LIG d   1       2.687  88.472 112.436  0.00  0.00    -0.241 OA
ENDBRANCH   3  22
TORSDOF 7
ENDMDL
MODEL 9
REMARK VINA RESULT:      -4.5      2.487      6.085
REMARK  7 active torsions:
REMARK  status: ('A' for Active; 'I' for Inactive)
REMARK    1  A    between atoms: C_2  and  C_3 
REMARK    2  A    between atoms: C_3  and  O_6 
REMARK    3  A    between atoms: C_3  and  C_4 
REMARK    4  A    between atoms: C_7  and  O_6 
REMARK    5  A    between atoms: C_9  and  C_10 
REMARK    6  A    between atoms: N_15  and  C_14 
REMARK    7  A    between atoms: N_20  and  C_19 
REMARK       I    between atoms: C_22  and  N_20 
ROOT
ATOM      1  C   LIG d   1      -2.909  92.687 119.175  0.00  0.00     0.161 C 
ATOM      2  C   LIG d   1      -2.902  94.091 119.145  0.00  0.00     0.016 C 
ATOM      3  C   LIG d   1      -2.069  94.847 118.288  0.00  0.00     0.038 C 
ATOM      4  C   LIG d   1      -1.292  94.244 117.288  0.00  0.00     0.028 C 
ATOM      5  C   LIG d   1      -0.887  92.811 117.618  0.00  0.00    -0.047 C 
ATOM      6  C   LIG d   1      -2.150  92.011 118.014  0.00  0.00     0.091 C 
ENDROOT
BRANCH   1   7
ATOM      7  O   LIG d   1      -4.267  92.207 119.231  0.00  0.00    -0.368 OA
BRANCH   7   8
ATOM      8  C   LIG d   1      -5.185  92.775 118.264  0.00  0.00     0.119 C 
BRANCH   8   9
ATOM      9  C   LIG d   1      -6.363  93.385 119.047  0.00  0.00     0.028 C 
ATOM     10  C   LIG d   1      -6.562  94.879 118.738  0.00  0.00     0.006 C 
ENDBRANCH   8   9
BRANCH   8  11
ATOM     11  C   LIG d   1      -5.804  91.689 117.379  0.00  0.00     0.028 C 
ATOM     12  C   LIG d   1      -5.885  92.100 115.900  0.00  0.00     0.006 C 
ENDBRANCH   8  11
ENDBRANCH   7   8
ENDBRANCH   1   7
BRANCH   6  13
ATOM     13  N   LIG d   1      -1.832  90.621 118.433  0.00  0.00    -0.311 N 
ATOM     14  C   LIG d   1      -2.412  89.545 117.903  0.00  0.00     0.210 C 
ATOM     15  C   LIG d   1      -1.954  88.208 118.493  0.00  0.00     0.109 C 
ATOM     16  O   LIG d   1      -3.238  89.570 116.978  0.00  0.00    -0.276 OA
ATOM     17  H   LIG d   1      -1.149  90.507 119.156  0.00  0.00     0.149 HD
ENDBRANCH   6  13
BRANCH   5  18
ATOM     18  N   LIG d   1      -0.201  92.258 116.434  0.00  0.00     0.381 N 
ATOM     19  H   LIG d   1       0.305  92.984 115.967  0.00  0.00    -0.090 HD
ATOM     20  H   LIG d   1      -0.889  91.894 115.800  0.00  0.00    -0.090 HD
ATOM     21  H   LIG d   1       0.424  91.533 116.710  0.00  0.00    -0.090 HD
ENDBRANCH   5  18
BRANCH   3  22
ATOM     22  C   LIG d   1      -1.979  96.221 118.453  0.00  0.00     0.382 C 
ATOM     23  O   LIG d   1      -2.585  96.779 119.399  0.00  0.00    -0.241 OA
ATOM     24  O   LIG d   1      -1.335  96.914 117.643  0.00  0.00    -0.241 OA
ENDBRANCH   3  22
TORSDOF 7
ENDMDL
