MODEL 1
REMARK VINA RESULT:      -5.0      0.000      0.000
REMARK  7 active torsions:
REMARK  status: ('A' for Active; 'I' for Inactive)
REMARK    1  A    between atoms: C_2  and  C_3 
REMARK    2  A    between atoms: C_3  and  O_6 
REMARK    3  A    between atoms: C_3  and  C_4 
REMARK    4  A    between atoms: C_7  and  O_6 
REMARK    5  A    between atoms: C_9  and  C_10 
REMARK    6  A    between atoms: N_15  and  C_14 
REMARK    7  A    between atoms: N_20  and  C_19 
REMARK       I    between atoms: C_22  and  N_20 
ROOT
ATOM      1  C   LIG d   1      -5.522  93.173 118.453  0.00  0.00     0.161 C 
ATOM      2  C   LIG d   1      -6.227  92.551 117.409  0.00  0.00     0.016 C 
ATOM      3  C   LIG d   1      -5.692  91.504 116.624  0.00  0.00     0.038 C 
ATOM      4  C   LIG d   1      -4.463  90.900 116.932  0.00  0.00     0.028 C 
ATOM      5  C   LIG d   1      -3.498  91.828 117.661  0.00  0.00    -0.047 C 
ATOM      6  C   LIG d   1      -4.223  92.453 118.875  0.00  0.00     0.091 C 
ENDROOT
BRANCH   1   7
ATOM      7  O   LIG d   1      -6.389  93.349 119.591  0.00  0.00    -0.368 OA
BRANCH   7   8
ATOM      8  C   LIG d   1      -6.864  94.697 119.827  0.00  0.00     0.119 C 
BRANCH   8   9
ATOM      9  C   LIG d   1      -8.296  94.789 119.265  0.00  0.00     0.028 C 
ATOM     10  C   LIG d   1      -8.437  95.882 118.193  0.00  0.00     0.006 C 
ENDBRANCH   8   9
BRANCH   8  11
ATOM     11  C   LIG d   1      -6.050  95.722 119.032  0.00  0.00     0.028 C 
ATOM     12  C   LIG d   1      -5.203  96.637 119.930  0.00  0.00     0.006 C 
ENDBRANCH   8  11
ENDBRANCH   7   8
ENDBRANCH   1   7
BRANCH   6  13
ATOM     13  N   LIG d   1      -3.376  93.439 119.595  0.00  0.00    -0.311 N 
ATOM     14  C   LIG d   1      -2.446  94.181 118.998  0.00  0.00     0.210 C 
ATOM     15  C   LIG d   1      -1.672  95.120 119.928  0.00  0.00     0.109 C 
ATOM     16  O   LIG d   1      -2.209  94.174 117.780  0.00  0.00    -0.276 OA
ATOM     17  H   LIG d   1      -3.523  93.532 120.581  0.00  0.00     0.149 HD
ENDBRANCH   6  13
BRANCH   5  18
ATOM     18  N   LIG d   1      -2.316  91.032 118.041  0.00  0.00     0.381 N 
ATOM     19  H   LIG d   1      -2.127  91.150 119.016  0.00  0.00    -0.090 HD
ATOM     20  H   LIG d   1      -1.521  91.364 117.523  0.00  0.00    -0.090 HD
ATOM     21  H   LIG d   1      -2.474  90.069 117.840  0.00  0.00    -0.090 HD
ENDBRANCH   5  18
BRANCH   3  22
ATOM     22  C   LIG d   1      -6.371  91.076 115.494  0.00  0.00     0.382 C 
ATOM     23  O   LIG d   1      -6.570  91.871 114.544  0.00  0.00    -0.241 OA
ATOM     24  O   LIG d   1      -6.827  89.919 115.431  0.00  0.00    -0.241 OA
ENDBRANCH   3  22
TORSDOF 7
ENDMDL
MODEL 2
REMARK VINA RESULT:      -4.8      7.071      9.834
REMARK  7 active torsions:
REMARK  status: ('A' for Active; 'I' for Inactive)
REMARK    1  A    between atoms: C_2  and  C_3 
REMARK    2  A    between atoms: C_3  and  O_6 
REMARK    3  A    between atoms: C_3  and  C_4 
REMARK    4  A    between atoms: C_7  and  O_6 
REMARK    5  A    between atoms: C_9  and  C_10 
REMARK    6  A    between atoms: N_15  and  C_14 
REMARK    7  A    between atoms: N_20  and  C_19 
REMARK       I    between atoms: C_22  and  N_20 
ROOT
ATOM      1  C   LIG d   1       2.844  89.274 116.629  0.00  0.00     0.161 C 
ATOM      2  C   LIG d   1       3.304  90.166 117.612  0.00  0.00     0.016 C 
ATOM      3  C   LIG d   1       4.267  91.171 117.362  0.00  0.00     0.038 C 
ATOM      4  C   LIG d   1       4.726  91.451 116.066  0.00  0.00     0.028 C 
ATOM      5  C   LIG d   1       4.670  90.249 115.130  0.00  0.00    -0.047 C 
ATOM      6  C   LIG d   1       3.251  89.636 115.186  0.00  0.00     0.091 C 
ENDROOT
BRANCH   1   7
ATOM      7  O   LIG d   1       1.413  89.136 116.726  0.00  0.00    -0.368 OA
BRANCH   7   8
ATOM      8  C   LIG d   1       0.775  89.857 117.809  0.00  0.00     0.119 C 
BRANCH   8   9
ATOM      9  C   LIG d   1      -0.143  88.864 118.548  0.00  0.00     0.028 C 
ATOM     10  C   LIG d   1      -1.585  88.886 118.012  0.00  0.00     0.006 C 
ENDBRANCH   8   9
BRANCH   8  11
ATOM     11  C   LIG d   1      -0.156  90.951 117.277  0.00  0.00     0.028 C 
ATOM     12  C   LIG d   1       0.315  92.366 117.647  0.00  0.00     0.006 C 
ENDBRANCH   8  11
ENDBRANCH   7   8
ENDBRANCH   1   7
BRANCH   6  13
ATOM     13  N   LIG d   1       3.134  88.404 114.363  0.00  0.00    -0.311 N 
ATOM     14  C   LIG d   1       2.748  88.408 113.088  0.00  0.00     0.210 C 
ATOM     15  C   LIG d   1       2.674  87.026 112.430  0.00  0.00     0.109 C 
ATOM     16  O   LIG d   1       2.490  89.427 112.430  0.00  0.00    -0.276 OA
ATOM     17  H   LIG d   1       3.354  87.535 114.808  0.00  0.00     0.149 HD
ENDBRANCH   6  13
BRANCH   5  18
ATOM     18  N   LIG d   1       5.046  90.715 113.782  0.00  0.00     0.381 N 
ATOM     19  H   LIG d   1       5.817  90.177 113.440  0.00  0.00    -0.090 HD
ATOM     20  H   LIG d   1       5.333  91.676 113.839  0.00  0.00    -0.090 HD
ATOM     21  H   LIG d   1       4.270  90.628 113.163  0.00  0.00    -0.090 HD
ENDBRANCH   5  18
BRANCH   3  22
ATOM     22  C   LIG d   1       4.809  91.882 118.421  0.00  0.00     0.382 C 
ATOM     23  O   LIG d   1       6.048  92.072 118.480  0.00  0.00    -0.241 OA
ATOM     24  O   LIG d   1       4.081  92.298 119.342  0.00  0.00    -0.241 OA
ENDBRANCH   3  22
TORSDOF 7
ENDMDL
MODEL 3
REMARK VINA RESULT:      -4.6      6.984      8.872
REMARK  7 active torsions:
REMARK  status: ('A' for Active; 'I' for Inactive)
REMARK    1  A    between atoms: C_2  and  C_3 
REMARK    2  A    between atoms: C_3  and  O_6 
REMARK    3  A    between atoms: C_3  and  C_4 
REMARK    4  A    between atoms: C_7  and  O_6 
REMARK    5  A    between atoms: C_9  and  C_10 
REMARK    6  A    between atoms: N_15  and  C_14 
REMARK    7  A    between atoms: N_20  and  C_19 
REMARK       I    between atoms: C_22  and  N_20 
ROOT
ATOM      1  C   LIG d   1       2.750  90.601 116.751  0.00  0.00     0.161 C 
ATOM      2  C   LIG d   1       2.564  90.013 115.489  0.00  0.00     0.016 C 
ATOM      3  C   LIG d   1       3.630  89.605 114.655  0.00  0.00     0.038 C 
ATOM      4  C   LIG d   1       4.962  89.620 115.094  0.00  0.00     0.028 C 
ATOM      5  C   LIG d   1       5.236  90.673 116.163  0.00  0.00    -0.047 C 
ATOM      6  C   LIG d   1       4.193  90.523 117.293  0.00  0.00     0.091 C 
ENDROOT
BRANCH   1   7
ATOM      7  O   LIG d   1       1.827  90.029 117.698  0.00  0.00    -0.368 OA
BRANCH   7   8
ATOM      8  C   LIG d   1       0.756  90.895 118.147  0.00  0.00     0.119 C 
BRANCH   8   9
ATOM      9  C   LIG d   1      -0.571  90.281 117.661  0.00  0.00     0.028 C 
ATOM     10  C   LIG d   1      -0.665  88.775 117.958  0.00  0.00     0.006 C 
ENDBRANCH   8   9
BRANCH   8  11
ATOM     11  C   LIG d   1       0.836  92.271 117.480  0.00  0.00     0.028 C 
ATOM     12  C   LIG d   1       0.711  93.428 118.484  0.00  0.00     0.006 C 
ENDBRANCH   8  11
ENDBRANCH   7   8
ENDBRANCH   1   7
BRANCH   6  13
ATOM     13  N   LIG d   1       4.337  91.569 118.340  0.00  0.00    -0.311 N 
ATOM     14  C   LIG d   1       4.363  92.873 118.073  0.00  0.00     0.210 C 
ATOM     15  C   LIG d   1       4.540  93.779 119.296  0.00  0.00     0.109 C 
ATOM     16  O   LIG d   1       4.226  93.368 116.944  0.00  0.00    -0.276 OA
ATOM     17  H   LIG d   1       4.423  91.257 119.287  0.00  0.00     0.149 HD
ENDBRANCH   6  13
BRANCH   5  18
ATOM     18  N   LIG d   1       6.623  90.485 116.627  0.00  0.00     0.381 N 
ATOM     19  H   LIG d   1       7.048  91.376 116.794  0.00  0.00    -0.090 HD
ATOM     20  H   LIG d   1       7.146  90.016 115.909  0.00  0.00    -0.090 HD
ATOM     21  H   LIG d   1       6.633  89.943 117.463  0.00  0.00    -0.090 HD
ENDBRANCH   5  18
BRANCH   3  22
ATOM     22  C   LIG d   1       3.371  89.214 113.350  0.00  0.00     0.382 C 
ATOM     23  O   LIG d   1       4.231  88.563 112.708  0.00  0.00    -0.241 OA
ATOM     24  O   LIG d   1       2.307  89.541 112.792  0.00  0.00    -0.241 OA
ENDBRANCH   3  22
TORSDOF 7
ENDMDL
MODEL 4
REMARK VINA RESULT:      -4.6      8.032     10.768
REMARK  7 active torsions:
REMARK  status: ('A' for Active; 'I' for Inactive)
REMARK    1  A    between atoms: C_2  and  C_3 
REMARK    2  A    between atoms: C_3  and  O_6 
REMARK    3  A    between atoms: C_3  and  C_4 
REMARK    4  A    between atoms: C_7  and  O_6 
REMARK    5  A    between atoms: C_9  and  C_10 
REMARK    6  A    between atoms: N_15  and  C_14 
REMARK    7  A    between atoms: N_20  and  C_19 
REMARK       I    between atoms: C_22  and  N_20 
ROOT
ATOM      1  C   LIG d   1       3.032  88.750 116.171  0.00  0.00     0.161 C 
ATOM      2  C   LIG d   1       3.269  89.894 116.951  0.00  0.00     0.016 C 
ATOM      3  C   LIG d   1       4.076  90.973 116.524  0.00  0.00     0.038 C 
ATOM      4  C   LIG d   1       4.582  91.049 115.218  0.00  0.00     0.028 C 
ATOM      5  C   LIG d   1       4.787  89.685 114.567  0.00  0.00    -0.047 C 
ATOM      6  C   LIG d   1       3.484  88.864 114.700  0.00  0.00     0.091 C 
ENDROOT
BRANCH   1   7
ATOM      7  O   LIG d   1       1.637  88.392 116.240  0.00  0.00    -0.368 OA
BRANCH   7   8
ATOM      8  C   LIG d   1       1.335  87.127 116.879  0.00  0.00     0.119 C 
BRANCH   8   9
ATOM      9  C   LIG d   1       0.502  87.433 118.139  0.00  0.00     0.028 C 
ATOM     10  C   LIG d   1      -0.609  88.462 117.873  0.00  0.00     0.006 C 
ENDBRANCH   8   9
BRANCH   8  11
ATOM     11  C   LIG d   1       2.606  86.442 117.389  0.00  0.00     0.028 C 
ATOM     12  C   LIG d   1       2.597  86.226 118.910  0.00  0.00     0.006 C 
ENDBRANCH   8  11
ENDBRANCH   7   8
ENDBRANCH   1   7
BRANCH   6  13
ATOM     13  N   LIG d   1       3.625  87.485 114.164  0.00  0.00    -0.311 N 
ATOM     14  C   LIG d   1       2.765  86.941 113.305  0.00  0.00     0.210 C 
ATOM     15  C   LIG d   1       3.086  85.501 112.895  0.00  0.00     0.109 C 
ATOM     16  O   LIG d   1       1.785  87.526 112.820  0.00  0.00    -0.276 OA
ATOM     17  H   LIG d   1       4.410  86.951 114.482  0.00  0.00     0.149 HD
ENDBRANCH   6  13
BRANCH   5  18
ATOM     18  N   LIG d   1       5.185  89.915 113.166  0.00  0.00     0.381 N 
ATOM     19  H   LIG d   1       5.303  90.895 113.003  0.00  0.00    -0.090 HD
ATOM     20  H   LIG d   1       4.455  89.581 112.561  0.00  0.00    -0.090 HD
ATOM     21  H   LIG d   1       6.035  89.434 112.969  0.00  0.00    -0.090 HD
ENDBRANCH   5  18
BRANCH   3  22
ATOM     22  C   LIG d   1       4.418  91.973 117.422  0.00  0.00     0.382 C 
ATOM     23  O   LIG d   1       4.396  93.174 117.061  0.00  0.00    -0.241 OA
ATOM     24  O   LIG d   1       4.792  91.686 118.575  0.00  0.00    -0.241 OA
ENDBRANCH   3  22
TORSDOF 7
ENDMDL
MODEL 5
REMARK VINA RESULT:      -4.6      7.013      8.926
REMARK  7 active torsions:
REMARK  status: ('A' for Active; 'I' for Inactive)
REMARK    1  A    between atoms: C_2  and  C_3 
REMARK    2  A    between atoms: C_3  and  O_6 
REMARK    3  A    between atoms: C_3  and  C_4 
REMARK    4  A    between atoms: C_7  and  O_6 
REMARK    5  A    between atoms: C_9  and  C_10 
REMARK    6  A    between atoms: N_15  and  C_14 
REMARK    7  A    between atoms: N_20  and  C_19 
REMARK       I    between atoms: C_22  and  N_20 
ROOT
ATOM      1  C   LIG d   1       2.871  90.748 116.618  0.00  0.00     0.161 C 
ATOM      2  C   LIG d   1       2.665  90.151 115.364  0.00  0.00     0.016 C 
ATOM      3  C   LIG d   1       3.700  89.561 114.603  0.00  0.00     0.038 C 
ATOM      4  C   LIG d   1       4.994  89.393 115.117  0.00  0.00     0.028 C 
ATOM      5  C   LIG d   1       5.367  90.430 116.171  0.00  0.00    -0.047 C 
ATOM      6  C   LIG d   1       4.255  90.476 117.244  0.00  0.00     0.091 C 
ENDROOT
BRANCH   1   7
ATOM      7  O   LIG d   1       1.824  90.352 117.526  0.00  0.00    -0.368 OA
BRANCH   7   8
ATOM      8  C   LIG d   1       0.504  90.880 117.246  0.00  0.00     0.119 C 
BRANCH   8   9
ATOM      9  C   LIG d   1       0.550  92.400 117.499  0.00  0.00     0.028 C 
ATOM     10  C   LIG d   1       0.863  92.742 118.965  0.00  0.00     0.006 C 
ENDBRANCH   8   9
BRANCH   8  11
ATOM     11  C   LIG d   1      -0.534  90.337 118.232  0.00  0.00     0.028 C 
ATOM     12  C   LIG d   1      -1.955  90.311 117.647  0.00  0.00     0.006 C 
ENDBRANCH   8  11
ENDBRANCH   7   8
ENDBRANCH   1   7
BRANCH   6  13
ATOM     13  N   LIG d   1       4.499  91.525 118.269  0.00  0.00    -0.311 N 
ATOM     14  C   LIG d   1       4.489  92.829 118.000  0.00  0.00     0.210 C 
ATOM     15  C   LIG d   1       4.784  93.738 119.197  0.00  0.00     0.109 C 
ATOM     16  O   LIG d   1       4.232  93.321 116.891  0.00  0.00    -0.276 OA
ATOM     17  H   LIG d   1       4.685  91.215 119.203  0.00  0.00     0.149 HD
ENDBRANCH   6  13
BRANCH   5  18
ATOM     18  N   LIG d   1       6.684  90.056 116.719  0.00  0.00     0.381 N 
ATOM     19  H   LIG d   1       6.991  90.752 117.369  0.00  0.00    -0.090 HD
ATOM     20  H   LIG d   1       7.348  90.011 115.967  0.00  0.00    -0.090 HD
ATOM     21  H   LIG d   1       6.625  89.171 117.173  0.00  0.00    -0.090 HD
ENDBRANCH   5  18
BRANCH   3  22
ATOM     22  C   LIG d   1       3.454  89.167 113.296  0.00  0.00     0.382 C 
ATOM     23  O   LIG d   1       2.361  89.453 112.751  0.00  0.00    -0.241 OA
ATOM     24  O   LIG d   1       4.293  88.491 112.672  0.00  0.00    -0.241 OA
ENDBRANCH   3  22
TORSDOF 7
ENDMDL
MODEL 6
REMARK VINA RESULT:      -4.6      2.221      4.833
REMARK  7 active torsions:
REMARK  status: ('A' for Active; 'I' for Inactive)
REMARK    1  A    between atoms: C_2  and  C_3 
REMARK    2  A    between atoms: C_3  and  O_6 
REMARK    3  A    between atoms: C_3  and  C_4 
REMARK    4  A    between atoms: C_7  and  O_6 
REMARK    5  A    between atoms: C_9  and  C_10 
REMARK    6  A    between atoms: N_15  and  C_14 
REMARK    7  A    between atoms: N_20  and  C_19 
REMARK       I    between atoms: C_22  and  N_20 
ROOT
ATOM      1  C   LIG d   1      -3.022  92.925 119.572  0.00  0.00     0.161 C 
ATOM      2  C   LIG d   1      -2.870  94.314 119.427  0.00  0.00     0.016 C 
ATOM      3  C   LIG d   1      -1.954  94.907 118.527  0.00  0.00     0.038 C 
ATOM      4  C   LIG d   1      -1.231  94.146 117.597  0.00  0.00     0.028 C 
ATOM      5  C   LIG d   1      -0.980  92.712 118.051  0.00  0.00    -0.047 C 
ATOM      6  C   LIG d   1      -2.322  92.081 118.486  0.00  0.00     0.091 C 
ENDROOT
BRANCH   1   7
ATOM      7  O   LIG d   1      -4.423  92.592 119.639  0.00  0.00    -0.368 OA
BRANCH   7   8
ATOM      8  C   LIG d   1      -5.291  93.295 118.716  0.00  0.00     0.119 C 
BRANCH   8   9
ATOM      9  C   LIG d   1      -6.458  93.882 119.533  0.00  0.00     0.028 C 
ATOM     10  C   LIG d   1      -6.317  95.398 119.750  0.00  0.00     0.006 C 
ENDBRANCH   8   9
BRANCH   8  11
ATOM     11  C   LIG d   1      -5.940  92.331 117.718  0.00  0.00     0.028 C 
ATOM     12  C   LIG d   1      -7.265  92.863 117.150  0.00  0.00     0.006 C 
ENDBRANCH   8  11
ENDBRANCH   7   8
ENDBRANCH   1   7
BRANCH   6  13
ATOM     13  N   LIG d   1      -2.154  90.706 119.024  0.00  0.00    -0.311 N 
ATOM     14  C   LIG d   1      -2.808  89.648 118.549  0.00  0.00     0.210 C 
ATOM     15  C   LIG d   1      -2.503  88.326 119.261  0.00  0.00     0.109 C 
ATOM     16  O   LIG d   1      -3.588  89.673 117.585  0.00  0.00    -0.276 OA
ATOM     17  H   LIG d   1      -1.517  90.590 119.788  0.00  0.00     0.149 HD
ENDBRANCH   6  13
BRANCH   5  18
ATOM     18  N   LIG d   1      -0.340  91.996 116.932  0.00  0.00     0.381 N 
ATOM     19  H   LIG d   1       0.509  91.568 117.245  0.00  0.00    -0.090 HD
ATOM     20  H   LIG d   1      -0.112  92.657 116.210  0.00  0.00    -0.090 HD
ATOM     21  H   LIG d   1      -0.958  91.301 116.574  0.00  0.00    -0.090 HD
ENDBRANCH   5  18
BRANCH   3  22
ATOM     22  C   LIG d   1      -1.725  96.274 118.581  0.00  0.00     0.382 C 
ATOM     23  O   LIG d   1      -0.566  96.722 118.408  0.00  0.00    -0.241 OA
ATOM     24  O   LIG d   1      -2.654  97.060 118.844  0.00  0.00    -0.241 OA
ENDBRANCH   3  22
TORSDOF 7
ENDMDL
MODEL 7
REMARK VINA RESULT:      -4.5      4.354      8.029
REMARK  7 active torsions:
REMARK  status: ('A' for Active; 'I' for Inactive)
REMARK    1  A    between atoms: C_2  and  C_3 
REMARK    2  A    between atoms: C_3  and  O_6 
REMARK    3  A    between atoms: C_3  and  C_4 
REMARK    4  A    between atoms: C_7  and  O_6 
REMARK    5  A    between atoms: C_9  and  C_10 
REMARK    6  A    between atoms: N_15  and  C_14 
REMARK    7  A    between atoms: N_20  and  C_19 
REMARK       I    between atoms: C_22  and  N_20 
ROOT
ATOM      1  C   LIG d   1       0.254  91.576 117.020  0.00  0.00     0.161 C 
ATOM      2  C   LIG d   1       1.604  91.914 117.210  0.00  0.00     0.016 C 
ATOM      3  C   LIG d   1       2.035  92.932 118.090  0.00  0.00     0.038 C 
ATOM      4  C   LIG d   1       1.148  93.585 118.959  0.00  0.00     0.028 C 
ATOM      5  C   LIG d   1      -0.285  93.630 118.441  0.00  0.00    -0.047 C 
ATOM      6  C   LIG d   1      -0.719  92.202 118.041  0.00  0.00     0.091 C 
ENDROOT
BRANCH   1   7
ATOM      7  O   LIG d   1       0.106  90.143 117.000  0.00  0.00    -0.368 OA
BRANCH   7   8
ATOM      8  C   LIG d   1       0.612  89.434 118.159  0.00  0.00     0.119 C 
BRANCH   8   9
ATOM      9  C   LIG d   1       1.794  88.564 117.690  0.00  0.00     0.028 C 
ATOM     10  C   LIG d   1       1.333  87.247 117.043  0.00  0.00     0.006 C 
ENDBRANCH   8   9
BRANCH   8  11
ATOM     11  C   LIG d   1      -0.426  88.449 118.705  0.00  0.00     0.028 C 
ATOM     12  C   LIG d   1      -1.814  88.633 118.073  0.00  0.00     0.006 C 
ENDBRANCH   8  11
ENDBRANCH   7   8
ENDBRANCH   1   7
BRANCH   6  13
ATOM     13  N   LIG d   1      -2.080  92.169 117.444  0.00  0.00    -0.311 N 
ATOM     14  C   LIG d   1      -3.184  91.929 118.150  0.00  0.00     0.210 C 
ATOM     15  C   LIG d   1      -4.482  91.921 117.336  0.00  0.00     0.109 C 
ATOM     16  O   LIG d   1      -3.215  91.755 119.377  0.00  0.00    -0.276 OA
ATOM     17  H   LIG d   1      -2.150  92.331 116.459  0.00  0.00     0.149 HD
ENDBRANCH   6  13
BRANCH   5  18
ATOM     18  N   LIG d   1      -1.125  94.214 119.503  0.00  0.00     0.381 N 
ATOM     19  H   LIG d   1      -0.548  94.676 120.177  0.00  0.00    -0.090 HD
ATOM     20  H   LIG d   1      -1.622  93.474 119.968  0.00  0.00    -0.090 HD
ATOM     21  H   LIG d   1      -1.772  94.862 119.110  0.00  0.00    -0.090 HD
ENDBRANCH   5  18
BRANCH   3  22
ATOM     22  C   LIG d   1       3.362  93.335 118.079  0.00  0.00     0.382 C 
ATOM     23  O   LIG d   1       4.000  93.360 116.999  0.00  0.00    -0.241 OA
ATOM     24  O   LIG d   1       3.942  93.631 119.141  0.00  0.00    -0.241 OA
ENDBRANCH   3  22
TORSDOF 7
ENDMDL
MODEL 8
REMARK VINA RESULT:      -4.5      7.356      9.498
REMARK  7 active torsions:
REMARK  status: ('A' for Active; 'I' for Inactive)
REMARK    1  A    between atoms: C_2  and  C_3 
REMARK    2  A    between atoms: C_3  and  O_6 
REMARK    3  A    between atoms: C_3  and  C_4 
REMARK    4  A    between atoms: C_7  and  O_6 
REMARK    5  A    between atoms: C_9  and  C_10 
REMARK    6  A    between atoms: N_15  and  C_14 
REMARK    7  A    between atoms: N_20  and  C_19 
REMARK       I    between atoms: C_22  and  N_20 
ROOT
ATOM      1  C   LIG d   1       2.780  90.638 116.768  0.00  0.00     0.161 C 
ATOM      2  C   LIG d   1       2.566  90.047 115.511  0.00  0.00     0.016 C 
ATOM      3  C   LIG d   1       3.613  89.603 114.671  0.00  0.00     0.038 C 
ATOM      4  C   LIG d   1       4.949  89.583 115.100  0.00  0.00     0.028 C 
ATOM      5  C   LIG d   1       5.262  90.634 116.159  0.00  0.00    -0.047 C 
ATOM      6  C   LIG d   1       4.224  90.522 117.299  0.00  0.00     0.091 C 
ENDROOT
BRANCH   1   7
ATOM      7  O   LIG d   1       1.849  90.098 117.727  0.00  0.00    -0.368 OA
BRANCH   7   8
ATOM      8  C   LIG d   1       1.360  88.762 117.457  0.00  0.00     0.119 C 
BRANCH   8   9
ATOM      9  C   LIG d   1      -0.109  88.705 117.920  0.00  0.00     0.028 C 
ATOM     10  C   LIG d   1      -0.837  90.046 117.728  0.00  0.00     0.006 C 
ENDBRANCH   8   9
BRANCH   8  11
ATOM     11  C   LIG d   1       2.093  87.718 118.305  0.00  0.00     0.028 C 
ATOM     12  C   LIG d   1       3.014  86.814 117.472  0.00  0.00     0.006 C 
ENDBRANCH   8  11
ENDBRANCH   7   8
ENDBRANCH   1   7
BRANCH   6  13
ATOM     13  N   LIG d   1       4.407  91.570 118.337  0.00  0.00    -0.311 N 
ATOM     14  C   LIG d   1       4.405  92.875 118.069  0.00  0.00     0.210 C 
ATOM     15  C   LIG d   1       4.630  93.784 119.281  0.00  0.00     0.109 C 
ATOM     16  O   LIG d   1       4.206  93.367 116.948  0.00  0.00    -0.276 OA
ATOM     17  H   LIG d   1       4.544  91.261 119.279  0.00  0.00     0.149 HD
ENDBRANCH   6  13
BRANCH   5  18
ATOM     18  N   LIG d   1       6.647  90.411 116.613  0.00  0.00     0.381 N 
ATOM     19  H   LIG d   1       6.743  89.478 116.961  0.00  0.00    -0.090 HD
ATOM     20  H   LIG d   1       6.851  91.049 117.362  0.00  0.00    -0.090 HD
ATOM     21  H   LIG d   1       7.282  90.559 115.859  0.00  0.00    -0.090 HD
ENDBRANCH   5  18
BRANCH   3  22
ATOM     22  C   LIG d   1       3.332  89.211 113.372  0.00  0.00     0.382 C 
ATOM     23  O   LIG d   1       4.171  88.539 112.724  0.00  0.00    -0.241 OA
ATOM     24  O   LIG d   1       2.269  89.558 112.823  0.00  0.00    -0.241 OA
ENDBRANCH   3  22
TORSDOF 7
ENDMDL
MODEL 9
REMARK VINA RESULT:      -4.4      2.497      3.493
REMARK  7 active torsions:
REMARK  status: ('A' for Active; 'I' for Inactive)
REMARK    1  A    between atoms: C_2  and  C_3 
REMARK    2  A    between atoms: C_3  and  O_6 
REMARK    3  A    between atoms: C_3  and  C_4 
REMARK    4  A    between atoms: C_7  and  O_6 
REMARK    5  A    between atoms: C_9  and  C_10 
REMARK    6  A    between atoms: N_15  and  C_14 
REMARK    7  A    between atoms: N_20  and  C_19 
REMARK       I    between atoms: C_22  and  N_20 
ROOT
ATOM      1  C   LIG d   1      -2.405  92.778 118.561  0.00  0.00     0.161 C 
ATOM      2  C   LIG d   1      -3.636  92.545 117.925  0.00  0.00     0.016 C 
ATOM      3  C   LIG d   1      -3.996  91.301 117.358  0.00  0.00     0.038 C 
ATOM      4  C   LIG d   1      -3.204  90.155 117.522  0.00  0.00     0.028 C 
ATOM      5  C   LIG d   1      -1.724  90.464 117.719  0.00  0.00    -0.047 C 
ATOM      6  C   LIG d   1      -1.575  91.509 118.848  0.00  0.00     0.091 C 
ENDROOT
BRANCH   1   7
ATOM      7  O   LIG d   1      -2.617  93.524 119.776  0.00  0.00    -0.368 OA
BRANCH   7   8
ATOM      8  C   LIG d   1      -2.291  94.935 119.723  0.00  0.00     0.119 C 
BRANCH   8   9
ATOM      9  C   LIG d   1      -3.618  95.714 119.639  0.00  0.00     0.028 C 
ATOM     10  C   LIG d   1      -3.427  97.142 119.103  0.00  0.00     0.006 C 
ENDBRANCH   8   9
BRANCH   8  11
ATOM     11  C   LIG d   1      -1.534  95.284 118.438  0.00  0.00     0.028 C 
ATOM     12  C   LIG d   1      -0.119  95.821 118.707  0.00  0.00     0.006 C 
ENDBRANCH   8  11
ENDBRANCH   7   8
ENDBRANCH   1   7
BRANCH   6  13
ATOM     13  N   LIG d   1      -0.164  91.931 119.048  0.00  0.00    -0.311 N 
ATOM     14  C   LIG d   1       0.627  92.336 118.056  0.00  0.00     0.210 C 
ATOM     15  C   LIG d   1       2.053  92.707 118.478  0.00  0.00     0.109 C 
ATOM     16  O   LIG d   1       0.275  92.455 116.873  0.00  0.00    -0.276 OA
ATOM     17  H   LIG d   1       0.194  91.895 119.982  0.00  0.00     0.149 HD
ENDBRANCH   6  13
BRANCH   5  18
ATOM     18  N   LIG d   1      -1.039  89.192 118.015  0.00  0.00     0.381 N 
ATOM     19  H   LIG d   1      -1.618  88.423 117.742  0.00  0.00    -0.090 HD
ATOM     20  H   LIG d   1      -0.880  89.131 119.006  0.00  0.00    -0.090 HD
ATOM     21  H   LIG d   1      -0.170  89.151 117.530  0.00  0.00    -0.090 HD
ENDBRANCH   5  18
BRANCH   3  22
ATOM     22  C   LIG d   1      -5.141  91.205 116.582  0.00  0.00     0.382 C 
ATOM     23  O   LIG d   1      -6.059  92.051 116.711  0.00  0.00    -0.241 OA
ATOM     24  O   LIG d   1      -5.288  90.258 115.787  0.00  0.00    -0.241 OA
ENDBRANCH   3  22
TORSDOF 7
ENDMDL
