MODEL 1
REMARK VINA RESULT:      -5.0      0.000      0.000
REMARK  7 active torsions:
REMARK  status: ('A' for Active; 'I' for Inactive)
REMARK    1  A    between atoms: C_2  and  C_3 
REMARK    2  A    between atoms: C_3  and  O_6 
REMARK    3  A    between atoms: C_3  and  C_4 
REMARK    4  A    between atoms: C_7  and  O_6 
REMARK    5  A    between atoms: C_9  and  C_10 
REMARK    6  A    between atoms: N_15  and  C_14 
REMARK    7  A    between atoms: N_20  and  C_19 
REMARK       I    between atoms: C_22  and  N_20 
ROOT
ATOM      1  C   LIG d   1      -3.905  91.987 117.874  0.00  0.00     0.161 C 
ATOM      2  C   LIG d   1      -5.193  92.542 117.794  0.00  0.00     0.016 C 
ATOM      3  C   LIG d   1      -6.240  91.971 117.034  0.00  0.00     0.038 C 
ATOM      4  C   LIG d   1      -6.111  90.716 116.420  0.00  0.00     0.028 C 
ATOM      5  C   LIG d   1      -4.673  90.364 116.056  0.00  0.00    -0.047 C 
ATOM      6  C   LIG d   1      -3.778  90.560 117.301  0.00  0.00     0.091 C 
ENDROOT
BRANCH   1   7
ATOM      7  O   LIG d   1      -3.442  92.023 119.239  0.00  0.00    -0.368 OA
BRANCH   7   8
ATOM      8  C   LIG d   1      -2.454  93.036 119.551  0.00  0.00     0.119 C 
BRANCH   8   9
ATOM      9  C   LIG d   1      -3.213  94.322 119.929  0.00  0.00     0.028 C 
ATOM     10  C   LIG d   1      -2.605  95.576 119.279  0.00  0.00     0.006 C 
ENDBRANCH   8   9
BRANCH   8  11
ATOM     11  C   LIG d   1      -1.624  93.403 118.317  0.00  0.00     0.028 C 
ATOM     12  C   LIG d   1      -0.153  92.975 118.440  0.00  0.00     0.006 C 
ENDBRANCH   8  11
ENDBRANCH   7   8
ENDBRANCH   1   7
BRANCH   6  13
ATOM     13  N   LIG d   1      -2.340  90.319 117.010  0.00  0.00    -0.311 N 
ATOM     14  C   LIG d   1      -1.562  89.538 117.758  0.00  0.00     0.210 C 
ATOM     15  C   LIG d   1      -0.106  89.441 117.292  0.00  0.00     0.109 C 
ATOM     16  O   LIG d   1      -1.947  88.891 118.743  0.00  0.00    -0.276 OA
ATOM     17  H   LIG d   1      -1.953  90.780 116.210  0.00  0.00     0.149 HD
ENDBRANCH   6  13
BRANCH   5  18
ATOM     18  N   LIG d   1      -4.666  88.978 115.552  0.00  0.00     0.381 N 
ATOM     19  H   LIG d   1      -3.956  88.874 114.856  0.00  0.00    -0.090 HD
ATOM     20  H   LIG d   1      -5.556  88.782 115.128  0.00  0.00    -0.090 HD
ATOM     21  H   LIG d   1      -4.502  88.343 116.302  0.00  0.00    -0.090 HD
ENDBRANCH   5  18
BRANCH   3  22
ATOM     22  C   LIG d   1      -7.419  92.676 116.850  0.00  0.00     0.382 C 
ATOM     23  O   LIG d   1      -8.135  92.970 117.837  0.00  0.00    -0.241 OA
ATOM     24  O   LIG d   1      -7.798  92.984 115.704  0.00  0.00    -0.241 OA
ENDBRANCH   3  22
TORSDOF 7
ENDMDL
MODEL 2
REMARK VINA RESULT:      -4.4      5.903      8.786
REMARK  7 active torsions:
REMARK  status: ('A' for Active; 'I' for Inactive)
REMARK    1  A    between atoms: C_2  and  C_3 
REMARK    2  A    between atoms: C_3  and  O_6 
REMARK    3  A    between atoms: C_3  and  C_4 
REMARK    4  A    between atoms: C_7  and  O_6 
REMARK    5  A    between atoms: C_9  and  C_10 
REMARK    6  A    between atoms: N_15  and  C_14 
REMARK    7  A    between atoms: N_20  and  C_19 
REMARK       I    between atoms: C_22  and  N_20 
ROOT
ATOM      1  C   LIG d   1       2.912  90.198 116.761  0.00  0.00     0.161 C 
ATOM      2  C   LIG d   1       2.856  89.615 115.484  0.00  0.00     0.016 C 
ATOM      3  C   LIG d   1       4.002  89.328 114.709  0.00  0.00     0.038 C 
ATOM      4  C   LIG d   1       5.300  89.467 115.224  0.00  0.00     0.028 C 
ATOM      5  C   LIG d   1       5.407  90.524 116.318  0.00  0.00    -0.047 C 
ATOM      6  C   LIG d   1       4.322  90.254 117.385  0.00  0.00     0.091 C 
ENDROOT
BRANCH   1   7
ATOM      7  O   LIG d   1       1.998  89.522 117.647  0.00  0.00    -0.368 OA
BRANCH   7   8
ATOM      8  C   LIG d   1       0.790  90.245 117.989  0.00  0.00     0.119 C 
BRANCH   8   9
ATOM      9  C   LIG d   1      -0.404  89.428 117.460  0.00  0.00     0.028 C 
ATOM     10  C   LIG d   1      -0.048  87.950 117.230  0.00  0.00     0.006 C 
ENDBRANCH   8   9
BRANCH   8  11
ATOM     11  C   LIG d   1       0.718  91.589 117.258  0.00  0.00     0.028 C 
ATOM     12  C   LIG d   1       0.409  92.764 118.199  0.00  0.00     0.006 C 
ENDBRANCH   8  11
ENDBRANCH   7   8
ENDBRANCH   1   7
BRANCH   6  13
ATOM     13  N   LIG d   1       4.302  91.291 118.449  0.00  0.00    -0.311 N 
ATOM     14  C   LIG d   1       4.117  92.588 118.205  0.00  0.00     0.210 C 
ATOM     15  C   LIG d   1       4.153  93.490 119.443  0.00  0.00     0.109 C 
ATOM     16  O   LIG d   1       3.894  93.072 117.086  0.00  0.00    -0.276 OA
ATOM     17  H   LIG d   1       4.444  90.982 119.391  0.00  0.00     0.149 HD
ENDBRANCH   6  13
BRANCH   5  18
ATOM     18  N   LIG d   1       6.778  90.466 116.860  0.00  0.00     0.381 N 
ATOM     19  H   LIG d   1       7.379  91.060 116.324  0.00  0.00    -0.090 HD
ATOM     20  H   LIG d   1       7.118  89.524 116.786  0.00  0.00    -0.090 HD
ATOM     21  H   LIG d   1       6.780  90.753 117.814  0.00  0.00    -0.090 HD
ENDBRANCH   5  18
BRANCH   3  22
ATOM     22  C   LIG d   1       3.857  88.934 113.387  0.00  0.00     0.382 C 
ATOM     23  O   LIG d   1       4.873  88.716 112.683  0.00  0.00    -0.241 OA
ATOM     24  O   LIG d   1       2.725  88.838 112.877  0.00  0.00    -0.241 OA
ENDBRANCH   3  22
TORSDOF 7
ENDMDL
MODEL 3
REMARK VINA RESULT:      -4.4      2.495      4.581
REMARK  7 active torsions:
REMARK  status: ('A' for Active; 'I' for Inactive)
REMARK    1  A    between atoms: C_2  and  C_3 
REMARK    2  A    between atoms: C_3  and  O_6 
REMARK    3  A    between atoms: C_3  and  C_4 
REMARK    4  A    between atoms: C_7  and  O_6 
REMARK    5  A    between atoms: C_9  and  C_10 
REMARK    6  A    between atoms: N_15  and  C_14 
REMARK    7  A    between atoms: N_20  and  C_19 
REMARK       I    between atoms: C_22  and  N_20 
ROOT
ATOM      1  C   LIG d   1      -2.359  90.056 117.933  0.00  0.00     0.161 C 
ATOM      2  C   LIG d   1      -3.615  89.708 117.409  0.00  0.00     0.016 C 
ATOM      3  C   LIG d   1      -4.694  90.616 117.309  0.00  0.00     0.038 C 
ATOM      4  C   LIG d   1      -4.542  91.983 117.588  0.00  0.00     0.028 C 
ATOM      5  C   LIG d   1      -3.436  92.275 118.596  0.00  0.00    -0.047 C 
ATOM      6  C   LIG d   1      -2.140  91.569 118.139  0.00  0.00     0.091 C 
ENDROOT
BRANCH   1   7
ATOM      7  O   LIG d   1      -1.315  89.507 117.104  0.00  0.00    -0.368 OA
BRANCH   7   8
ATOM      8  C   LIG d   1      -0.824  88.197 117.481  0.00  0.00     0.119 C 
BRANCH   8   9
ATOM      9  C   LIG d   1      -0.847  88.120 119.020  0.00  0.00     0.028 C 
ATOM     10  C   LIG d   1      -1.379  86.770 119.532  0.00  0.00     0.006 C 
ENDBRANCH   8   9
BRANCH   8  11
ATOM     11  C   LIG d   1       0.646  88.019 117.089  0.00  0.00     0.028 C 
ATOM     12  C   LIG d   1       0.848  86.941 116.011  0.00  0.00     0.006 C 
ENDBRANCH   8  11
ENDBRANCH   7   8
ENDBRANCH   1   7
BRANCH   6  13
ATOM     13  N   LIG d   1      -1.030  91.734 119.113  0.00  0.00    -0.311 N 
ATOM     14  C   LIG d   1       0.209  92.075 118.762  0.00  0.00     0.210 C 
ATOM     15  C   LIG d   1       1.206  92.171 119.922  0.00  0.00     0.109 C 
ATOM     16  O   LIG d   1       0.570  92.338 117.605  0.00  0.00    -0.276 OA
ATOM     17  H   LIG d   1      -1.242  91.571 120.078  0.00  0.00     0.149 HD
ENDBRANCH   6  13
BRANCH   5  18
ATOM     18  N   LIG d   1      -3.294  93.741 118.689  0.00  0.00     0.381 N 
ATOM     19  H   LIG d   1      -3.459  94.038 119.630  0.00  0.00    -0.090 HD
ATOM     20  H   LIG d   1      -3.981  94.172 118.097  0.00  0.00    -0.090 HD
ATOM     21  H   LIG d   1      -2.380  94.014 118.403  0.00  0.00    -0.090 HD
ENDBRANCH   5  18
BRANCH   3  22
ATOM     22  C   LIG d   1      -5.954  90.151 116.963  0.00  0.00     0.382 C 
ATOM     23  O   LIG d   1      -6.121  89.538 115.882  0.00  0.00    -0.241 OA
ATOM     24  O   LIG d   1      -6.934  90.376 117.698  0.00  0.00    -0.241 OA
ENDBRANCH   3  22
TORSDOF 7
ENDMDL
MODEL 4
REMARK VINA RESULT:      -4.4      2.344      4.406
REMARK  7 active torsions:
REMARK  status: ('A' for Active; 'I' for Inactive)
REMARK    1  A    between atoms: C_2  and  C_3 
REMARK    2  A    between atoms: C_3  and  O_6 
REMARK    3  A    between atoms: C_3  and  C_4 
REMARK    4  A    between atoms: C_7  and  O_6 
REMARK    5  A    between atoms: C_9  and  C_10 
REMARK    6  A    between atoms: N_15  and  C_14 
REMARK    7  A    between atoms: N_20  and  C_19 
REMARK       I    between atoms: C_22  and  N_20 
ROOT
ATOM      1  C   LIG d   1      -5.547  91.101 119.137  0.00  0.00     0.161 C 
ATOM      2  C   LIG d   1      -6.090  92.391 119.256  0.00  0.00     0.016 C 
ATOM      3  C   LIG d   1      -5.310  93.543 119.508  0.00  0.00     0.038 C 
ATOM      4  C   LIG d   1      -3.907  93.503 119.508  0.00  0.00     0.028 C 
ATOM      5  C   LIG d   1      -3.340  92.141 119.895  0.00  0.00    -0.047 C 
ATOM      6  C   LIG d   1      -4.009  91.054 119.024  0.00  0.00     0.091 C 
ENDROOT
BRANCH   1   7
ATOM      7  O   LIG d   1      -6.153  90.417 118.022  0.00  0.00    -0.368 OA
BRANCH   7   8
ATOM      8  C   LIG d   1      -5.872  90.964 116.710  0.00  0.00     0.119 C 
BRANCH   8   9
ATOM      9  C   LIG d   1      -7.224  91.214 116.013  0.00  0.00     0.028 C 
ATOM     10  C   LIG d   1      -7.636  92.695 116.047  0.00  0.00     0.006 C 
ENDBRANCH   8   9
BRANCH   8  11
ATOM     11  C   LIG d   1      -5.143  89.947 115.827  0.00  0.00     0.028 C 
ATOM     12  C   LIG d   1      -5.917  89.608 114.544  0.00  0.00     0.006 C 
ENDBRANCH   8  11
ENDBRANCH   7   8
ENDBRANCH   1   7
BRANCH   6  13
ATOM     13  N   LIG d   1      -3.573  89.683 119.394  0.00  0.00    -0.311 N 
ATOM     14  C   LIG d   1      -2.616  89.018 118.749  0.00  0.00     0.210 C 
ATOM     15  C   LIG d   1      -2.335  87.610 119.281  0.00  0.00     0.109 C 
ATOM     16  O   LIG d   1      -1.952  89.473 117.805  0.00  0.00    -0.276 OA
ATOM     17  H   LIG d   1      -4.038  89.250 120.168  0.00  0.00     0.149 HD
ENDBRANCH   6  13
BRANCH   5  18
ATOM     18  N   LIG d   1      -1.877  92.203 119.720  0.00  0.00     0.381 N 
ATOM     19  H   LIG d   1      -1.612  93.111 119.396  0.00  0.00    -0.090 HD
ATOM     20  H   LIG d   1      -1.604  91.529 119.026  0.00  0.00    -0.090 HD
ATOM     21  H   LIG d   1      -1.422  92.004 120.584  0.00  0.00    -0.090 HD
ENDBRANCH   5  18
BRANCH   3  22
ATOM     22  C   LIG d   1      -5.934  94.745 119.804  0.00  0.00     0.382 C 
ATOM     23  O   LIG d   1      -7.184  94.795 119.902  0.00  0.00    -0.241 OA
ATOM     24  O   LIG d   1      -5.267  95.790 119.930  0.00  0.00    -0.241 OA
ENDBRANCH   3  22
TORSDOF 7
ENDMDL
MODEL 5
REMARK VINA RESULT:      -4.4      6.922      9.407
REMARK  7 active torsions:
REMARK  status: ('A' for Active; 'I' for Inactive)
REMARK    1  A    between atoms: C_2  and  C_3 
REMARK    2  A    between atoms: C_3  and  O_6 
REMARK    3  A    between atoms: C_3  and  C_4 
REMARK    4  A    between atoms: C_7  and  O_6 
REMARK    5  A    between atoms: C_9  and  C_10 
REMARK    6  A    between atoms: N_15  and  C_14 
REMARK    7  A    between atoms: N_20  and  C_19 
REMARK       I    between atoms: C_22  and  N_20 
ROOT
ATOM      1  C   LIG d   1       4.326  90.338 115.956  0.00  0.00     0.161 C 
ATOM      2  C   LIG d   1       3.376  89.674 115.162  0.00  0.00     0.016 C 
ATOM      3  C   LIG d   1       3.640  88.461 114.485  0.00  0.00     0.038 C 
ATOM      4  C   LIG d   1       4.832  87.747 114.680  0.00  0.00     0.028 C 
ATOM      5  C   LIG d   1       6.010  88.631 115.073  0.00  0.00    -0.047 C 
ATOM      6  C   LIG d   1       5.594  89.518 116.269  0.00  0.00     0.091 C 
ENDROOT
BRANCH   1   7
ATOM      7  O   LIG d   1       3.709  90.794 117.176  0.00  0.00    -0.368 OA
BRANCH   7   8
ATOM      8  C   LIG d   1       3.198  92.149 117.165  0.00  0.00     0.119 C 
BRANCH   8   9
ATOM      9  C   LIG d   1       4.260  93.050 117.824  0.00  0.00     0.028 C 
ATOM     10  C   LIG d   1       4.819  92.446 119.123  0.00  0.00     0.006 C 
ENDBRANCH   8   9
BRANCH   8  11
ATOM     11  C   LIG d   1       1.951  92.282 118.045  0.00  0.00     0.028 C 
ATOM     12  C   LIG d   1       0.655  91.930 117.298  0.00  0.00     0.006 C 
ENDBRANCH   8  11
ENDBRANCH   7   8
ENDBRANCH   1   7
BRANCH   6  13
ATOM     13  N   LIG d   1       6.662  90.474 116.664  0.00  0.00    -0.311 N 
ATOM     14  C   LIG d   1       7.570  90.211 117.602  0.00  0.00     0.210 C 
ATOM     15  C   LIG d   1       8.569  91.342 117.869  0.00  0.00     0.109 C 
ATOM     16  O   LIG d   1       7.664  89.137 118.216  0.00  0.00    -0.276 OA
ATOM     17  H   LIG d   1       6.679  91.358 116.195  0.00  0.00     0.149 HD
ENDBRANCH   6  13
BRANCH   5  18
ATOM     18  N   LIG d   1       7.149  87.746 115.378  0.00  0.00     0.381 N 
ATOM     19  H   LIG d   1       7.744  88.180 116.056  0.00  0.00    -0.090 HD
ATOM     20  H   LIG d   1       7.682  87.600 114.539  0.00  0.00    -0.090 HD
ATOM     21  H   LIG d   1       6.819  86.872 115.726  0.00  0.00    -0.090 HD
ENDBRANCH   5  18
BRANCH   3  22
ATOM     22  C   LIG d   1       2.720  87.970 113.570  0.00  0.00     0.382 C 
ATOM     23  O   LIG d   1       2.417  88.650 112.560  0.00  0.00    -0.241 OA
ATOM     24  O   LIG d   1       2.157  86.877 113.766  0.00  0.00    -0.241 OA
ENDBRANCH   3  22
TORSDOF 7
ENDMDL
MODEL 6
REMARK VINA RESULT:      -4.4      3.799      6.702
REMARK  7 active torsions:
REMARK  status: ('A' for Active; 'I' for Inactive)
REMARK    1  A    between atoms: C_2  and  C_3 
REMARK    2  A    between atoms: C_3  and  O_6 
REMARK    3  A    between atoms: C_3  and  C_4 
REMARK    4  A    between atoms: C_7  and  O_6 
REMARK    5  A    between atoms: C_9  and  C_10 
REMARK    6  A    between atoms: N_15  and  C_14 
REMARK    7  A    between atoms: N_20  and  C_19 
REMARK       I    between atoms: C_22  and  N_20 
ROOT
ATOM      1  C   LIG d   1       0.340  88.592 117.281  0.00  0.00     0.161 C 
ATOM      2  C   LIG d   1      -0.998  88.329 117.617  0.00  0.00     0.016 C 
ATOM      3  C   LIG d   1      -1.960  89.342 117.832  0.00  0.00     0.038 C 
ATOM      4  C   LIG d   1      -1.683  90.694 117.576  0.00  0.00     0.028 C 
ATOM      5  C   LIG d   1      -0.207  91.048 117.723  0.00  0.00    -0.047 C 
ATOM      6  C   LIG d   1       0.633  90.055 116.888  0.00  0.00     0.091 C 
ENDROOT
BRANCH   1   7
ATOM      7  O   LIG d   1       0.766  87.697 116.234  0.00  0.00    -0.368 OA
BRANCH   7   8
ATOM      8  C   LIG d   1       1.253  86.401 116.662  0.00  0.00     0.119 C 
BRANCH   8   9
ATOM      9  C   LIG d   1       2.548  86.636 117.464  0.00  0.00     0.028 C 
ATOM     10  C   LIG d   1       3.803  86.596 116.577  0.00  0.00     0.006 C 
ENDBRANCH   8   9
BRANCH   8  11
ATOM     11  C   LIG d   1       1.668  85.539 115.466  0.00  0.00     0.028 C 
ATOM     12  C   LIG d   1       1.057  86.025 114.142  0.00  0.00     0.006 C 
ENDBRANCH   8  11
ENDBRANCH   7   8
ENDBRANCH   1   7
BRANCH   6  13
ATOM     13  N   LIG d   1       2.094  90.278 117.044  0.00  0.00    -0.311 N 
ATOM     14  C   LIG d   1       2.968  90.133 116.049  0.00  0.00     0.210 C 
ATOM     15  C   LIG d   1       4.429  90.393 116.428  0.00  0.00     0.109 C 
ATOM     16  O   LIG d   1       2.667  89.845 114.880  0.00  0.00    -0.276 OA
ATOM     17  H   LIG d   1       2.421  90.545 117.952  0.00  0.00     0.149 HD
ENDBRANCH   6  13
BRANCH   5  18
ATOM     18  N   LIG d   1      -0.041  92.449 117.294  0.00  0.00     0.381 N 
ATOM     19  H   LIG d   1      -0.692  92.660 116.565  0.00  0.00    -0.090 HD
ATOM     20  H   LIG d   1       0.889  92.570 116.932  0.00  0.00    -0.090 HD
ATOM     21  H   LIG d   1      -0.186  93.062 118.066  0.00  0.00    -0.090 HD
ENDBRANCH   5  18
BRANCH   3  22
ATOM     22  C   LIG d   1      -3.204  89.011 118.348  0.00  0.00     0.382 C 
ATOM     23  O   LIG d   1      -4.231  89.600 117.933  0.00  0.00    -0.241 OA
ATOM     24  O   LIG d   1      -3.307  88.163 119.254  0.00  0.00    -0.241 OA
ENDBRANCH   3  22
TORSDOF 7
ENDMDL
MODEL 7
REMARK VINA RESULT:      -4.4      6.017      8.948
REMARK  7 active torsions:
REMARK  status: ('A' for Active; 'I' for Inactive)
REMARK    1  A    between atoms: C_2  and  C_3 
REMARK    2  A    between atoms: C_3  and  O_6 
REMARK    3  A    between atoms: C_3  and  C_4 
REMARK    4  A    between atoms: C_7  and  O_6 
REMARK    5  A    between atoms: C_9  and  C_10 
REMARK    6  A    between atoms: N_15  and  C_14 
REMARK    7  A    between atoms: N_20  and  C_19 
REMARK       I    between atoms: C_22  and  N_20 
ROOT
ATOM      1  C   LIG d   1       2.657  88.684 116.402  0.00  0.00     0.161 C 
ATOM      2  C   LIG d   1       2.946  89.580 117.445  0.00  0.00     0.016 C 
ATOM      3  C   LIG d   1       4.017  90.502 117.405  0.00  0.00     0.038 C 
ATOM      4  C   LIG d   1       4.787  90.695 116.249  0.00  0.00     0.028 C 
ATOM      5  C   LIG d   1       4.853  89.463 115.353  0.00  0.00    -0.047 C 
ATOM      6  C   LIG d   1       3.417  88.957 115.087  0.00  0.00     0.091 C 
ENDROOT
BRANCH   1   7
ATOM      7  O   LIG d   1       1.236  88.654 116.163  0.00  0.00    -0.368 OA
BRANCH   7   8
ATOM      8  C   LIG d   1       0.558  87.421 116.508  0.00  0.00     0.119 C 
BRANCH   8   9
ATOM      9  C   LIG d   1      -0.314  87.703 117.746  0.00  0.00     0.028 C 
ATOM     10  C   LIG d   1      -1.006  89.075 117.676  0.00  0.00     0.006 C 
ENDBRANCH   8   9
BRANCH   8  11
ATOM     11  C   LIG d   1       1.552  86.343 116.949  0.00  0.00     0.028 C 
ATOM     12  C   LIG d   1       1.202  85.733 118.316  0.00  0.00     0.006 C 
ENDBRANCH   8  11
ENDBRANCH   7   8
ENDBRANCH   1   7
BRANCH   6  13
ATOM     13  N   LIG d   1       3.396  87.704 114.287  0.00  0.00    -0.311 N 
ATOM     14  C   LIG d   1       2.859  87.620 113.071  0.00  0.00     0.210 C 
ATOM     15  C   LIG d   1       2.926  86.230 112.430  0.00  0.00     0.109 C 
ATOM     16  O   LIG d   1       2.362  88.571 112.450  0.00  0.00    -0.276 OA
ATOM     17  H   LIG d   1       3.806  86.891 114.703  0.00  0.00     0.149 HD
ENDBRANCH   6  13
BRANCH   5  18
ATOM     18  N   LIG d   1       5.569  89.845 114.121  0.00  0.00     0.381 N 
ATOM     19  H   LIG d   1       5.490  90.832 113.976  0.00  0.00    -0.090 HD
ATOM     20  H   LIG d   1       5.145  89.377 113.340  0.00  0.00    -0.090 HD
ATOM     21  H   LIG d   1       6.529  89.589 114.190  0.00  0.00    -0.090 HD
ENDBRANCH   5  18
BRANCH   3  22
ATOM     22  C   LIG d   1       4.353  91.214 118.547  0.00  0.00     0.382 C 
ATOM     23  O   LIG d   1       5.190  92.147 118.480  0.00  0.00    -0.241 OA
ATOM     24  O   LIG d   1       3.864  90.906 119.650  0.00  0.00    -0.241 OA
ENDBRANCH   3  22
TORSDOF 7
ENDMDL
MODEL 8
REMARK VINA RESULT:      -4.4      5.652      8.736
REMARK  7 active torsions:
REMARK  status: ('A' for Active; 'I' for Inactive)
REMARK    1  A    between atoms: C_2  and  C_3 
REMARK    2  A    between atoms: C_3  and  O_6 
REMARK    3  A    between atoms: C_3  and  C_4 
REMARK    4  A    between atoms: C_7  and  O_6 
REMARK    5  A    between atoms: C_9  and  C_10 
REMARK    6  A    between atoms: N_15  and  C_14 
REMARK    7  A    between atoms: N_20  and  C_19 
REMARK       I    between atoms: C_22  and  N_20 
ROOT
ATOM      1  C   LIG d   1       2.642  88.761 116.462  0.00  0.00     0.161 C 
ATOM      2  C   LIG d   1       3.021  89.628 117.500  0.00  0.00     0.016 C 
ATOM      3  C   LIG d   1       4.132  90.499 117.419  0.00  0.00     0.038 C 
ATOM      4  C   LIG d   1       4.854  90.672 116.229  0.00  0.00     0.028 C 
ATOM      5  C   LIG d   1       4.820  89.450 115.317  0.00  0.00    -0.047 C 
ATOM      6  C   LIG d   1       3.350  89.016 115.115  0.00  0.00     0.091 C 
ENDROOT
BRANCH   1   7
ATOM      7  O   LIG d   1       1.211  88.800 116.291  0.00  0.00    -0.368 OA
BRANCH   7   8
ATOM      8  C   LIG d   1       0.433  89.054 117.487  0.00  0.00     0.119 C 
BRANCH   8   9
ATOM      9  C   LIG d   1      -0.466  87.825 117.723  0.00  0.00     0.028 C 
ATOM     10  C   LIG d   1       0.315  86.628 118.294  0.00  0.00     0.006 C 
ENDBRANCH   8   9
BRANCH   8  11
ATOM     11  C   LIG d   1      -0.530  90.228 117.286  0.00  0.00     0.028 C 
ATOM     12  C   LIG d   1       0.085  91.578 117.686  0.00  0.00     0.006 C 
ENDBRANCH   8  11
ENDBRANCH   7   8
ENDBRANCH   1   7
BRANCH   6  13
ATOM     13  N   LIG d   1       3.232  87.776 114.303  0.00  0.00    -0.311 N 
ATOM     14  C   LIG d   1       2.695  87.746 113.085  0.00  0.00     0.210 C 
ATOM     15  C   LIG d   1       2.653  86.362 112.431  0.00  0.00     0.109 C 
ATOM     16  O   LIG d   1       2.278  88.740 112.471  0.00  0.00    -0.276 OA
ATOM     17  H   LIG d   1       3.574  86.929 114.713  0.00  0.00     0.149 HD
ENDBRANCH   6  13
BRANCH   5  18
ATOM     18  N   LIG d   1       5.493  89.816 114.057  0.00  0.00     0.381 N 
ATOM     19  H   LIG d   1       5.081  90.646 113.681  0.00  0.00    -0.090 HD
ATOM     20  H   LIG d   1       5.366  89.072 113.393  0.00  0.00    -0.090 HD
ATOM     21  H   LIG d   1       6.465  89.963 114.220  0.00  0.00    -0.090 HD
ENDBRANCH   5  18
BRANCH   3  22
ATOM     22  C   LIG d   1       4.555  91.180 118.551  0.00  0.00     0.382 C 
ATOM     23  O   LIG d   1       5.660  91.775 118.548  0.00  0.00    -0.241 OA
ATOM     24  O   LIG d   1       3.867  91.169 119.589  0.00  0.00    -0.241 OA
ENDBRANCH   3  22
TORSDOF 7
ENDMDL
MODEL 9
REMARK VINA RESULT:      -4.3      7.901     10.471
REMARK  7 active torsions:
REMARK  status: ('A' for Active; 'I' for Inactive)
REMARK    1  A    between atoms: C_2  and  C_3 
REMARK    2  A    between atoms: C_3  and  O_6 
REMARK    3  A    between atoms: C_3  and  C_4 
REMARK    4  A    between atoms: C_7  and  O_6 
REMARK    5  A    between atoms: C_9  and  C_10 
REMARK    6  A    between atoms: N_15  and  C_14 
REMARK    7  A    between atoms: N_20  and  C_19 
REMARK       I    between atoms: C_22  and  N_20 
ROOT
ATOM      1  C   LIG d   1       4.599  87.853 116.576  0.00  0.00     0.161 C 
ATOM      2  C   LIG d   1       3.729  88.955 116.519  0.00  0.00     0.016 C 
ATOM      3  C   LIG d   1       4.156  90.293 116.678  0.00  0.00     0.038 C 
ATOM      4  C   LIG d   1       5.515  90.633 116.754  0.00  0.00     0.028 C 
ATOM      5  C   LIG d   1       6.388  89.519 117.321  0.00  0.00    -0.047 C 
ATOM      6  C   LIG d   1       6.099  88.212 116.547  0.00  0.00     0.091 C 
ENDROOT
BRANCH   1   7
ATOM      7  O   LIG d   1       4.284  86.928 115.516  0.00  0.00    -0.368 OA
BRANCH   7   8
ATOM      8  C   LIG d   1       3.515  87.461 114.411  0.00  0.00     0.119 C 
BRANCH   8   9
ATOM      9  C   LIG d   1       2.343  86.494 114.154  0.00  0.00     0.028 C 
ATOM     10  C   LIG d   1       1.287  86.541 115.271  0.00  0.00     0.006 C 
ENDBRANCH   8   9
BRANCH   8  11
ATOM     11  C   LIG d   1       4.330  87.465 113.114  0.00  0.00     0.028 C 
ATOM     12  C   LIG d   1       5.333  88.627 113.044  0.00  0.00     0.006 C 
ENDBRANCH   8  11
ENDBRANCH   7   8
ENDBRANCH   1   7
BRANCH   6  13
ATOM     13  N   LIG d   1       6.850  87.052 117.093  0.00  0.00    -0.311 N 
ATOM     14  C   LIG d   1       8.037  86.663 116.631  0.00  0.00     0.210 C 
ATOM     15  C   LIG d   1       8.628  85.430 117.323  0.00  0.00     0.109 C 
ATOM     16  O   LIG d   1       8.671  87.241 115.735  0.00  0.00    -0.276 OA
ATOM     17  H   LIG d   1       6.422  86.544 117.843  0.00  0.00     0.149 HD
ENDBRANCH   6  13
BRANCH   5  18
ATOM     18  N   LIG d   1       7.793  89.955 117.215  0.00  0.00     0.381 N 
ATOM     19  H   LIG d   1       8.373  89.175 116.977  0.00  0.00    -0.090 HD
ATOM     20  H   LIG d   1       8.091  90.309 118.107  0.00  0.00    -0.090 HD
ATOM     21  H   LIG d   1       7.878  90.666 116.522  0.00  0.00    -0.090 HD
ENDBRANCH   5  18
BRANCH   3  22
ATOM     22  C   LIG d   1       3.216  91.305 116.802  0.00  0.00     0.382 C 
ATOM     23  O   LIG d   1       1.992  91.031 116.766  0.00  0.00    -0.241 OA
ATOM     24  O   LIG d   1       3.576  92.493 116.905  0.00  0.00    -0.241 OA
ENDBRANCH   3  22
TORSDOF 7
ENDMDL
