MODEL 1
REMARK VINA RESULT:      -5.1      0.000      0.000
REMARK  7 active torsions:
REMARK  status: ('A' for Active; 'I' for Inactive)
REMARK    1  A    between atoms: C_2  and  C_3 
REMARK    2  A    between atoms: C_3  and  O_6 
REMARK    3  A    between atoms: C_3  and  C_4 
REMARK    4  A    between atoms: C_7  and  O_6 
REMARK    5  A    between atoms: C_9  and  C_10 
REMARK    6  A    between atoms: N_15  and  C_14 
REMARK    7  A    between atoms: N_20  and  C_19 
REMARK       I    between atoms: C_22  and  N_20 
ROOT
ATOM      1  C   LIG d   1      -4.860  92.858 117.699  0.00  0.00     0.161 C 
ATOM      2  C   LIG d   1      -4.584  93.930 118.565  0.00  0.00     0.016 C 
ATOM      3  C   LIG d   1      -5.473  95.009 118.776  0.00  0.00     0.038 C 
ATOM      4  C   LIG d   1      -6.773  95.013 118.248  0.00  0.00     0.028 C 
ATOM      5  C   LIG d   1      -6.908  94.200 116.965  0.00  0.00    -0.047 C 
ATOM      6  C   LIG d   1      -6.319  92.790 117.200  0.00  0.00     0.091 C 
ENDROOT
BRANCH   1   7
ATOM      7  O   LIG d   1      -4.486  91.615 118.325  0.00  0.00    -0.368 OA
BRANCH   7   8
ATOM      8  C   LIG d   1      -3.174  91.101 117.988  0.00  0.00     0.119 C 
BRANCH   8   9
ATOM      9  C   LIG d   1      -3.360  89.663 117.468  0.00  0.00     0.028 C 
ATOM     10  C   LIG d   1      -2.440  88.657 118.180  0.00  0.00     0.006 C 
ENDBRANCH   8   9
BRANCH   8  11
ATOM     11  C   LIG d   1      -2.290  90.971 119.232  0.00  0.00     0.028 C 
ATOM     12  C   LIG d   1      -1.234  92.083 119.331  0.00  0.00     0.006 C 
ENDBRANCH   8  11
ENDBRANCH   7   8
ENDBRANCH   1   7
BRANCH   6  13
ATOM     13  N   LIG d   1      -6.334  91.957 115.970  0.00  0.00    -0.311 N 
ATOM     14  C   LIG d   1      -6.730  90.685 115.950  0.00  0.00     0.210 C 
ATOM     15  C   LIG d   1      -6.648  90.003 114.581  0.00  0.00     0.109 C 
ATOM     16  O   LIG d   1      -7.171  90.066 116.930  0.00  0.00    -0.276 OA
ATOM     17  H   LIG d   1      -6.022  92.389 115.122  0.00  0.00     0.149 HD
ENDBRANCH   6  13
BRANCH   5  18
ATOM     18  N   LIG d   1      -8.337  94.176 116.600  0.00  0.00     0.381 N 
ATOM     19  H   LIG d   1      -8.711  93.261 116.757  0.00  0.00    -0.090 HD
ATOM     20  H   LIG d   1      -8.427  94.390 115.623  0.00  0.00    -0.090 HD
ATOM     21  H   LIG d   1      -8.838  94.845 117.142  0.00  0.00    -0.090 HD
ENDBRANCH   5  18
BRANCH   3  22
ATOM     22  C   LIG d   1      -5.050  96.118 119.492  0.00  0.00     0.382 C 
ATOM     23  O   LIG d   1      -5.891  96.940 119.930  0.00  0.00    -0.241 OA
ATOM     24  O   LIG d   1      -3.835  96.331 119.667  0.00  0.00    -0.241 OA
ENDBRANCH   3  22
TORSDOF 7
ENDMDL
MODEL 2
REMARK VINA RESULT:      -4.7      2.094      4.838
REMARK  7 active torsions:
REMARK  status: ('A' for Active; 'I' for Inactive)
REMARK    1  A    between atoms: C_2  and  C_3 
REMARK    2  A    between atoms: C_3  and  O_6 
REMARK    3  A    between atoms: C_3  and  C_4 
REMARK    4  A    between atoms: C_7  and  O_6 
REMARK    5  A    between atoms: C_9  and  C_10 
REMARK    6  A    between atoms: N_15  and  C_14 
REMARK    7  A    between atoms: N_20  and  C_19 
REMARK       I    between atoms: C_22  and  N_20 
ROOT
ATOM      1  C   LIG d   1      -6.302  92.121 119.015  0.00  0.00     0.161 C 
ATOM      2  C   LIG d   1      -5.530  91.218 118.264  0.00  0.00     0.016 C 
ATOM      3  C   LIG d   1      -5.686  91.033 116.871  0.00  0.00     0.038 C 
ATOM      4  C   LIG d   1      -6.528  91.852 116.103  0.00  0.00     0.028 C 
ATOM      5  C   LIG d   1      -7.694  92.433 116.895  0.00  0.00    -0.047 C 
ATOM      6  C   LIG d   1      -7.147  93.102 118.176  0.00  0.00     0.091 C 
ENDROOT
BRANCH   1   7
ATOM      7  O   LIG d   1      -5.455  92.844 119.930  0.00  0.00    -0.368 OA
BRANCH   7   8
ATOM      8  C   LIG d   1      -4.247  93.413 119.367  0.00  0.00     0.119 C 
BRANCH   8   9
ATOM      9  C   LIG d   1      -3.056  92.599 119.907  0.00  0.00     0.028 C 
ATOM     10  C   LIG d   1      -2.171  92.035 118.783  0.00  0.00     0.006 C 
ENDBRANCH   8   9
BRANCH   8  11
ATOM     11  C   LIG d   1      -4.020  94.843 119.865  0.00  0.00     0.028 C 
ATOM     12  C   LIG d   1      -5.240  95.751 119.644  0.00  0.00     0.006 C 
ENDBRANCH   8  11
ENDBRANCH   7   8
ENDBRANCH   1   7
BRANCH   6  13
ATOM     13  N   LIG d   1      -8.230  93.623 119.051  0.00  0.00    -0.311 N 
ATOM     14  C   LIG d   1      -8.768  94.834 118.910  0.00  0.00     0.210 C 
ATOM     15  C   LIG d   1      -9.857  95.180 119.930  0.00  0.00     0.109 C 
ATOM     16  O   LIG d   1      -8.468  95.641 118.018  0.00  0.00    -0.276 OA
ATOM     17  H   LIG d   1      -8.555  93.021 119.782  0.00  0.00     0.149 HD
ENDBRANCH   6  13
BRANCH   5  18
ATOM     18  N   LIG d   1      -8.408  93.374 116.011  0.00  0.00     0.381 N 
ATOM     19  H   LIG d   1      -8.852  92.870 115.269  0.00  0.00    -0.090 HD
ATOM     20  H   LIG d   1      -7.743  94.009 115.607  0.00  0.00    -0.090 HD
ATOM     21  H   LIG d   1      -9.089  93.881 116.532  0.00  0.00    -0.090 HD
ENDBRANCH   5  18
BRANCH   3  22
ATOM     22  C   LIG d   1      -5.025  89.991 116.238  0.00  0.00     0.382 C 
ATOM     23  O   LIG d   1      -5.502  89.489 115.191  0.00  0.00    -0.241 OA
ATOM     24  O   LIG d   1      -3.981  89.517 116.725  0.00  0.00    -0.241 OA
ENDBRANCH   3  22
TORSDOF 7
ENDMDL
MODEL 3
REMARK VINA RESULT:      -4.7      1.108      1.720
REMARK  7 active torsions:
REMARK  status: ('A' for Active; 'I' for Inactive)
REMARK    1  A    between atoms: C_2  and  C_3 
REMARK    2  A    between atoms: C_3  and  O_6 
REMARK    3  A    between atoms: C_3  and  C_4 
REMARK    4  A    between atoms: C_7  and  O_6 
REMARK    5  A    between atoms: C_9  and  C_10 
REMARK    6  A    between atoms: N_15  and  C_14 
REMARK    7  A    between atoms: N_20  and  C_19 
REMARK       I    between atoms: C_22  and  N_20 
ROOT
ATOM      1  C   LIG d   1      -5.220  92.631 118.277  0.00  0.00     0.161 C 
ATOM      2  C   LIG d   1      -5.495  93.798 119.009  0.00  0.00     0.016 C 
ATOM      3  C   LIG d   1      -6.531  94.700 118.676  0.00  0.00     0.038 C 
ATOM      4  C   LIG d   1      -7.466  94.415 117.669  0.00  0.00     0.028 C 
ATOM      5  C   LIG d   1      -6.922  93.497 116.580  0.00  0.00    -0.047 C 
ATOM      6  C   LIG d   1      -6.299  92.247 117.243  0.00  0.00     0.091 C 
ENDROOT
BRANCH   1   7
ATOM      7  O   LIG d   1      -4.979  91.533 119.180  0.00  0.00    -0.368 OA
BRANCH   7   8
ATOM      8  C   LIG d   1      -3.605  91.085 119.285  0.00  0.00     0.119 C 
BRANCH   8   9
ATOM      9  C   LIG d   1      -2.721  92.133 118.582  0.00  0.00     0.028 C 
ATOM     10  C   LIG d   1      -1.283  91.634 118.360  0.00  0.00     0.006 C 
ENDBRANCH   8   9
BRANCH   8  11
ATOM     11  C   LIG d   1      -3.383  89.782 118.510  0.00  0.00     0.028 C 
ATOM     12  C   LIG d   1      -2.873  88.638 119.400  0.00  0.00     0.006 C 
ENDBRANCH   8  11
ENDBRANCH   7   8
ENDBRANCH   1   7
BRANCH   6  13
ATOM     13  N   LIG d   1      -5.668  91.336 116.253  0.00  0.00    -0.311 N 
ATOM     14  C   LIG d   1      -6.130  90.116 115.980  0.00  0.00     0.210 C 
ATOM     15  C   LIG d   1      -5.320  89.335 114.942  0.00  0.00     0.109 C 
ATOM     16  O   LIG d   1      -7.153  89.621 116.476  0.00  0.00    -0.276 OA
ATOM     17  H   LIG d   1      -4.851  91.670 115.780  0.00  0.00     0.149 HD
ENDBRANCH   6  13
BRANCH   5  18
ATOM     18  N   LIG d   1      -8.039  93.173 115.672  0.00  0.00     0.381 N 
ATOM     19  H   LIG d   1      -7.799  93.429 114.735  0.00  0.00    -0.090 HD
ATOM     20  H   LIG d   1      -8.846  93.704 115.947  0.00  0.00    -0.090 HD
ATOM     21  H   LIG d   1      -8.242  92.199 115.715  0.00  0.00    -0.090 HD
ENDBRANCH   5  18
BRANCH   3  22
ATOM     22  C   LIG d   1      -6.616  95.921 119.327  0.00  0.00     0.382 C 
ATOM     23  O   LIG d   1      -7.737  96.384 119.647  0.00  0.00    -0.241 OA
ATOM     24  O   LIG d   1      -5.588  96.585 119.560  0.00  0.00    -0.241 OA
ENDBRANCH   3  22
TORSDOF 7
ENDMDL
MODEL 4
REMARK VINA RESULT:      -4.4      6.323      9.169
REMARK  7 active torsions:
REMARK  status: ('A' for Active; 'I' for Inactive)
REMARK    1  A    between atoms: C_2  and  C_3 
REMARK    2  A    between atoms: C_3  and  O_6 
REMARK    3  A    between atoms: C_3  and  C_4 
REMARK    4  A    between atoms: C_7  and  O_6 
REMARK    5  A    between atoms: C_9  and  C_10 
REMARK    6  A    between atoms: N_15  and  C_14 
REMARK    7  A    between atoms: N_20  and  C_19 
REMARK       I    between atoms: C_22  and  N_20 
ROOT
ATOM      1  C   LIG d   1       1.212  87.706 116.765  0.00  0.00     0.161 C 
ATOM      2  C   LIG d   1      -0.169  87.616 117.006  0.00  0.00     0.016 C 
ATOM      3  C   LIG d   1      -0.888  88.559 117.775  0.00  0.00     0.038 C 
ATOM      4  C   LIG d   1      -0.298  89.747 118.233  0.00  0.00     0.028 C 
ATOM      5  C   LIG d   1       1.208  89.633 118.443  0.00  0.00    -0.047 C 
ATOM      6  C   LIG d   1       1.851  89.053 117.163  0.00  0.00     0.091 C 
ENDROOT
BRANCH   1   7
ATOM      7  O   LIG d   1       1.487  87.410 115.381  0.00  0.00    -0.368 OA
BRANCH   7   8
ATOM      8  C   LIG d   1       2.102  86.126 115.114  0.00  0.00     0.119 C 
BRANCH   8   9
ATOM      9  C   LIG d   1       3.558  86.391 114.683  0.00  0.00     0.028 C 
ATOM     10  C   LIG d   1       3.646  87.175 113.363  0.00  0.00     0.006 C 
ENDBRANCH   8   9
BRANCH   8  11
ATOM     11  C   LIG d   1       1.445  85.432 113.918  0.00  0.00     0.028 C 
ATOM     12  C   LIG d   1      -0.037  85.804 113.753  0.00  0.00     0.006 C 
ENDBRANCH   8  11
ENDBRANCH   7   8
ENDBRANCH   1   7
BRANCH   6  13
ATOM     13  N   LIG d   1       3.313  88.830 117.313  0.00  0.00    -0.311 N 
ATOM     14  C   LIG d   1       4.218  89.294 116.452  0.00  0.00     0.210 C 
ATOM     15  C   LIG d   1       5.669  88.933 116.784  0.00  0.00     0.109 C 
ATOM     16  O   LIG d   1       3.959  89.996 115.464  0.00  0.00    -0.276 OA
ATOM     17  H   LIG d   1       3.614  88.297 118.105  0.00  0.00     0.149 HD
ENDBRANCH   6  13
BRANCH   5  18
ATOM     18  N   LIG d   1       1.713  90.976 118.787  0.00  0.00     0.381 N 
ATOM     19  H   LIG d   1       1.192  91.347 119.556  0.00  0.00    -0.090 HD
ATOM     20  H   LIG d   1       1.585  91.583 117.997  0.00  0.00    -0.090 HD
ATOM     21  H   LIG d   1       2.680  90.926 119.023  0.00  0.00    -0.090 HD
ENDBRANCH   5  18
BRANCH   3  22
ATOM     22  C   LIG d   1      -2.203  88.299 118.128  0.00  0.00     0.382 C 
ATOM     23  O   LIG d   1      -3.142  88.785 117.451  0.00  0.00    -0.241 OA
ATOM     24  O   LIG d   1      -2.464  87.621 119.140  0.00  0.00    -0.241 OA
ENDBRANCH   3  22
TORSDOF 7
ENDMDL
MODEL 5
REMARK VINA RESULT:      -4.3      8.422     10.587
REMARK  7 active torsions:
REMARK  status: ('A' for Active; 'I' for Inactive)
REMARK    1  A    between atoms: C_2  and  C_3 
REMARK    2  A    between atoms: C_3  and  O_6 
REMARK    3  A    between atoms: C_3  and  C_4 
REMARK    4  A    between atoms: C_7  and  O_6 
REMARK    5  A    between atoms: C_9  and  C_10 
REMARK    6  A    between atoms: N_15  and  C_14 
REMARK    7  A    between atoms: N_20  and  C_19 
REMARK       I    between atoms: C_22  and  N_20 
ROOT
ATOM      1  C   LIG d   1       4.029  87.441 116.713  0.00  0.00     0.161 C 
ATOM      2  C   LIG d   1       4.735  88.257 117.613  0.00  0.00     0.016 C 
ATOM      3  C   LIG d   1       5.415  89.434 117.227  0.00  0.00     0.038 C 
ATOM      4  C   LIG d   1       5.309  89.961 115.931  0.00  0.00     0.028 C 
ATOM      5  C   LIG d   1       5.024  88.904 114.869  0.00  0.00    -0.047 C 
ATOM      6  C   LIG d   1       3.810  88.059 115.316  0.00  0.00     0.091 C 
ENDROOT
BRANCH   1   7
ATOM      7  O   LIG d   1       2.768  87.050 117.292  0.00  0.00    -0.368 OA
BRANCH   7   8
ATOM      8  C   LIG d   1       1.667  87.973 117.103  0.00  0.00     0.119 C 
BRANCH   8   9
ATOM      9  C   LIG d   1       1.510  88.779 118.407  0.00  0.00     0.028 C 
ATOM     10  C   LIG d   1       1.837  90.269 118.220  0.00  0.00     0.006 C 
ENDBRANCH   8   9
BRANCH   8  11
ATOM     11  C   LIG d   1       0.341  87.229 116.923  0.00  0.00     0.028 C 
ATOM     12  C   LIG d   1      -0.853  87.985 117.526  0.00  0.00     0.006 C 
ENDBRANCH   8  11
ENDBRANCH   7   8
ENDBRANCH   1   7
BRANCH   6  13
ATOM     13  N   LIG d   1       3.515  86.948 114.374  0.00  0.00    -0.311 N 
ATOM     14  C   LIG d   1       2.823  87.106 113.247  0.00  0.00     0.210 C 
ATOM     15  C   LIG d   1       2.616  85.827 112.430  0.00  0.00     0.109 C 
ATOM     16  O   LIG d   1       2.389  88.190 112.830  0.00  0.00    -0.276 OA
ATOM     17  H   LIG d   1       3.858  86.039 114.619  0.00  0.00     0.149 HD
ENDBRANCH   6  13
BRANCH   5  18
ATOM     18  N   LIG d   1       4.801  89.606 113.591  0.00  0.00     0.381 N 
ATOM     19  H   LIG d   1       5.313  90.465 113.583  0.00  0.00    -0.090 HD
ATOM     20  H   LIG d   1       3.824  89.820 113.504  0.00  0.00    -0.090 HD
ATOM     21  H   LIG d   1       5.092  89.031 112.831  0.00  0.00    -0.090 HD
ENDBRANCH   5  18
BRANCH   3  22
ATOM     22  C   LIG d   1       6.245  90.077 118.133  0.00  0.00     0.382 C 
ATOM     23  O   LIG d   1       7.445  90.296 117.839  0.00  0.00    -0.241 OA
ATOM     24  O   LIG d   1       5.821  90.400 119.259  0.00  0.00    -0.241 OA
ENDBRANCH   3  22
TORSDOF 7
ENDMDL
MODEL 6
REMARK VINA RESULT:      -4.3      2.369      4.460
REMARK  7 active torsions:
REMARK  status: ('A' for Active; 'I' for Inactive)
REMARK    1  A    between atoms: C_2  and  C_3 
REMARK    2  A    between atoms: C_3  and  O_6 
REMARK    3  A    between atoms: C_3  and  C_4 
REMARK    4  A    between atoms: C_7  and  O_6 
REMARK    5  A    between atoms: C_9  and  C_10 
REMARK    6  A    between atoms: N_15  and  C_14 
REMARK    7  A    between atoms: N_20  and  C_19 
REMARK       I    between atoms: C_22  and  N_20 
ROOT
ATOM      1  C   LIG d   1      -5.914  92.803 117.668  0.00  0.00     0.161 C 
ATOM      2  C   LIG d   1      -7.224  93.279 117.844  0.00  0.00     0.016 C 
ATOM      3  C   LIG d   1      -7.537  94.437 118.592  0.00  0.00     0.038 C 
ATOM      4  C   LIG d   1      -6.541  95.290 119.091  0.00  0.00     0.028 C 
ATOM      5  C   LIG d   1      -5.220  94.580 119.368  0.00  0.00    -0.047 C 
ATOM      6  C   LIG d   1      -4.806  93.781 118.111  0.00  0.00     0.091 C 
ENDROOT
BRANCH   1   7
ATOM      7  O   LIG d   1      -5.717  92.412 116.294  0.00  0.00    -0.368 OA
BRANCH   7   8
ATOM      8  C   LIG d   1      -6.660  91.449 115.765  0.00  0.00     0.119 C 
BRANCH   8   9
ATOM      9  C   LIG d   1      -5.875  90.164 115.438  0.00  0.00     0.028 C 
ATOM     10  C   LIG d   1      -4.669  89.960 116.371  0.00  0.00     0.006 C 
ENDBRANCH   8   9
BRANCH   8  11
ATOM     11  C   LIG d   1      -7.245  91.917 114.429  0.00  0.00     0.028 C 
ATOM     12  C   LIG d   1      -7.588  90.752 113.487  0.00  0.00     0.006 C 
ENDBRANCH   8  11
ENDBRANCH   7   8
ENDBRANCH   1   7
BRANCH   6  13
ATOM     13  N   LIG d   1      -3.567  92.990 118.325  0.00  0.00    -0.311 N 
ATOM     14  C   LIG d   1      -3.471  92.004 119.216  0.00  0.00     0.210 C 
ATOM     15  C   LIG d   1      -2.097  91.330 119.290  0.00  0.00     0.109 C 
ATOM     16  O   LIG d   1      -4.403  91.603 119.930  0.00  0.00    -0.276 OA
ATOM     17  H   LIG d   1      -2.771  93.228 117.766  0.00  0.00     0.149 HD
ENDBRANCH   6  13
BRANCH   5  18
ATOM     18  N   LIG d   1      -4.234  95.608 119.751  0.00  0.00     0.381 N 
ATOM     19  H   LIG d   1      -4.225  95.715 120.745  0.00  0.00    -0.090 HD
ATOM     20  H   LIG d   1      -4.503  96.485 119.341  0.00  0.00    -0.090 HD
ATOM     21  H   LIG d   1      -3.327  95.347 119.430  0.00  0.00    -0.090 HD
ENDBRANCH   5  18
BRANCH   3  22
ATOM     22  C   LIG d   1      -8.861  94.732 118.881  0.00  0.00     0.382 C 
ATOM     23  O   LIG d   1      -9.746  93.855 118.730  0.00  0.00    -0.241 OA
ATOM     24  O   LIG d   1      -9.188  95.876 119.248  0.00  0.00    -0.241 OA
ENDBRANCH   3  22
TORSDOF 7
ENDMDL
MODEL 7
REMARK VINA RESULT:      -4.2      7.139      9.943
REMARK  7 active torsions:
REMARK  status: ('A' for Active; 'I' for Inactive)
REMARK    1  A    between atoms: C_2  and  C_3 
REMARK    2  A    between atoms: C_3  and  O_6 
REMARK    3  A    between atoms: C_3  and  C_4 
REMARK    4  A    between atoms: C_7  and  O_6 
REMARK    5  A    between atoms: C_9  and  C_10 
REMARK    6  A    between atoms: N_15  and  C_14 
REMARK    7  A    between atoms: N_20  and  C_19 
REMARK       I    between atoms: C_22  and  N_20 
ROOT
ATOM      1  C   LIG d   1       2.179  88.049 116.511  0.00  0.00     0.161 C 
ATOM      2  C   LIG d   1       0.940  88.557 116.935  0.00  0.00     0.016 C 
ATOM      3  C   LIG d   1       0.809  89.657 117.812  0.00  0.00     0.038 C 
ATOM      4  C   LIG d   1       1.914  90.425 118.209  0.00  0.00     0.028 C 
ATOM      5  C   LIG d   1       3.224  89.644 118.212  0.00  0.00    -0.047 C 
ATOM      6  C   LIG d   1       3.392  88.942 116.845  0.00  0.00     0.091 C 
ENDROOT
BRANCH   1   7
ATOM      7  O   LIG d   1       2.136  87.770 115.097  0.00  0.00    -0.368 OA
BRANCH   7   8
ATOM      8  C   LIG d   1       2.339  86.388 114.713  0.00  0.00     0.119 C 
BRANCH   8   9
ATOM      9  C   LIG d   1       3.187  86.385 113.426  0.00  0.00     0.028 C 
ATOM     10  C   LIG d   1       3.890  87.732 113.183  0.00  0.00     0.006 C 
ENDBRANCH   8   9
BRANCH   8  11
ATOM     11  C   LIG d   1       1.018  85.716 114.330  0.00  0.00     0.028 C 
ATOM     12  C   LIG d   1       0.728  85.787 112.823  0.00  0.00     0.006 C 
ENDBRANCH   8  11
ENDBRANCH   7   8
ENDBRANCH   1   7
BRANCH   6  13
ATOM     13  N   LIG d   1       4.608  88.088 116.792  0.00  0.00    -0.311 N 
ATOM     14  C   LIG d   1       5.772  88.499 116.294  0.00  0.00     0.210 C 
ATOM     15  C   LIG d   1       6.891  87.454 116.317  0.00  0.00     0.109 C 
ATOM     16  O   LIG d   1       5.993  89.641 115.863  0.00  0.00    -0.276 OA
ATOM     17  H   LIG d   1       4.526  87.156 117.149  0.00  0.00     0.149 HD
ENDBRANCH   6  13
BRANCH   5  18
ATOM     18  N   LIG d   1       4.310  90.597 118.510  0.00  0.00     0.381 N 
ATOM     19  H   LIG d   1       4.812  90.812 117.671  0.00  0.00    -0.090 HD
ATOM     20  H   LIG d   1       4.948  90.170 119.159  0.00  0.00    -0.090 HD
ATOM     21  H   LIG d   1       3.933  91.431 118.903  0.00  0.00    -0.090 HD
ENDBRANCH   5  18
BRANCH   3  22
ATOM     22  C   LIG d   1      -0.436  89.976 118.334  0.00  0.00     0.382 C 
ATOM     23  O   LIG d   1      -0.544  90.303 119.540  0.00  0.00    -0.241 OA
ATOM     24  O   LIG d   1      -1.457  89.897 117.625  0.00  0.00    -0.241 OA
ENDBRANCH   3  22
TORSDOF 7
ENDMDL
MODEL 8
REMARK VINA RESULT:      -4.2      2.274      4.470
REMARK  7 active torsions:
REMARK  status: ('A' for Active; 'I' for Inactive)
REMARK    1  A    between atoms: C_2  and  C_3 
REMARK    2  A    between atoms: C_3  and  O_6 
REMARK    3  A    between atoms: C_3  and  C_4 
REMARK    4  A    between atoms: C_7  and  O_6 
REMARK    5  A    between atoms: C_9  and  C_10 
REMARK    6  A    between atoms: N_15  and  C_14 
REMARK    7  A    between atoms: N_20  and  C_19 
REMARK       I    between atoms: C_22  and  N_20 
ROOT
ATOM      1  C   LIG d   1      -5.437  91.411 118.968  0.00  0.00     0.161 C 
ATOM      2  C   LIG d   1      -5.944  92.709 119.142  0.00  0.00     0.016 C 
ATOM      3  C   LIG d   1      -5.125  93.843 119.348  0.00  0.00     0.038 C 
ATOM      4  C   LIG d   1      -3.727  93.777 119.243  0.00  0.00     0.028 C 
ATOM      5  C   LIG d   1      -3.159  92.401 119.570  0.00  0.00    -0.047 C 
ATOM      6  C   LIG d   1      -3.913  91.337 118.739  0.00  0.00     0.091 C 
ENDROOT
BRANCH   1   7
ATOM      7  O   LIG d   1      -6.137  90.753 117.894  0.00  0.00    -0.368 OA
BRANCH   7   8
ATOM      8  C   LIG d   1      -5.847  91.230 116.557  0.00  0.00     0.119 C 
BRANCH   8   9
ATOM      9  C   LIG d   1      -7.125  91.902 116.018  0.00  0.00     0.028 C 
ATOM     10  C   LIG d   1      -7.077  93.434 116.137  0.00  0.00     0.006 C 
ENDBRANCH   8   9
BRANCH   8  11
ATOM     11  C   LIG d   1      -5.564  90.069 115.599  0.00  0.00     0.028 C 
ATOM     12  C   LIG d   1      -6.630  89.929 114.501  0.00  0.00     0.006 C 
ENDBRANCH   8  11
ENDBRANCH   7   8
ENDBRANCH   1   7
BRANCH   6  13
ATOM     13  N   LIG d   1      -3.476  89.953 119.061  0.00  0.00    -0.311 N 
ATOM     14  C   LIG d   1      -2.529  89.307 118.384  0.00  0.00     0.210 C 
ATOM     15  C   LIG d   1      -2.246  87.881 118.868  0.00  0.00     0.109 C 
ATOM     16  O   LIG d   1      -1.874  89.790 117.449  0.00  0.00    -0.276 OA
ATOM     17  H   LIG d   1      -3.934  89.497 119.826  0.00  0.00     0.149 HD
ENDBRANCH   6  13
BRANCH   5  18
ATOM     18  N   LIG d   1      -1.712  92.437 119.287  0.00  0.00     0.381 N 
ATOM     19  H   LIG d   1      -1.332  91.513 119.348  0.00  0.00    -0.090 HD
ATOM     20  H   LIG d   1      -1.260  93.010 119.978  0.00  0.00    -0.090 HD
ATOM     21  H   LIG d   1      -1.551  92.811 118.378  0.00  0.00    -0.090 HD
ENDBRANCH   5  18
BRANCH   3  22
ATOM     22  C   LIG d   1      -5.702  95.053 119.703  0.00  0.00     0.382 C 
ATOM     23  O   LIG d   1      -6.951  95.160 119.754  0.00  0.00    -0.241 OA
ATOM     24  O   LIG d   1      -4.991  96.050 119.929  0.00  0.00    -0.241 OA
ENDBRANCH   3  22
TORSDOF 7
ENDMDL
MODEL 9
REMARK VINA RESULT:      -4.0      2.290      5.346
REMARK  7 active torsions:
REMARK  status: ('A' for Active; 'I' for Inactive)
REMARK    1  A    between atoms: C_2  and  C_3 
REMARK    2  A    between atoms: C_3  and  O_6 
REMARK    3  A    between atoms: C_3  and  C_4 
REMARK    4  A    between atoms: C_7  and  O_6 
REMARK    5  A    between atoms: C_9  and  C_10 
REMARK    6  A    between atoms: N_15  and  C_14 
REMARK    7  A    between atoms: N_20  and  C_19 
REMARK       I    between atoms: C_22  and  N_20 
ROOT
ATOM      1  C   LIG d   1      -5.332  92.662 119.631  0.00  0.00     0.161 C 
ATOM      2  C   LIG d   1      -4.101  92.119 119.227  0.00  0.00     0.016 C 
ATOM      3  C   LIG d   1      -3.962  91.237 118.130  0.00  0.00     0.038 C 
ATOM      4  C   LIG d   1      -5.030  90.956 117.266  0.00  0.00     0.028 C 
ATOM      5  C   LIG d   1      -6.397  91.080 117.931  0.00  0.00    -0.047 C 
ATOM      6  C   LIG d   1      -6.490  92.454 118.633  0.00  0.00     0.091 C 
ENDROOT
BRANCH   1   7
ATOM      7  O   LIG d   1      -5.173  94.063 119.930  0.00  0.00    -0.368 OA
BRANCH   7   8
ATOM      8  C   LIG d   1      -5.825  94.986 119.023  0.00  0.00     0.119 C 
BRANCH   8   9
ATOM      9  C   LIG d   1      -4.730  95.872 118.398  0.00  0.00     0.028 C 
ATOM     10  C   LIG d   1      -4.364  97.070 119.291  0.00  0.00     0.006 C 
ENDBRANCH   8   9
BRANCH   8  11
ATOM     11  C   LIG d   1      -6.746  95.950 119.776  0.00  0.00     0.028 C 
ATOM     12  C   LIG d   1      -7.804  96.595 118.866  0.00  0.00     0.006 C 
ENDBRANCH   8  11
ENDBRANCH   7   8
ENDBRANCH   1   7
BRANCH   6  13
ATOM     13  N   LIG d   1      -7.763  92.624 119.380  0.00  0.00    -0.311 N 
ATOM     14  C   LIG d   1      -8.849  93.192 118.858  0.00  0.00     0.210 C 
ATOM     15  C   LIG d   1     -10.049  93.286 119.805  0.00  0.00     0.109 C 
ATOM     16  O   LIG d   1      -8.943  93.598 117.689  0.00  0.00    -0.276 OA
ATOM     17  H   LIG d   1      -7.785  92.295 120.325  0.00  0.00     0.149 HD
ENDBRANCH   6  13
BRANCH   5  18
ATOM     18  N   LIG d   1      -7.420  90.896 116.884  0.00  0.00     0.381 N 
ATOM     19  H   LIG d   1      -8.248  90.503 117.286  0.00  0.00    -0.090 HD
ATOM     20  H   LIG d   1      -7.069  90.254 116.196  0.00  0.00    -0.090 HD
ATOM     21  H   LIG d   1      -7.632  91.770 116.457  0.00  0.00    -0.090 HD
ENDBRANCH   5  18
BRANCH   3  22
ATOM     22  C   LIG d   1      -2.752  90.595 117.914  0.00  0.00     0.382 C 
ATOM     23  O   LIG d   1      -2.737  89.406 117.514  0.00  0.00    -0.241 OA
ATOM     24  O   LIG d   1      -1.677  91.175 118.156  0.00  0.00    -0.241 OA
ENDBRANCH   3  22
TORSDOF 7
ENDMDL
