MODEL 1
REMARK VINA RESULT:      -5.9      0.000      0.000
REMARK  7 active torsions:
REMARK  status: ('A' for Active; 'I' for Inactive)
REMARK    1  A    between atoms: C_2  and  C_3 
REMARK    2  A    between atoms: C_3  and  O_6 
REMARK    3  A    between atoms: C_3  and  C_4 
REMARK    4  A    between atoms: C_7  and  O_6 
REMARK    5  A    between atoms: C_9  and  C_10 
REMARK    6  A    between atoms: N_15  and  C_14 
REMARK    7  A    between atoms: N_20  and  C_19 
REMARK       I    between atoms: C_22  and  N_20 
ROOT
ATOM      1  C   LIG d   1      -5.901  92.702 117.378  0.00  0.00     0.161 C 
ATOM      2  C   LIG d   1      -6.957  91.887 116.936  0.00  0.00     0.016 C 
ATOM      3  C   LIG d   1      -6.786  90.541 116.538  0.00  0.00     0.038 C 
ATOM      4  C   LIG d   1      -5.566  89.868 116.699  0.00  0.00     0.028 C 
ATOM      5  C   LIG d   1      -4.355  90.795 116.668  0.00  0.00    -0.047 C 
ATOM      6  C   LIG d   1      -4.583  91.953 117.666  0.00  0.00     0.091 C 
ENDROOT
BRANCH   1   7
ATOM      7  O   LIG d   1      -6.316  93.452 118.537  0.00  0.00    -0.368 OA
BRANCH   7   8
ATOM      8  C   LIG d   1      -6.598  94.856 118.320  0.00  0.00     0.119 C 
BRANCH   8   9
ATOM      9  C   LIG d   1      -5.977  95.640 119.492  0.00  0.00     0.028 C 
ATOM     10  C   LIG d   1      -4.753  96.466 119.062  0.00  0.00     0.006 C 
ENDBRANCH   8   9
BRANCH   8  11
ATOM     11  C   LIG d   1      -8.102  95.140 118.394  0.00  0.00     0.028 C 
ATOM     12  C   LIG d   1      -8.870  94.076 119.194  0.00  0.00     0.006 C 
ENDBRANCH   8  11
ENDBRANCH   7   8
ENDBRANCH   1   7
BRANCH   6  13
ATOM     13  N   LIG d   1      -3.483  92.952 117.637  0.00  0.00    -0.311 N 
ATOM     14  C   LIG d   1      -2.436  92.913 118.458  0.00  0.00     0.210 C 
ATOM     15  C   LIG d   1      -1.426  94.051 118.273  0.00  0.00     0.109 C 
ATOM     16  O   LIG d   1      -2.230  92.027 119.302  0.00  0.00    -0.276 OA
ATOM     17  H   LIG d   1      -3.553  93.688 116.962  0.00  0.00     0.149 HD
ENDBRANCH   6  13
BRANCH   5  18
ATOM     18  N   LIG d   1      -3.165  89.984 116.985  0.00  0.00     0.381 N 
ATOM     19  H   LIG d   1      -2.542  90.510 117.566  0.00  0.00    -0.090 HD
ATOM     20  H   LIG d   1      -2.686  89.761 116.130  0.00  0.00    -0.090 HD
ATOM     21  H   LIG d   1      -3.437  89.146 117.450  0.00  0.00    -0.090 HD
ENDBRANCH   5  18
BRANCH   3  22
ATOM     22  C   LIG d   1      -7.836  89.865 115.934  0.00  0.00     0.382 C 
ATOM     23  O   LIG d   1      -8.328  88.851 116.485  0.00  0.00    -0.241 OA
ATOM     24  O   LIG d   1      -8.266  90.229 114.823  0.00  0.00    -0.241 OA
ENDBRANCH   3  22
TORSDOF 7
ENDMDL
MODEL 2
REMARK VINA RESULT:      -5.4      1.936      4.837
REMARK  7 active torsions:
REMARK  status: ('A' for Active; 'I' for Inactive)
REMARK    1  A    between atoms: C_2  and  C_3 
REMARK    2  A    between atoms: C_3  and  O_6 
REMARK    3  A    between atoms: C_3  and  C_4 
REMARK    4  A    between atoms: C_7  and  O_6 
REMARK    5  A    between atoms: C_9  and  C_10 
REMARK    6  A    between atoms: N_15  and  C_14 
REMARK    7  A    between atoms: N_20  and  C_19 
REMARK       I    between atoms: C_22  and  N_20 
ROOT
ATOM      1  C   LIG d   1      -6.295  92.171 119.046  0.00  0.00     0.161 C 
ATOM      2  C   LIG d   1      -7.536  92.816 118.910  0.00  0.00     0.016 C 
ATOM      3  C   LIG d   1      -7.672  94.213 118.741  0.00  0.00     0.038 C 
ATOM      4  C   LIG d   1      -6.562  95.048 118.544  0.00  0.00     0.028 C 
ATOM      5  C   LIG d   1      -5.282  94.513 119.176  0.00  0.00    -0.047 C 
ATOM      6  C   LIG d   1      -5.070  93.051 118.721  0.00  0.00     0.091 C 
ENDROOT
BRANCH   1   7
ATOM      7  O   LIG d   1      -6.278  90.973 118.245  0.00  0.00    -0.368 OA
BRANCH   7   8
ATOM      8  C   LIG d   1      -6.557  91.145 116.834  0.00  0.00     0.119 C 
BRANCH   8   9
ATOM      9  C   LIG d   1      -7.555  90.046 116.422  0.00  0.00     0.028 C 
ATOM     10  C   LIG d   1      -7.762  89.983 114.899  0.00  0.00     0.006 C 
ENDBRANCH   8   9
BRANCH   8  11
ATOM     11  C   LIG d   1      -5.307  90.898 115.984  0.00  0.00     0.028 C 
ATOM     12  C   LIG d   1      -4.393  89.811 116.572  0.00  0.00     0.006 C 
ENDBRANCH   8  11
ENDBRANCH   7   8
ENDBRANCH   1   7
BRANCH   6  13
ATOM     13  N   LIG d   1      -3.884  92.425 119.361  0.00  0.00    -0.311 N 
ATOM     14  C   LIG d   1      -2.694  92.336 118.771  0.00  0.00     0.210 C 
ATOM     15  C   LIG d   1      -1.612  91.635 119.599  0.00  0.00     0.109 C 
ATOM     16  O   LIG d   1      -2.422  92.801 117.654  0.00  0.00    -0.276 OA
ATOM     17  H   LIG d   1      -4.007  92.050 120.282  0.00  0.00     0.149 HD
ENDBRANCH   6  13
BRANCH   5  18
ATOM     18  N   LIG d   1      -4.180  95.409 118.777  0.00  0.00     0.381 N 
ATOM     19  H   LIG d   1      -3.816  95.123 117.890  0.00  0.00    -0.090 HD
ATOM     20  H   LIG d   1      -3.443  95.341 119.457  0.00  0.00    -0.090 HD
ATOM     21  H   LIG d   1      -4.506  96.348 118.723  0.00  0.00    -0.090 HD
ENDBRANCH   5  18
BRANCH   3  22
ATOM     22  C   LIG d   1      -8.930  94.794 118.809  0.00  0.00     0.382 C 
ATOM     23  O   LIG d   1      -9.067  96.021 118.581  0.00  0.00    -0.241 OA
ATOM     24  O   LIG d   1      -9.922  94.117 119.138  0.00  0.00    -0.241 OA
ENDBRANCH   3  22
TORSDOF 7
ENDMDL
MODEL 3
REMARK VINA RESULT:      -5.4      2.150      5.054
REMARK  7 active torsions:
REMARK  status: ('A' for Active; 'I' for Inactive)
REMARK    1  A    between atoms: C_2  and  C_3 
REMARK    2  A    between atoms: C_3  and  O_6 
REMARK    3  A    between atoms: C_3  and  C_4 
REMARK    4  A    between atoms: C_7  and  O_6 
REMARK    5  A    between atoms: C_9  and  C_10 
REMARK    6  A    between atoms: N_15  and  C_14 
REMARK    7  A    between atoms: N_20  and  C_19 
REMARK       I    between atoms: C_22  and  N_20 
ROOT
ATOM      1  C   LIG d   1      -6.700  91.070 118.372  0.00  0.00     0.161 C 
ATOM      2  C   LIG d   1      -7.466  92.232 118.179  0.00  0.00     0.016 C 
ATOM      3  C   LIG d   1      -6.982  93.535 118.435  0.00  0.00     0.038 C 
ATOM      4  C   LIG d   1      -5.639  93.776 118.761  0.00  0.00     0.028 C 
ATOM      5  C   LIG d   1      -4.963  92.599 119.457  0.00  0.00    -0.047 C 
ATOM      6  C   LIG d   1      -5.198  91.320 118.620  0.00  0.00     0.091 C 
ENDROOT
BRANCH   1   7
ATOM      7  O   LIG d   1      -6.881  90.174 117.258  0.00  0.00    -0.368 OA
BRANCH   7   8
ATOM      8  C   LIG d   1      -6.958  90.792 115.949  0.00  0.00     0.119 C 
BRANCH   8   9
ATOM      9  C   LIG d   1      -7.970  89.983 115.115  0.00  0.00     0.028 C 
ATOM     10  C   LIG d   1      -8.858  89.077 115.985  0.00  0.00     0.006 C 
ENDBRANCH   8   9
BRANCH   8  11
ATOM     11  C   LIG d   1      -5.628  90.675 115.199  0.00  0.00     0.028 C 
ATOM     12  C   LIG d   1      -5.098  89.233 115.147  0.00  0.00     0.006 C 
ENDBRANCH   8  11
ENDBRANCH   7   8
ENDBRANCH   1   7
BRANCH   6  13
ATOM     13  N   LIG d   1      -4.642  90.107 119.273  0.00  0.00    -0.311 N 
ATOM     14  C   LIG d   1      -3.603  89.426 118.791  0.00  0.00     0.210 C 
ATOM     15  C   LIG d   1      -3.203  88.193 119.608  0.00  0.00     0.109 C 
ATOM     16  O   LIG d   1      -2.956  89.744 117.783  0.00  0.00    -0.276 OA
ATOM     17  H   LIG d   1      -5.088  89.796 120.114  0.00  0.00     0.149 HD
ENDBRANCH   6  13
BRANCH   5  18
ATOM     18  N   LIG d   1      -3.535  92.934 119.613  0.00  0.00     0.381 N 
ATOM     19  H   LIG d   1      -3.040  92.143 119.973  0.00  0.00    -0.090 HD
ATOM     20  H   LIG d   1      -3.449  93.687 120.273  0.00  0.00    -0.090 HD
ATOM     21  H   LIG d   1      -3.150  93.205 118.736  0.00  0.00    -0.090 HD
ENDBRANCH   5  18
BRANCH   3  22
ATOM     22  C   LIG d   1      -7.856  94.611 118.405  0.00  0.00     0.382 C 
ATOM     23  O   LIG d   1      -9.024  94.459 117.973  0.00  0.00    -0.241 OA
ATOM     24  O   LIG d   1      -7.477  95.743 118.763  0.00  0.00    -0.241 OA
ENDBRANCH   3  22
TORSDOF 7
ENDMDL
MODEL 4
REMARK VINA RESULT:      -4.6      1.343      2.274
REMARK  7 active torsions:
REMARK  status: ('A' for Active; 'I' for Inactive)
REMARK    1  A    between atoms: C_2  and  C_3 
REMARK    2  A    between atoms: C_3  and  O_6 
REMARK    3  A    between atoms: C_3  and  C_4 
REMARK    4  A    between atoms: C_7  and  O_6 
REMARK    5  A    between atoms: C_9  and  C_10 
REMARK    6  A    between atoms: N_15  and  C_14 
REMARK    7  A    between atoms: N_20  and  C_19 
REMARK       I    between atoms: C_22  and  N_20 
ROOT
ATOM      1  C   LIG d   1      -5.121  92.613 118.156  0.00  0.00     0.161 C 
ATOM      2  C   LIG d   1      -5.952  92.474 117.032  0.00  0.00     0.016 C 
ATOM      3  C   LIG d   1      -5.845  91.405 116.113  0.00  0.00     0.038 C 
ATOM      4  C   LIG d   1      -4.994  90.314 116.341  0.00  0.00     0.028 C 
ATOM      5  C   LIG d   1      -3.781  90.660 117.197  0.00  0.00    -0.047 C 
ATOM      6  C   LIG d   1      -4.261  91.374 118.481  0.00  0.00     0.091 C 
ENDROOT
BRANCH   1   7
ATOM      7  O   LIG d   1      -5.909  92.991 119.302  0.00  0.00    -0.368 OA
BRANCH   7   8
ATOM      8  C   LIG d   1      -6.001  94.412 119.572  0.00  0.00     0.119 C 
BRANCH   8   9
ATOM      9  C   LIG d   1      -6.723  95.064 118.377  0.00  0.00     0.028 C 
ATOM     10  C   LIG d   1      -8.204  95.355 118.674  0.00  0.00     0.006 C 
ENDBRANCH   8   9
BRANCH   8  11
ATOM     11  C   LIG d   1      -4.615  95.062 119.612  0.00  0.00     0.028 C 
ATOM     12  C   LIG d   1      -4.627  96.522 119.131  0.00  0.00     0.006 C 
ENDBRANCH   8  11
ENDBRANCH   7   8
ENDBRANCH   1   7
BRANCH   6  13
ATOM     13  N   LIG d   1      -3.131  91.823 119.336  0.00  0.00    -0.311 N 
ATOM     14  C   LIG d   1      -2.122  92.566 118.887  0.00  0.00     0.210 C 
ATOM     15  C   LIG d   1      -1.051  92.902 119.930  0.00  0.00     0.109 C 
ATOM     16  O   LIG d   1      -2.028  93.007 117.731  0.00  0.00    -0.276 OA
ATOM     17  H   LIG d   1      -3.143  91.537 120.296  0.00  0.00     0.149 HD
ENDBRANCH   6  13
BRANCH   5  18
ATOM     18  N   LIG d   1      -3.055  89.406 117.470  0.00  0.00     0.381 N 
ATOM     19  H   LIG d   1      -2.137  89.453 117.076  0.00  0.00    -0.090 HD
ATOM     20  H   LIG d   1      -3.546  88.645 117.035  0.00  0.00    -0.090 HD
ATOM     21  H   LIG d   1      -2.995  89.253 118.453  0.00  0.00    -0.090 HD
ENDBRANCH   5  18
BRANCH   3  22
ATOM     22  C   LIG d   1      -6.568  91.441 114.930  0.00  0.00     0.382 C 
ATOM     23  O   LIG d   1      -6.088  92.009 113.919  0.00  0.00    -0.241 OA
ATOM     24  O   LIG d   1      -7.712  90.952 114.873  0.00  0.00    -0.241 OA
ENDBRANCH   3  22
TORSDOF 7
ENDMDL
MODEL 5
REMARK VINA RESULT:      -4.5      2.263      4.724
REMARK  7 active torsions:
REMARK  status: ('A' for Active; 'I' for Inactive)
REMARK    1  A    between atoms: C_2  and  C_3 
REMARK    2  A    between atoms: C_3  and  O_6 
REMARK    3  A    between atoms: C_3  and  C_4 
REMARK    4  A    between atoms: C_7  and  O_6 
REMARK    5  A    between atoms: C_9  and  C_10 
REMARK    6  A    between atoms: N_15  and  C_14 
REMARK    7  A    between atoms: N_20  and  C_19 
REMARK       I    between atoms: C_22  and  N_20 
ROOT
ATOM      1  C   LIG d   1      -3.048  92.026 118.185  0.00  0.00     0.161 C 
ATOM      2  C   LIG d   1      -4.262  92.724 118.292  0.00  0.00     0.016 C 
ATOM      3  C   LIG d   1      -5.475  92.267 117.727  0.00  0.00     0.038 C 
ATOM      4  C   LIG d   1      -5.588  90.998 117.141  0.00  0.00     0.028 C 
ATOM      5  C   LIG d   1      -4.275  90.478 116.565  0.00  0.00    -0.047 C 
ATOM      6  C   LIG d   1      -3.175  90.586 117.645  0.00  0.00     0.091 C 
ENDROOT
BRANCH   1   7
ATOM      7  O   LIG d   1      -2.369  92.026 119.457  0.00  0.00    -0.368 OA
BRANCH   7   8
ATOM      8  C   LIG d   1      -1.222  92.904 119.567  0.00  0.00     0.119 C 
BRANCH   8   9
ATOM      9  C   LIG d   1      -1.006  93.559 118.189  0.00  0.00     0.028 C 
ATOM     10  C   LIG d   1      -1.125  95.091 118.242  0.00  0.00     0.006 C 
ENDBRANCH   8   9
BRANCH   8  11
ATOM     11  C   LIG d   1       0.059  92.114 119.847  0.00  0.00     0.028 C 
ATOM     12  C   LIG d   1       1.099  92.247 118.722  0.00  0.00     0.006 C 
ENDBRANCH   8  11
ENDBRANCH   7   8
ENDBRANCH   1   7
BRANCH   6  13
ATOM     13  N   LIG d   1      -1.839  90.177 117.137  0.00  0.00    -0.311 N 
ATOM     14  C   LIG d   1      -1.070  89.273 117.742  0.00  0.00     0.210 C 
ATOM     15  C   LIG d   1       0.277  89.012 117.062  0.00  0.00     0.109 C 
ATOM     16  O   LIG d   1      -1.390  88.640 118.759  0.00  0.00    -0.276 OA
ATOM     17  H   LIG d   1      -1.515  90.619 116.299  0.00  0.00     0.149 HD
ENDBRANCH   6  13
BRANCH   5  18
ATOM     18  N   LIG d   1      -4.505  89.093 116.110  0.00  0.00     0.381 N 
ATOM     19  H   LIG d   1      -4.398  88.463 116.879  0.00  0.00    -0.090 HD
ATOM     20  H   LIG d   1      -3.819  88.861 115.414  0.00  0.00    -0.090 HD
ATOM     21  H   LIG d   1      -5.420  89.008 115.726  0.00  0.00    -0.090 HD
ENDBRANCH   5  18
BRANCH   3  22
ATOM     22  C   LIG d   1      -6.582  93.102 117.710  0.00  0.00     0.382 C 
ATOM     23  O   LIG d   1      -6.462  94.309 118.028  0.00  0.00    -0.241 OA
ATOM     24  O   LIG d   1      -7.708  92.651 117.424  0.00  0.00    -0.241 OA
ENDBRANCH   3  22
TORSDOF 7
ENDMDL
MODEL 6
REMARK VINA RESULT:      -4.4      2.606      6.123
REMARK  7 active torsions:
REMARK  status: ('A' for Active; 'I' for Inactive)
REMARK    1  A    between atoms: C_2  and  C_3 
REMARK    2  A    between atoms: C_3  and  O_6 
REMARK    3  A    between atoms: C_3  and  C_4 
REMARK    4  A    between atoms: C_7  and  O_6 
REMARK    5  A    between atoms: C_9  and  C_10 
REMARK    6  A    between atoms: N_15  and  C_14 
REMARK    7  A    between atoms: N_20  and  C_19 
REMARK       I    between atoms: C_22  and  N_20 
ROOT
ATOM      1  C   LIG d   1      -5.317  91.945 118.469  0.00  0.00     0.161 C 
ATOM      2  C   LIG d   1      -4.556  92.979 119.040  0.00  0.00     0.016 C 
ATOM      3  C   LIG d   1      -5.018  94.310 119.161  0.00  0.00     0.038 C 
ATOM      4  C   LIG d   1      -6.339  94.667 118.855  0.00  0.00     0.028 C 
ATOM      5  C   LIG d   1      -6.982  93.766 117.805  0.00  0.00    -0.047 C 
ATOM      6  C   LIG d   1      -6.802  92.291 118.231  0.00  0.00     0.091 C 
ENDROOT
BRANCH   1   7
ATOM      7  O   LIG d   1      -5.202  90.754 119.272  0.00  0.00    -0.368 OA
BRANCH   7   8
ATOM      8  C   LIG d   1      -4.470  89.653 118.679  0.00  0.00     0.119 C 
BRANCH   8   9
ATOM      9  C   LIG d   1      -3.279  89.338 119.604  0.00  0.00     0.028 C 
ATOM     10  C   LIG d   1      -2.389  88.212 119.051  0.00  0.00     0.006 C 
ENDBRANCH   8   9
BRANCH   8  11
ATOM     11  C   LIG d   1      -3.847  90.057 117.339  0.00  0.00     0.028 C 
ATOM     12  C   LIG d   1      -4.331  89.183 116.170  0.00  0.00     0.006 C 
ENDBRANCH   8  11
ENDBRANCH   7   8
ENDBRANCH   1   7
BRANCH   6  13
ATOM     13  N   LIG d   1      -7.328  91.340 117.218  0.00  0.00    -0.311 N 
ATOM     14  C   LIG d   1      -6.975  91.367 115.934  0.00  0.00     0.210 C 
ATOM     15  C   LIG d   1      -7.651  90.310 115.055  0.00  0.00     0.109 C 
ATOM     16  O   LIG d   1      -6.142  92.145 115.446  0.00  0.00    -0.276 OA
ATOM     17  H   LIG d   1      -7.987  90.655 117.534  0.00  0.00     0.149 HD
ENDBRANCH   6  13
BRANCH   5  18
ATOM     18  N   LIG d   1      -8.398  94.164 117.684  0.00  0.00     0.381 N 
ATOM     19  H   LIG d   1      -8.760  93.860 116.802  0.00  0.00    -0.090 HD
ATOM     20  H   LIG d   1      -8.458  95.166 117.721  0.00  0.00    -0.090 HD
ATOM     21  H   LIG d   1      -8.929  93.764 118.426  0.00  0.00    -0.090 HD
ENDBRANCH   5  18
BRANCH   3  22
ATOM     22  C   LIG d   1      -4.140  95.309 119.556  0.00  0.00     0.382 C 
ATOM     23  O   LIG d   1      -4.503  96.509 119.526  0.00  0.00    -0.241 OA
ATOM     24  O   LIG d   1      -2.976  95.028 119.898  0.00  0.00    -0.241 OA
ENDBRANCH   3  22
TORSDOF 7
ENDMDL
MODEL 7
REMARK VINA RESULT:      -4.3      2.218      4.843
REMARK  7 active torsions:
REMARK  status: ('A' for Active; 'I' for Inactive)
REMARK    1  A    between atoms: C_2  and  C_3 
REMARK    2  A    between atoms: C_3  and  O_6 
REMARK    3  A    between atoms: C_3  and  C_4 
REMARK    4  A    between atoms: C_7  and  O_6 
REMARK    5  A    between atoms: C_9  and  C_10 
REMARK    6  A    between atoms: N_15  and  C_14 
REMARK    7  A    between atoms: N_20  and  C_19 
REMARK       I    between atoms: C_22  and  N_20 
ROOT
ATOM      1  C   LIG d   1      -4.957  92.141 118.464  0.00  0.00     0.161 C 
ATOM      2  C   LIG d   1      -6.325  92.454 118.401  0.00  0.00     0.016 C 
ATOM      3  C   LIG d   1      -6.858  93.699 118.807  0.00  0.00     0.038 C 
ATOM      4  C   LIG d   1      -6.034  94.776 119.166  0.00  0.00     0.028 C 
ATOM      5  C   LIG d   1      -4.683  94.346 119.727  0.00  0.00    -0.047 C 
ATOM      6  C   LIG d   1      -4.031  93.342 118.749  0.00  0.00     0.091 C 
ENDROOT
BRANCH   1   7
ATOM      7  O   LIG d   1      -4.552  91.471 117.254  0.00  0.00    -0.368 OA
BRANCH   7   8
ATOM      8  C   LIG d   1      -4.570  90.023 117.290  0.00  0.00     0.119 C 
BRANCH   8   9
ATOM      9  C   LIG d   1      -3.144  89.550 117.630  0.00  0.00     0.028 C 
ATOM     10  C   LIG d   1      -3.133  88.418 118.671  0.00  0.00     0.006 C 
ENDBRANCH   8   9
BRANCH   8  11
ATOM     11  C   LIG d   1      -4.873  89.435 115.908  0.00  0.00     0.028 C 
ATOM     12  C   LIG d   1      -5.957  90.220 115.152  0.00  0.00     0.006 C 
ENDBRANCH   8  11
ENDBRANCH   7   8
ENDBRANCH   1   7
BRANCH   6  13
ATOM     13  N   LIG d   1      -2.743  92.806 119.262  0.00  0.00    -0.311 N 
ATOM     14  C   LIG d   1      -1.601  92.864 118.579  0.00  0.00     0.210 C 
ATOM     15  C   LIG d   1      -0.395  92.234 119.283  0.00  0.00     0.109 C 
ATOM     16  O   LIG d   1      -1.465  93.406 117.472  0.00  0.00    -0.276 OA
ATOM     17  H   LIG d   1      -2.756  92.377 120.166  0.00  0.00     0.149 HD
ENDBRANCH   6  13
BRANCH   5  18
ATOM     18  N   LIG d   1      -3.876  95.563 119.929  0.00  0.00     0.381 N 
ATOM     19  H   LIG d   1      -4.249  96.312 119.381  0.00  0.00    -0.090 HD
ATOM     20  H   LIG d   1      -2.936  95.385 119.622  0.00  0.00    -0.090 HD
ATOM     21  H   LIG d   1      -3.876  95.816 120.893  0.00  0.00    -0.090 HD
ENDBRANCH   5  18
BRANCH   3  22
ATOM     22  C   LIG d   1      -8.232  93.862 118.895  0.00  0.00     0.382 C 
ATOM     23  O   LIG d   1      -8.863  94.390 117.948  0.00  0.00    -0.241 OA
ATOM     24  O   LIG d   1      -8.843  93.529 119.928  0.00  0.00    -0.241 OA
ENDBRANCH   3  22
TORSDOF 7
ENDMDL
MODEL 8
REMARK VINA RESULT:      -4.3      8.886     11.261
REMARK  7 active torsions:
REMARK  status: ('A' for Active; 'I' for Inactive)
REMARK    1  A    between atoms: C_2  and  C_3 
REMARK    2  A    between atoms: C_3  and  O_6 
REMARK    3  A    between atoms: C_3  and  C_4 
REMARK    4  A    between atoms: C_7  and  O_6 
REMARK    5  A    between atoms: C_9  and  C_10 
REMARK    6  A    between atoms: N_15  and  C_14 
REMARK    7  A    between atoms: N_20  and  C_19 
REMARK       I    between atoms: C_22  and  N_20 
ROOT
ATOM      1  C   LIG d   1       4.954  89.779 115.270  0.00  0.00     0.161 C 
ATOM      2  C   LIG d   1       4.101  88.858 114.639  0.00  0.00     0.016 C 
ATOM      3  C   LIG d   1       4.263  87.456 114.734  0.00  0.00     0.038 C 
ATOM      4  C   LIG d   1       5.206  86.875 115.595  0.00  0.00     0.028 C 
ATOM      5  C   LIG d   1       6.415  87.767 115.860  0.00  0.00    -0.047 C 
ATOM      6  C   LIG d   1       5.921  89.163 116.303  0.00  0.00     0.091 C 
ENDROOT
BRANCH   1   7
ATOM      7  O   LIG d   1       4.176  90.829 115.876  0.00  0.00    -0.368 OA
BRANCH   7   8
ATOM      8  C   LIG d   1       3.408  90.459 117.048  0.00  0.00     0.119 C 
BRANCH   8   9
ATOM      9  C   LIG d   1       1.959  90.932 116.820  0.00  0.00     0.028 C 
ATOM     10  C   LIG d   1       1.031  89.788 116.377  0.00  0.00     0.006 C 
ENDBRANCH   8   9
BRANCH   8  11
ATOM     11  C   LIG d   1       3.890  91.213 118.291  0.00  0.00     0.028 C 
ATOM     12  C   LIG d   1       4.630  92.515 117.949  0.00  0.00     0.006 C 
ENDBRANCH   8  11
ENDBRANCH   7   8
ENDBRANCH   1   7
BRANCH   6  13
ATOM     13  N   LIG d   1       7.038  90.123 116.502  0.00  0.00    -0.311 N 
ATOM     14  C   LIG d   1       7.610  90.347 117.684  0.00  0.00     0.210 C 
ATOM     15  C   LIG d   1       8.731  91.391 117.671  0.00  0.00     0.109 C 
ATOM     16  O   LIG d   1       7.317  89.758 118.735  0.00  0.00    -0.276 OA
ATOM     17  H   LIG d   1       7.359  90.622 115.696  0.00  0.00     0.149 HD
ENDBRANCH   6  13
BRANCH   5  18
ATOM     18  N   LIG d   1       7.247  87.098 116.878  0.00  0.00     0.381 N 
ATOM     19  H   LIG d   1       7.593  86.232 116.517  0.00  0.00    -0.090 HD
ATOM     20  H   LIG d   1       6.680  86.900 117.683  0.00  0.00    -0.090 HD
ATOM     21  H   LIG d   1       8.009  87.686 117.136  0.00  0.00    -0.090 HD
ENDBRANCH   5  18
BRANCH   3  22
ATOM     22  C   LIG d   1       3.502  86.621 113.930  0.00  0.00     0.382 C 
ATOM     23  O   LIG d   1       4.057  85.929 113.043  0.00  0.00    -0.241 OA
ATOM     24  O   LIG d   1       2.263  86.584 114.052  0.00  0.00    -0.241 OA
ENDBRANCH   3  22
TORSDOF 7
ENDMDL
MODEL 9
REMARK VINA RESULT:      -4.2      2.489      4.395
REMARK  7 active torsions:
REMARK  status: ('A' for Active; 'I' for Inactive)
REMARK    1  A    between atoms: C_2  and  C_3 
REMARK    2  A    between atoms: C_3  and  O_6 
REMARK    3  A    between atoms: C_3  and  C_4 
REMARK    4  A    between atoms: C_7  and  O_6 
REMARK    5  A    between atoms: C_9  and  C_10 
REMARK    6  A    between atoms: N_15  and  C_14 
REMARK    7  A    between atoms: N_20  and  C_19 
REMARK       I    between atoms: C_22  and  N_20 
ROOT
ATOM      1  C   LIG d   1      -5.677  91.868 119.214  0.00  0.00     0.161 C 
ATOM      2  C   LIG d   1      -4.600  91.049 118.837  0.00  0.00     0.016 C 
ATOM      3  C   LIG d   1      -4.483  90.455 117.559  0.00  0.00     0.038 C 
ATOM      4  C   LIG d   1      -5.367  90.766 116.514  0.00  0.00     0.028 C 
ATOM      5  C   LIG d   1      -6.750  91.189 116.996  0.00  0.00    -0.047 C 
ATOM      6  C   LIG d   1      -6.593  92.307 118.052  0.00  0.00     0.091 C 
ENDROOT
BRANCH   1   7
ATOM      7  O   LIG d   1      -5.188  93.019 119.930  0.00  0.00    -0.368 OA
BRANCH   7   8
ATOM      8  C   LIG d   1      -4.480  94.007 119.141  0.00  0.00     0.119 C 
BRANCH   8   9
ATOM      9  C   LIG d   1      -3.001  93.971 119.573  0.00  0.00     0.028 C 
ATOM     10  C   LIG d   1      -2.076  93.458 118.457  0.00  0.00     0.006 C 
ENDBRANCH   8   9
BRANCH   8  11
ATOM     11  C   LIG d   1      -4.962  95.425 119.460  0.00  0.00     0.028 C 
ATOM     12  C   LIG d   1      -3.893  96.494 119.183  0.00  0.00     0.006 C 
ENDBRANCH   8  11
ENDBRANCH   7   8
ENDBRANCH   1   7
BRANCH   6  13
ATOM     13  N   LIG d   1      -7.895  92.721 118.638  0.00  0.00    -0.311 N 
ATOM     14  C   LIG d   1      -8.369  93.963 118.567  0.00  0.00     0.210 C 
ATOM     15  C   LIG d   1      -9.721  94.180 119.254  0.00  0.00     0.109 C 
ATOM     16  O   LIG d   1      -7.813  94.899 117.972  0.00  0.00    -0.276 OA
ATOM     17  H   LIG d   1      -8.426  92.017 119.112  0.00  0.00     0.149 HD
ENDBRANCH   6  13
BRANCH   5  18
ATOM     18  N   LIG d   1      -7.523  91.615 115.814  0.00  0.00     0.381 N 
ATOM     19  H   LIG d   1      -8.355  92.088 116.106  0.00  0.00    -0.090 HD
ATOM     20  H   LIG d   1      -7.791  90.800 115.291  0.00  0.00    -0.090 HD
ATOM     21  H   LIG d   1      -6.971  92.218 115.245  0.00  0.00    -0.090 HD
ENDBRANCH   5  18
BRANCH   3  22
ATOM     22  C   LIG d   1      -3.496  89.509 117.328  0.00  0.00     0.382 C 
ATOM     23  O   LIG d   1      -3.813  88.336 117.015  0.00  0.00    -0.241 OA
ATOM     24  O   LIG d   1      -2.294  89.803 117.471  0.00  0.00    -0.241 OA
ENDBRANCH   3  22
TORSDOF 7
ENDMDL
