MODEL 1
REMARK VINA RESULT:      -5.8      0.000      0.000
REMARK  7 active torsions:
REMARK  status: ('A' for Active; 'I' for Inactive)
REMARK    1  A    between atoms: C_2  and  C_3 
REMARK    2  A    between atoms: C_3  and  O_6 
REMARK    3  A    between atoms: C_3  and  C_4 
REMARK    4  A    between atoms: C_7  and  O_6 
REMARK    5  A    between atoms: C_9  and  C_10 
REMARK    6  A    between atoms: N_15  and  C_14 
REMARK    7  A    between atoms: N_20  and  C_19 
REMARK       I    between atoms: C_22  and  N_20 
ROOT
ATOM      1  C   LIG d   1      -4.524  91.429 117.355  0.00  0.00     0.161 C 
ATOM      2  C   LIG d   1      -3.546  92.262 117.923  0.00  0.00     0.016 C 
ATOM      3  C   LIG d   1      -3.850  93.360 118.761  0.00  0.00     0.038 C 
ATOM      4  C   LIG d   1      -5.155  93.608 119.213  0.00  0.00     0.028 C 
ATOM      5  C   LIG d   1      -6.233  93.098 118.263  0.00  0.00    -0.047 C 
ATOM      6  C   LIG d   1      -5.945  91.617 117.926  0.00  0.00     0.091 C 
ENDROOT
BRANCH   1   7
ATOM      7  O   LIG d   1      -4.117  90.051 117.468  0.00  0.00    -0.368 OA
BRANCH   7   8
ATOM      8  C   LIG d   1      -2.794  89.819 118.011  0.00  0.00     0.119 C 
BRANCH   8   9
ATOM      9  C   LIG d   1      -2.000  89.010 116.968  0.00  0.00     0.028 C 
ATOM     10  C   LIG d   1      -0.695  89.709 116.551  0.00  0.00     0.006 C 
ENDBRANCH   8   9
BRANCH   8  11
ATOM     11  C   LIG d   1      -2.851  88.930 119.257  0.00  0.00     0.028 C 
ATOM     12  C   LIG d   1      -1.771  87.837 119.258  0.00  0.00     0.006 C 
ENDBRANCH   8  11
ENDBRANCH   7   8
ENDBRANCH   1   7
BRANCH   6  13
ATOM     13  N   LIG d   1      -6.905  91.064 116.936  0.00  0.00    -0.311 N 
ATOM     14  C   LIG d   1      -6.915  91.412 115.650  0.00  0.00     0.210 C 
ATOM     15  C   LIG d   1      -8.000  90.738 114.806  0.00  0.00     0.109 C 
ATOM     16  O   LIG d   1      -6.107  92.192 115.123  0.00  0.00    -0.276 OA
ATOM     17  H   LIG d   1      -7.576  90.401 117.272  0.00  0.00     0.149 HD
ENDBRANCH   6  13
BRANCH   5  18
ATOM     18  N   LIG d   1      -7.538  93.298 118.920  0.00  0.00     0.381 N 
ATOM     19  H   LIG d   1      -7.433  93.221 119.912  0.00  0.00    -0.090 HD
ATOM     20  H   LIG d   1      -8.170  92.580 118.614  0.00  0.00    -0.090 HD
ATOM     21  H   LIG d   1      -7.903  94.195 118.686  0.00  0.00    -0.090 HD
ENDBRANCH   5  18
BRANCH   3  22
ATOM     22  C   LIG d   1      -2.848  94.246 119.123  0.00  0.00     0.382 C 
ATOM     23  O   LIG d   1      -3.140  95.419 119.461  0.00  0.00    -0.241 OA
ATOM     24  O   LIG d   1      -1.652  93.902 119.073  0.00  0.00    -0.241 OA
ENDBRANCH   3  22
TORSDOF 7
ENDMDL
MODEL 2
REMARK VINA RESULT:      -5.8      1.725      4.660
REMARK  7 active torsions:
REMARK  status: ('A' for Active; 'I' for Inactive)
REMARK    1  A    between atoms: C_2  and  C_3 
REMARK    2  A    between atoms: C_3  and  O_6 
REMARK    3  A    between atoms: C_3  and  C_4 
REMARK    4  A    between atoms: C_7  and  O_6 
REMARK    5  A    between atoms: C_9  and  C_10 
REMARK    6  A    between atoms: N_15  and  C_14 
REMARK    7  A    between atoms: N_20  and  C_19 
REMARK       I    between atoms: C_22  and  N_20 
ROOT
ATOM      1  C   LIG d   1      -4.357  90.710 117.129  0.00  0.00     0.161 C 
ATOM      2  C   LIG d   1      -5.410  90.207 116.346  0.00  0.00     0.016 C 
ATOM      3  C   LIG d   1      -6.603  90.924 116.094  0.00  0.00     0.038 C 
ATOM      4  C   LIG d   1      -6.761  92.262 116.485  0.00  0.00     0.028 C 
ATOM      5  C   LIG d   1      -5.932  92.637 117.709  0.00  0.00    -0.047 C 
ATOM      6  C   LIG d   1      -4.465  92.210 117.472  0.00  0.00     0.091 C 
ENDROOT
BRANCH   1   7
ATOM      7  O   LIG d   1      -3.097  90.431 116.489  0.00  0.00    -0.368 OA
BRANCH   7   8
ATOM      8  C   LIG d   1      -2.360  89.292 116.999  0.00  0.00     0.119 C 
BRANCH   8   9
ATOM      9  C   LIG d   1      -2.407  89.362 118.538  0.00  0.00     0.028 C 
ATOM     10  C   LIG d   1      -2.028  88.026 119.198  0.00  0.00     0.006 C 
ENDBRANCH   8   9
BRANCH   8  11
ATOM     11  C   LIG d   1      -0.876  89.380 116.634  0.00  0.00     0.028 C 
ATOM     12  C   LIG d   1      -0.157  90.543 117.336  0.00  0.00     0.006 C 
ENDBRANCH   8  11
ENDBRANCH   7   8
ENDBRANCH   1   7
BRANCH   6  13
ATOM     13  N   LIG d   1      -3.603  92.464 118.655  0.00  0.00    -0.311 N 
ATOM     14  C   LIG d   1      -2.463  93.152 118.598  0.00  0.00     0.210 C 
ATOM     15  C   LIG d   1      -1.718  93.281 119.930  0.00  0.00     0.109 C 
ATOM     16  O   LIG d   1      -2.016  93.696 117.576  0.00  0.00    -0.276 OA
ATOM     17  H   LIG d   1      -3.906  92.086 119.531  0.00  0.00     0.149 HD
ENDBRANCH   6  13
BRANCH   5  18
ATOM     18  N   LIG d   1      -6.084  94.088 117.923  0.00  0.00     0.381 N 
ATOM     19  H   LIG d   1      -6.915  94.412 117.468  0.00  0.00    -0.090 HD
ATOM     20  H   LIG d   1      -5.297  94.561 117.516  0.00  0.00    -0.090 HD
ATOM     21  H   LIG d   1      -6.133  94.286 118.898  0.00  0.00    -0.090 HD
ENDBRANCH   5  18
BRANCH   3  22
ATOM     22  C   LIG d   1      -7.669  90.288 115.477  0.00  0.00     0.382 C 
ATOM     23  O   LIG d   1      -8.348  90.896 114.615  0.00  0.00    -0.241 OA
ATOM     24  O   LIG d   1      -7.988  89.129 115.803  0.00  0.00    -0.241 OA
ENDBRANCH   3  22
TORSDOF 7
ENDMDL
MODEL 3
REMARK VINA RESULT:      -5.3      4.699      7.505
REMARK  7 active torsions:
REMARK  status: ('A' for Active; 'I' for Inactive)
REMARK    1  A    between atoms: C_2  and  C_3 
REMARK    2  A    between atoms: C_3  and  O_6 
REMARK    3  A    between atoms: C_3  and  C_4 
REMARK    4  A    between atoms: C_7  and  O_6 
REMARK    5  A    between atoms: C_9  and  C_10 
REMARK    6  A    between atoms: N_15  and  C_14 
REMARK    7  A    between atoms: N_20  and  C_19 
REMARK       I    between atoms: C_22  and  N_20 
ROOT
ATOM      1  C   LIG d   1       0.762  88.686 116.549  0.00  0.00     0.161 C 
ATOM      2  C   LIG d   1      -0.642  88.646 116.571  0.00  0.00     0.016 C 
ATOM      3  C   LIG d   1      -1.438  89.614 117.224  0.00  0.00     0.038 C 
ATOM      4  C   LIG d   1      -0.885  90.779 117.776  0.00  0.00     0.028 C 
ATOM      5  C   LIG d   1       0.565  90.610 118.219  0.00  0.00    -0.047 C 
ATOM      6  C   LIG d   1       1.379  90.008 117.051  0.00  0.00     0.091 C 
ENDROOT
BRANCH   1   7
ATOM      7  O   LIG d   1       1.239  88.381 115.224  0.00  0.00    -0.368 OA
BRANCH   7   8
ATOM      8  C   LIG d   1       2.294  87.392 115.138  0.00  0.00     0.119 C 
BRANCH   8   9
ATOM      9  C   LIG d   1       3.107  87.692 113.864  0.00  0.00     0.028 C 
ATOM     10  C   LIG d   1       4.077  88.871 114.050  0.00  0.00     0.006 C 
ENDBRANCH   8   9
BRANCH   8  11
ATOM     11  C   LIG d   1       1.724  85.985 114.933  0.00  0.00     0.028 C 
ATOM     12  C   LIG d   1       1.329  85.709 113.474  0.00  0.00     0.006 C 
ENDBRANCH   8  11
ENDBRANCH   7   8
ENDBRANCH   1   7
BRANCH   6  13
ATOM     13  N   LIG d   1       2.790  89.732 117.426  0.00  0.00    -0.311 N 
ATOM     14  C   LIG d   1       3.788  90.586 117.205  0.00  0.00     0.210 C 
ATOM     15  C   LIG d   1       5.169  90.096 117.652  0.00  0.00     0.109 C 
ATOM     16  O   LIG d   1       3.656  91.715 116.711  0.00  0.00    -0.276 OA
ATOM     17  H   LIG d   1       2.982  88.851 117.861  0.00  0.00     0.149 HD
ENDBRANCH   6  13
BRANCH   5  18
ATOM     18  N   LIG d   1       1.058  91.933 118.645  0.00  0.00     0.381 N 
ATOM     19  H   LIG d   1       1.910  91.828 119.159  0.00  0.00    -0.090 HD
ATOM     20  H   LIG d   1       0.375  92.355 119.251  0.00  0.00    -0.090 HD
ATOM     21  H   LIG d   1       1.210  92.513 117.850  0.00  0.00    -0.090 HD
ENDBRANCH   5  18
BRANCH   3  22
ATOM     22  C   LIG d   1      -2.801  89.402 117.365  0.00  0.00     0.382 C 
ATOM     23  O   LIG d   1      -3.277  89.109 118.489  0.00  0.00    -0.241 OA
ATOM     24  O   LIG d   1      -3.555  89.455 116.375  0.00  0.00    -0.241 OA
ENDBRANCH   3  22
TORSDOF 7
ENDMDL
MODEL 4
REMARK VINA RESULT:      -5.3      1.988      4.713
REMARK  7 active torsions:
REMARK  status: ('A' for Active; 'I' for Inactive)
REMARK    1  A    between atoms: C_2  and  C_3 
REMARK    2  A    between atoms: C_3  and  O_6 
REMARK    3  A    between atoms: C_3  and  C_4 
REMARK    4  A    between atoms: C_7  and  O_6 
REMARK    5  A    between atoms: C_9  and  C_10 
REMARK    6  A    between atoms: N_15  and  C_14 
REMARK    7  A    between atoms: N_20  and  C_19 
REMARK       I    between atoms: C_22  and  N_20 
ROOT
ATOM      1  C   LIG d   1      -4.925  91.960 118.305  0.00  0.00     0.161 C 
ATOM      2  C   LIG d   1      -3.734  91.876 119.044  0.00  0.00     0.016 C 
ATOM      3  C   LIG d   1      -2.642  91.059 118.670  0.00  0.00     0.038 C 
ATOM      4  C   LIG d   1      -2.610  90.381 117.443  0.00  0.00     0.028 C 
ATOM      5  C   LIG d   1      -3.995  90.036 116.905  0.00  0.00    -0.047 C 
ATOM      6  C   LIG d   1      -4.866  91.314 116.906  0.00  0.00     0.091 C 
ENDROOT
BRANCH   1   7
ATOM      7  O   LIG d   1      -5.341  93.337 118.204  0.00  0.00    -0.368 OA
BRANCH   7   8
ATOM      8  C   LIG d   1      -5.633  94.008 119.454  0.00  0.00     0.119 C 
BRANCH   8   9
ATOM      9  C   LIG d   1      -6.991  94.719 119.292  0.00  0.00     0.028 C 
ATOM     10  C   LIG d   1      -7.799  94.177 118.101  0.00  0.00     0.006 C 
ENDBRANCH   8   9
BRANCH   8  11
ATOM     11  C   LIG d   1      -4.622  95.123 119.737  0.00  0.00     0.028 C 
ATOM     12  C   LIG d   1      -5.236  96.527 119.621  0.00  0.00     0.006 C 
ENDBRANCH   8  11
ENDBRANCH   7   8
ENDBRANCH   1   7
BRANCH   6  13
ATOM     13  N   LIG d   1      -6.262  91.048 116.473  0.00  0.00    -0.311 N 
ATOM     14  C   LIG d   1      -6.755  91.447 115.302  0.00  0.00     0.210 C 
ATOM     15  C   LIG d   1      -8.225  91.087 115.062  0.00  0.00     0.109 C 
ATOM     16  O   LIG d   1      -6.106  92.037 114.425  0.00  0.00    -0.276 OA
ATOM     17  H   LIG d   1      -6.850  90.547 117.110  0.00  0.00     0.149 HD
ENDBRANCH   6  13
BRANCH   5  18
ATOM     18  N   LIG d   1      -3.819  89.457 115.559  0.00  0.00     0.381 N 
ATOM     19  H   LIG d   1      -4.020  90.148 114.864  0.00  0.00    -0.090 HD
ATOM     20  H   LIG d   1      -4.467  88.698 115.445  0.00  0.00    -0.090 HD
ATOM     21  H   LIG d   1      -2.886  89.127 115.450  0.00  0.00    -0.090 HD
ENDBRANCH   5  18
BRANCH   3  22
ATOM     22  C   LIG d   1      -1.584  90.882 119.548  0.00  0.00     0.382 C 
ATOM     23  O   LIG d   1      -0.913  91.872 119.929  0.00  0.00    -0.241 OA
ATOM     24  O   LIG d   1      -1.263  89.740 119.929  0.00  0.00    -0.241 OA
ENDBRANCH   3  22
TORSDOF 7
ENDMDL
MODEL 5
REMARK VINA RESULT:      -5.3      2.604      4.788
REMARK  7 active torsions:
REMARK  status: ('A' for Active; 'I' for Inactive)
REMARK    1  A    between atoms: C_2  and  C_3 
REMARK    2  A    between atoms: C_3  and  O_6 
REMARK    3  A    between atoms: C_3  and  C_4 
REMARK    4  A    between atoms: C_7  and  O_6 
REMARK    5  A    between atoms: C_9  and  C_10 
REMARK    6  A    between atoms: N_15  and  C_14 
REMARK    7  A    between atoms: N_20  and  C_19 
REMARK       I    between atoms: C_22  and  N_20 
ROOT
ATOM      1  C   LIG d   1      -3.527  91.064 118.718  0.00  0.00     0.161 C 
ATOM      2  C   LIG d   1      -4.034  92.337 119.026  0.00  0.00     0.016 C 
ATOM      3  C   LIG d   1      -3.277  93.526 118.907  0.00  0.00     0.038 C 
ATOM      4  C   LIG d   1      -2.001  93.536 118.324  0.00  0.00     0.028 C 
ATOM      5  C   LIG d   1      -1.259  92.212 118.466  0.00  0.00    -0.047 C 
ATOM      6  C   LIG d   1      -2.175  91.068 117.975  0.00  0.00     0.091 C 
ENDROOT
BRANCH   1   7
ATOM      7  O   LIG d   1      -4.507  90.316 117.971  0.00  0.00    -0.368 OA
BRANCH   7   8
ATOM      8  C   LIG d   1      -4.941  90.905 116.721  0.00  0.00     0.119 C 
BRANCH   8   9
ATOM      9  C   LIG d   1      -6.460  91.146 116.825  0.00  0.00     0.028 C 
ATOM     10  C   LIG d   1      -6.811  92.638 116.948  0.00  0.00     0.006 C 
ENDBRANCH   8   9
BRANCH   8  11
ATOM     11  C   LIG d   1      -4.764  89.930 115.553  0.00  0.00     0.028 C 
ATOM     12  C   LIG d   1      -5.969  89.918 114.599  0.00  0.00     0.006 C 
ENDBRANCH   8  11
ENDBRANCH   7   8
ENDBRANCH   1   7
BRANCH   6  13
ATOM     13  N   LIG d   1      -1.557  89.729 118.158  0.00  0.00    -0.311 N 
ATOM     14  C   LIG d   1      -0.799  89.139 117.236  0.00  0.00     0.210 C 
ATOM     15  C   LIG d   1      -0.277  87.750 117.619  0.00  0.00     0.109 C 
ATOM     16  O   LIG d   1      -0.482  89.647 116.150  0.00  0.00    -0.276 OA
ATOM     17  H   LIG d   1      -1.736  89.258 119.024  0.00  0.00     0.149 HD
ENDBRANCH   6  13
BRANCH   5  18
ATOM     18  N   LIG d   1      -0.005  92.319 117.696  0.00  0.00     0.381 N 
ATOM     19  H   LIG d   1      -0.046  93.114 117.090  0.00  0.00    -0.090 HD
ATOM     20  H   LIG d   1       0.101  91.496 117.130  0.00  0.00    -0.090 HD
ATOM     21  H   LIG d   1       0.770  92.406 118.317  0.00  0.00    -0.090 HD
ENDBRANCH   5  18
BRANCH   3  22
ATOM     22  C   LIG d   1      -3.781  94.715 119.411  0.00  0.00     0.382 C 
ATOM     23  O   LIG d   1      -5.007  94.824 119.651  0.00  0.00    -0.241 OA
ATOM     24  O   LIG d   1      -3.031  95.694 119.587  0.00  0.00    -0.241 OA
ENDBRANCH   3  22
TORSDOF 7
ENDMDL
MODEL 6
REMARK VINA RESULT:      -5.3      2.537      6.209
REMARK  7 active torsions:
REMARK  status: ('A' for Active; 'I' for Inactive)
REMARK    1  A    between atoms: C_2  and  C_3 
REMARK    2  A    between atoms: C_3  and  O_6 
REMARK    3  A    between atoms: C_3  and  C_4 
REMARK    4  A    between atoms: C_7  and  O_6 
REMARK    5  A    between atoms: C_9  and  C_10 
REMARK    6  A    between atoms: N_15  and  C_14 
REMARK    7  A    between atoms: N_20  and  C_19 
REMARK       I    between atoms: C_22  and  N_20 
ROOT
ATOM      1  C   LIG d   1      -5.734  92.638 118.024  0.00  0.00     0.161 C 
ATOM      2  C   LIG d   1      -6.514  92.491 116.865  0.00  0.00     0.016 C 
ATOM      3  C   LIG d   1      -6.230  91.547 115.851  0.00  0.00     0.038 C 
ATOM      4  C   LIG d   1      -5.227  90.577 116.000  0.00  0.00     0.028 C 
ATOM      5  C   LIG d   1      -4.096  91.013 116.926  0.00  0.00    -0.047 C 
ATOM      6  C   LIG d   1      -4.702  91.514 118.257  0.00  0.00     0.091 C 
ENDROOT
BRANCH   1   7
ATOM      7  O   LIG d   1      -6.591  92.777 119.175  0.00  0.00    -0.368 OA
BRANCH   7   8
ATOM      8  C   LIG d   1      -6.754  94.122 119.689  0.00  0.00     0.119 C 
BRANCH   8   9
ATOM      9  C   LIG d   1      -8.045  94.698 119.075  0.00  0.00     0.028 C 
ATOM     10  C   LIG d   1      -9.289  94.387 119.924  0.00  0.00     0.006 C 
ENDBRANCH   8   9
BRANCH   8  11
ATOM     11  C   LIG d   1      -5.629  95.043 119.208  0.00  0.00     0.028 C 
ATOM     12  C   LIG d   1      -5.627  96.404 119.922  0.00  0.00     0.006 C 
ENDBRANCH   8  11
ENDBRANCH   7   8
ENDBRANCH   1   7
BRANCH   6  13
ATOM     13  N   LIG d   1      -3.669  92.038 119.188  0.00  0.00    -0.311 N 
ATOM     14  C   LIG d   1      -2.707  92.880 118.817  0.00  0.00     0.210 C 
ATOM     15  C   LIG d   1      -1.733  93.281 119.930  0.00  0.00     0.109 C 
ATOM     16  O   LIG d   1      -2.586  93.359 117.679  0.00  0.00    -0.276 OA
ATOM     17  H   LIG d   1      -3.711  91.725 120.139  0.00  0.00     0.149 HD
ENDBRANCH   6  13
BRANCH   5  18
ATOM     18  N   LIG d   1      -3.194  89.859 117.100  0.00  0.00     0.381 N 
ATOM     19  H   LIG d   1      -3.424  89.374 117.944  0.00  0.00    -0.090 HD
ATOM     20  H   LIG d   1      -2.249  90.194 117.176  0.00  0.00    -0.090 HD
ATOM     21  H   LIG d   1      -3.274  89.243 116.322  0.00  0.00    -0.090 HD
ENDBRANCH   5  18
BRANCH   3  22
ATOM     22  C   LIG d   1      -6.928  91.594 114.654  0.00  0.00     0.382 C 
ATOM     23  O   LIG d   1      -6.419  92.153 113.653  0.00  0.00    -0.241 OA
ATOM     24  O   LIG d   1      -8.079  91.123 114.575  0.00  0.00    -0.241 OA
ENDBRANCH   3  22
TORSDOF 7
ENDMDL
MODEL 7
REMARK VINA RESULT:      -5.2      2.573      4.583
REMARK  7 active torsions:
REMARK  status: ('A' for Active; 'I' for Inactive)
REMARK    1  A    between atoms: C_2  and  C_3 
REMARK    2  A    between atoms: C_3  and  O_6 
REMARK    3  A    between atoms: C_3  and  C_4 
REMARK    4  A    between atoms: C_7  and  O_6 
REMARK    5  A    between atoms: C_9  and  C_10 
REMARK    6  A    between atoms: N_15  and  C_14 
REMARK    7  A    between atoms: N_20  and  C_19 
REMARK       I    between atoms: C_22  and  N_20 
ROOT
ATOM      1  C   LIG d   1      -5.255  91.848 119.053  0.00  0.00     0.161 C 
ATOM      2  C   LIG d   1      -6.573  92.308 118.897  0.00  0.00     0.016 C 
ATOM      3  C   LIG d   1      -6.910  93.674 118.762  0.00  0.00     0.038 C 
ATOM      4  C   LIG d   1      -5.931  94.669 118.622  0.00  0.00     0.028 C 
ATOM      5  C   LIG d   1      -4.603  94.308 119.279  0.00  0.00    -0.047 C 
ATOM      6  C   LIG d   1      -4.165  92.908 118.791  0.00  0.00     0.091 C 
ENDROOT
BRANCH   1   7
ATOM      7  O   LIG d   1      -5.039  90.691 118.220  0.00  0.00    -0.368 OA
BRANCH   7   8
ATOM      8  C   LIG d   1      -4.423  90.939 116.933  0.00  0.00     0.119 C 
BRANCH   8   9
ATOM      9  C   LIG d   1      -5.468  90.612 115.848  0.00  0.00     0.028 C 
ATOM     10  C   LIG d   1      -6.228  91.861 115.371  0.00  0.00     0.006 C 
ENDBRANCH   8   9
BRANCH   8  11
ATOM     11  C   LIG d   1      -3.259  89.976 116.678  0.00  0.00     0.028 C 
ATOM     12  C   LIG d   1      -2.821  89.223 117.944  0.00  0.00     0.006 C 
ENDBRANCH   8  11
ENDBRANCH   7   8
ENDBRANCH   1   7
BRANCH   6  13
ATOM     13  N   LIG d   1      -2.917  92.443 119.449  0.00  0.00    -0.311 N 
ATOM     14  C   LIG d   1      -1.706  92.598 118.918  0.00  0.00     0.210 C 
ATOM     15  C   LIG d   1      -0.555  92.027 119.753  0.00  0.00     0.109 C 
ATOM     16  O   LIG d   1      -1.472  93.183 117.849  0.00  0.00    -0.276 OA
ATOM     17  H   LIG d   1      -3.012  91.985 120.335  0.00  0.00     0.149 HD
ENDBRANCH   6  13
BRANCH   5  18
ATOM     18  N   LIG d   1      -3.635  95.368 118.938  0.00  0.00     0.381 N 
ATOM     19  H   LIG d   1      -2.975  95.476 119.683  0.00  0.00    -0.090 HD
ATOM     20  H   LIG d   1      -4.129  96.236 118.827  0.00  0.00    -0.090 HD
ATOM     21  H   LIG d   1      -3.159  95.137 118.094  0.00  0.00    -0.090 HD
ENDBRANCH   5  18
BRANCH   3  22
ATOM     22  C   LIG d   1      -8.241  94.062 118.807  0.00  0.00     0.382 C 
ATOM     23  O   LIG d   1      -8.794  94.524 117.780  0.00  0.00    -0.241 OA
ATOM     24  O   LIG d   1      -8.882  93.997 119.873  0.00  0.00    -0.241 OA
ENDBRANCH   3  22
TORSDOF 7
ENDMDL
MODEL 8
REMARK VINA RESULT:      -5.1      3.651      5.242
REMARK  7 active torsions:
REMARK  status: ('A' for Active; 'I' for Inactive)
REMARK    1  A    between atoms: C_2  and  C_3 
REMARK    2  A    between atoms: C_3  and  O_6 
REMARK    3  A    between atoms: C_3  and  C_4 
REMARK    4  A    between atoms: C_7  and  O_6 
REMARK    5  A    between atoms: C_9  and  C_10 
REMARK    6  A    between atoms: N_15  and  C_14 
REMARK    7  A    between atoms: N_20  and  C_19 
REMARK       I    between atoms: C_22  and  N_20 
ROOT
ATOM      1  C   LIG d   1      -0.038  90.325 116.574  0.00  0.00     0.161 C 
ATOM      2  C   LIG d   1       1.339  90.492 116.797  0.00  0.00     0.016 C 
ATOM      3  C   LIG d   1       1.867  91.254 117.865  0.00  0.00     0.038 C 
ATOM      4  C   LIG d   1       1.050  91.780 118.876  0.00  0.00     0.028 C 
ATOM      5  C   LIG d   1      -0.377  92.063 118.416  0.00  0.00    -0.047 C 
ATOM      6  C   LIG d   1      -0.943  90.799 117.731  0.00  0.00     0.091 C 
ENDROOT
BRANCH   1   7
ATOM      7  O   LIG d   1      -0.318  88.948 116.251  0.00  0.00    -0.368 OA
BRANCH   7   8
ATOM      8  C   LIG d   1       0.608  87.969 116.784  0.00  0.00     0.119 C 
BRANCH   8   9
ATOM      9  C   LIG d   1       0.907  86.957 115.660  0.00  0.00     0.028 C 
ATOM     10  C   LIG d   1       2.414  86.697 115.491  0.00  0.00     0.006 C 
ENDBRANCH   8   9
BRANCH   8  11
ATOM     11  C   LIG d   1      -0.033  87.149 117.907  0.00  0.00     0.028 C 
ATOM     12  C   LIG d   1       0.406  87.609 119.306  0.00  0.00     0.006 C 
ENDBRANCH   8  11
ENDBRANCH   7   8
ENDBRANCH   1   7
BRANCH   6  13
ATOM     13  N   LIG d   1      -2.305  91.017 117.176  0.00  0.00    -0.311 N 
ATOM     14  C   LIG d   1      -3.349  90.244 117.471  0.00  0.00     0.210 C 
ATOM     15  C   LIG d   1      -4.657  90.631 116.775  0.00  0.00     0.109 C 
ATOM     16  O   LIG d   1      -3.322  89.294 118.268  0.00  0.00    -0.276 OA
ATOM     17  H   LIG d   1      -2.423  91.785 116.545  0.00  0.00     0.149 HD
ENDBRANCH   6  13
BRANCH   5  18
ATOM     18  N   LIG d   1      -1.153  92.476 119.601  0.00  0.00     0.381 N 
ATOM     19  H   LIG d   1      -0.535  92.641 120.370  0.00  0.00    -0.090 HD
ATOM     20  H   LIG d   1      -1.780  91.733 119.854  0.00  0.00    -0.090 HD
ATOM     21  H   LIG d   1      -1.671  93.303 119.398  0.00  0.00    -0.090 HD
ENDBRANCH   5  18
BRANCH   3  22
ATOM     22  C   LIG d   1       3.225  91.530 117.905  0.00  0.00     0.382 C 
ATOM     23  O   LIG d   1       3.871  91.661 116.837  0.00  0.00    -0.241 OA
ATOM     24  O   LIG d   1       3.822  91.606 118.996  0.00  0.00    -0.241 OA
ENDBRANCH   3  22
TORSDOF 7
ENDMDL
MODEL 9
REMARK VINA RESULT:      -5.1      5.783      8.301
REMARK  7 active torsions:
REMARK  status: ('A' for Active; 'I' for Inactive)
REMARK    1  A    between atoms: C_2  and  C_3 
REMARK    2  A    between atoms: C_3  and  O_6 
REMARK    3  A    between atoms: C_3  and  C_4 
REMARK    4  A    between atoms: C_7  and  O_6 
REMARK    5  A    between atoms: C_9  and  C_10 
REMARK    6  A    between atoms: N_15  and  C_14 
REMARK    7  A    between atoms: N_20  and  C_19 
REMARK       I    between atoms: C_22  and  N_20 
ROOT
ATOM      1  C   LIG d   1       2.016  89.052 116.505  0.00  0.00     0.161 C 
ATOM      2  C   LIG d   1       2.335  89.973 117.516  0.00  0.00     0.016 C 
ATOM      3  C   LIG d   1       3.576  90.647 117.592  0.00  0.00     0.038 C 
ATOM      4  C   LIG d   1       4.532  90.556 116.570  0.00  0.00     0.028 C 
ATOM      5  C   LIG d   1       4.460  89.250 115.786  0.00  0.00    -0.047 C 
ATOM      6  C   LIG d   1       3.004  89.025 115.320  0.00  0.00     0.091 C 
ENDROOT
BRANCH   1   7
ATOM      7  O   LIG d   1       0.674  89.289 116.034  0.00  0.00    -0.368 OA
BRANCH   7   8
ATOM      8  C   LIG d   1      -0.328  88.331 116.456  0.00  0.00     0.119 C 
BRANCH   8   9
ATOM      9  C   LIG d   1      -1.249  89.041 117.467  0.00  0.00     0.028 C 
ATOM     10  C   LIG d   1      -2.661  89.282 116.906  0.00  0.00     0.006 C 
ENDBRANCH   8   9
BRANCH   8  11
ATOM     11  C   LIG d   1       0.303  87.169 117.229  0.00  0.00     0.028 C 
ATOM     12  C   LIG d   1      -0.329  86.963 118.615  0.00  0.00     0.006 C 
ENDBRANCH   8  11
ENDBRANCH   7   8
ENDBRANCH   1   7
BRANCH   6  13
ATOM     13  N   LIG d   1       2.828  87.727 114.618  0.00  0.00    -0.311 N 
ATOM     14  C   LIG d   1       2.844  87.602 113.292  0.00  0.00     0.210 C 
ATOM     15  C   LIG d   1       2.624  86.178 112.773  0.00  0.00     0.109 C 
ATOM     16  O   LIG d   1       3.052  88.531 112.497  0.00  0.00    -0.276 OA
ATOM     17  H   LIG d   1       2.685  86.916 115.187  0.00  0.00     0.149 HD
ENDBRANCH   6  13
BRANCH   5  18
ATOM     18  N   LIG d   1       5.417  89.348 114.668  0.00  0.00     0.381 N 
ATOM     19  H   LIG d   1       6.125  90.021 114.885  0.00  0.00    -0.090 HD
ATOM     20  H   LIG d   1       4.927  89.659 113.847  0.00  0.00    -0.090 HD
ATOM     21  H   LIG d   1       5.834  88.459 114.498  0.00  0.00    -0.090 HD
ENDBRANCH   5  18
BRANCH   3  22
ATOM     22  C   LIG d   1       3.887  91.390 118.721  0.00  0.00     0.382 C 
ATOM     23  O   LIG d   1       2.983  91.705 119.532  0.00  0.00    -0.241 OA
ATOM     24  O   LIG d   1       5.051  91.787 118.915  0.00  0.00    -0.241 OA
ENDBRANCH   3  22
TORSDOF 7
ENDMDL
