MODEL 1
REMARK VINA RESULT:      -5.0      0.000      0.000
REMARK  7 active torsions:
REMARK  status: ('A' for Active; 'I' for Inactive)
REMARK    1  A    between atoms: C_2  and  C_3 
REMARK    2  A    between atoms: C_3  and  O_6 
REMARK    3  A    between atoms: C_3  and  C_4 
REMARK    4  A    between atoms: C_7  and  O_6 
REMARK    5  A    between atoms: C_9  and  C_10 
REMARK    6  A    between atoms: N_15  and  C_14 
REMARK    7  A    between atoms: N_20  and  C_19 
REMARK       I    between atoms: C_22  and  N_20 
ROOT
ATOM      1  C   LIG d   1       3.064  89.716 115.734  0.00  0.00     0.161 C 
ATOM      2  C   LIG d   1       1.893  90.457 115.965  0.00  0.00     0.016 C 
ATOM      3  C   LIG d   1       1.705  91.279 117.100  0.00  0.00     0.038 C 
ATOM      4  C   LIG d   1       2.741  91.536 118.010  0.00  0.00     0.028 C 
ATOM      5  C   LIG d   1       3.770  90.413 118.088  0.00  0.00    -0.047 C 
ATOM      6  C   LIG d   1       4.247  90.070 116.658  0.00  0.00     0.091 C 
ENDROOT
BRANCH   1   7
ATOM      7  O   LIG d   1       3.454  89.838 114.351  0.00  0.00    -0.368 OA
BRANCH   7   8
ATOM      8  C   LIG d   1       3.330  88.640 113.546  0.00  0.00     0.119 C 
BRANCH   8   9
ATOM      9  C   LIG d   1       2.781  87.525 114.456  0.00  0.00     0.028 C 
ATOM     10  C   LIG d   1       3.697  86.290 114.490  0.00  0.00     0.006 C 
ENDBRANCH   8   9
BRANCH   8  11
ATOM     11  C   LIG d   1       4.699  88.142 113.074  0.00  0.00     0.028 C 
ATOM     12  C   LIG d   1       5.789  89.221 113.162  0.00  0.00     0.006 C 
ENDBRANCH   8  11
ENDBRANCH   7   8
ENDBRANCH   1   7
BRANCH   6  13
ATOM     13  N   LIG d   1       5.193  88.924 116.636  0.00  0.00    -0.311 N 
ATOM     14  C   LIG d   1       6.516  89.064 116.711  0.00  0.00     0.210 C 
ATOM     15  C   LIG d   1       7.309  87.754 116.651  0.00  0.00     0.109 C 
ATOM     16  O   LIG d   1       7.106  90.145 116.853  0.00  0.00    -0.276 OA
ATOM     17  H   LIG d   1       4.798  88.007 116.554  0.00  0.00     0.149 HD
ENDBRANCH   6  13
BRANCH   5  18
ATOM     18  N   LIG d   1       4.863  90.870 118.967  0.00  0.00     0.381 N 
ATOM     19  H   LIG d   1       5.651  91.142 118.415  0.00  0.00    -0.090 HD
ATOM     20  H   LIG d   1       5.142  90.110 119.562  0.00  0.00    -0.090 HD
ATOM     21  H   LIG d   1       4.555  91.639 119.521  0.00  0.00    -0.090 HD
ENDBRANCH   5  18
BRANCH   3  22
ATOM     22  C   LIG d   1       0.455  91.824 117.355  0.00  0.00     0.382 C 
ATOM     23  O   LIG d   1       0.061  92.821 116.703  0.00  0.00    -0.241 OA
ATOM     24  O   LIG d   1      -0.265  91.358 118.258  0.00  0.00    -0.241 OA
ENDBRANCH   3  22
TORSDOF 7
ENDMDL
MODEL 2
REMARK VINA RESULT:      -4.7      1.975      5.069
REMARK  7 active torsions:
REMARK  status: ('A' for Active; 'I' for Inactive)
REMARK    1  A    between atoms: C_2  and  C_3 
REMARK    2  A    between atoms: C_3  and  O_6 
REMARK    3  A    between atoms: C_3  and  C_4 
REMARK    4  A    between atoms: C_7  and  O_6 
REMARK    5  A    between atoms: C_9  and  C_10 
REMARK    6  A    between atoms: N_15  and  C_14 
REMARK    7  A    between atoms: N_20  and  C_19 
REMARK       I    between atoms: C_22  and  N_20 
ROOT
ATOM      1  C   LIG d   1       4.042  90.334 116.048  0.00  0.00     0.161 C 
ATOM      2  C   LIG d   1       3.473  89.681 114.942  0.00  0.00     0.016 C 
ATOM      3  C   LIG d   1       4.073  88.574 114.298  0.00  0.00     0.038 C 
ATOM      4  C   LIG d   1       5.215  87.946 114.815  0.00  0.00     0.028 C 
ATOM      5  C   LIG d   1       6.101  88.878 115.634  0.00  0.00    -0.047 C 
ATOM      6  C   LIG d   1       5.232  89.593 116.694  0.00  0.00     0.091 C 
ENDROOT
BRANCH   1   7
ATOM      7  O   LIG d   1       3.025  90.602 117.034  0.00  0.00    -0.368 OA
BRANCH   7   8
ATOM      8  C   LIG d   1       2.604  91.983 117.155  0.00  0.00     0.119 C 
BRANCH   8   9
ATOM      9  C   LIG d   1       3.106  92.503 118.516  0.00  0.00     0.028 C 
ATOM     10  C   LIG d   1       4.161  93.612 118.368  0.00  0.00     0.006 C 
ENDBRANCH   8   9
BRANCH   8  11
ATOM     11  C   LIG d   1       1.078  92.097 117.215  0.00  0.00     0.028 C 
ATOM     12  C   LIG d   1       0.365  90.871 116.622  0.00  0.00     0.006 C 
ENDBRANCH   8  11
ENDBRANCH   7   8
ENDBRANCH   1   7
BRANCH   6  13
ATOM     13  N   LIG d   1       6.005  90.587 117.484  0.00  0.00    -0.311 N 
ATOM     14  C   LIG d   1       6.536  90.322 118.677  0.00  0.00     0.210 C 
ATOM     15  C   LIG d   1       7.276  91.494 119.329  0.00  0.00     0.109 C 
ATOM     16  O   LIG d   1       6.491  89.219 119.242  0.00  0.00    -0.276 OA
ATOM     17  H   LIG d   1       6.117  91.499 117.086  0.00  0.00     0.149 HD
ENDBRANCH   6  13
BRANCH   5  18
ATOM     18  N   LIG d   1       7.180  88.063 116.225  0.00  0.00     0.381 N 
ATOM     19  H   LIG d   1       7.755  88.635 116.810  0.00  0.00    -0.090 HD
ATOM     20  H   LIG d   1       7.751  87.694 115.485  0.00  0.00    -0.090 HD
ATOM     21  H   LIG d   1       6.790  87.317 116.758  0.00  0.00    -0.090 HD
ENDBRANCH   5  18
BRANCH   3  22
ATOM     22  C   LIG d   1       3.550  88.109 113.101  0.00  0.00     0.382 C 
ATOM     23  O   LIG d   1       2.429  88.513 112.708  0.00  0.00    -0.241 OA
ATOM     24  O   LIG d   1       4.165  87.258 112.431  0.00  0.00    -0.241 OA
ENDBRANCH   3  22
TORSDOF 7
ENDMDL
MODEL 3
REMARK VINA RESULT:      -4.3      1.681      4.904
REMARK  7 active torsions:
REMARK  status: ('A' for Active; 'I' for Inactive)
REMARK    1  A    between atoms: C_2  and  C_3 
REMARK    2  A    between atoms: C_3  and  O_6 
REMARK    3  A    between atoms: C_3  and  C_4 
REMARK    4  A    between atoms: C_7  and  O_6 
REMARK    5  A    between atoms: C_9  and  C_10 
REMARK    6  A    between atoms: N_15  and  C_14 
REMARK    7  A    between atoms: N_20  and  C_19 
REMARK       I    between atoms: C_22  and  N_20 
ROOT
ATOM      1  C   LIG d   1       2.980  90.259 115.593  0.00  0.00     0.161 C 
ATOM      2  C   LIG d   1       4.287  89.743 115.612  0.00  0.00     0.016 C 
ATOM      3  C   LIG d   1       5.167  89.893 116.708  0.00  0.00     0.038 C 
ATOM      4  C   LIG d   1       4.746  90.443 117.927  0.00  0.00     0.028 C 
ATOM      5  C   LIG d   1       3.592  91.429 117.780  0.00  0.00    -0.047 C 
ATOM      6  C   LIG d   1       2.465  90.765 116.957  0.00  0.00     0.091 C 
ENDROOT
BRANCH   1   7
ATOM      7  O   LIG d   1       2.075  89.278 115.048  0.00  0.00    -0.368 OA
BRANCH   7   8
ATOM      8  C   LIG d   1       2.566  87.916 114.999  0.00  0.00     0.119 C 
BRANCH   8   9
ATOM      9  C   LIG d   1       2.430  87.427 113.543  0.00  0.00     0.028 C 
ATOM     10  C   LIG d   1       3.770  87.447 112.790  0.00  0.00     0.006 C 
ENDBRANCH   8   9
BRANCH   8  11
ATOM     11  C   LIG d   1       1.685  86.975 115.826  0.00  0.00     0.028 C 
ATOM     12  C   LIG d   1       2.057  86.968 117.317  0.00  0.00     0.006 C 
ENDBRANCH   8  11
ENDBRANCH   7   8
ENDBRANCH   1   7
BRANCH   6  13
ATOM     13  N   LIG d   1       1.333  91.691 116.694  0.00  0.00    -0.311 N 
ATOM     14  C   LIG d   1       0.303  91.843 117.525  0.00  0.00     0.210 C 
ATOM     15  C   LIG d   1      -0.767  92.834 117.054  0.00  0.00     0.109 C 
ATOM     16  O   LIG d   1       0.188  91.275 118.621  0.00  0.00    -0.276 OA
ATOM     17  H   LIG d   1       1.360  92.215 115.842  0.00  0.00     0.149 HD
ENDBRANCH   6  13
BRANCH   5  18
ATOM     18  N   LIG d   1       3.164  91.819 119.137  0.00  0.00     0.381 N 
ATOM     19  H   LIG d   1       3.846  92.426 119.546  0.00  0.00    -0.090 HD
ATOM     20  H   LIG d   1       3.094  90.994 119.706  0.00  0.00    -0.090 HD
ATOM     21  H   LIG d   1       2.281  92.279 119.097  0.00  0.00    -0.090 HD
ENDBRANCH   5  18
BRANCH   3  22
ATOM     22  C   LIG d   1       6.498  89.526 116.575  0.00  0.00     0.382 C 
ATOM     23  O   LIG d   1       7.371  90.064 117.298  0.00  0.00    -0.241 OA
ATOM     24  O   LIG d   1       6.842  88.697 115.712  0.00  0.00    -0.241 OA
ENDBRANCH   3  22
TORSDOF 7
ENDMDL
MODEL 4
REMARK VINA RESULT:      -4.3      2.327      5.157
REMARK  7 active torsions:
REMARK  status: ('A' for Active; 'I' for Inactive)
REMARK    1  A    between atoms: C_2  and  C_3 
REMARK    2  A    between atoms: C_3  and  O_6 
REMARK    3  A    between atoms: C_3  and  C_4 
REMARK    4  A    between atoms: C_7  and  O_6 
REMARK    5  A    between atoms: C_9  and  C_10 
REMARK    6  A    between atoms: N_15  and  C_14 
REMARK    7  A    between atoms: N_20  and  C_19 
REMARK       I    between atoms: C_22  and  N_20 
ROOT
ATOM      1  C   LIG d   1       1.698  89.362 115.599  0.00  0.00     0.161 C 
ATOM      2  C   LIG d   1       3.009  89.002 115.244  0.00  0.00     0.016 C 
ATOM      3  C   LIG d   1       4.155  89.700 115.688  0.00  0.00     0.038 C 
ATOM      4  C   LIG d   1       4.076  90.721 116.648  0.00  0.00     0.028 C 
ATOM      5  C   LIG d   1       2.735  91.447 116.650  0.00  0.00    -0.047 C 
ATOM      6  C   LIG d   1       1.599  90.403 116.734  0.00  0.00     0.091 C 
ENDROOT
BRANCH   1   7
ATOM      7  O   LIG d   1       0.942  88.181 115.935  0.00  0.00    -0.368 OA
BRANCH   7   8
ATOM      8  C   LIG d   1       1.672  86.929 115.913  0.00  0.00     0.119 C 
BRANCH   8   9
ATOM      9  C   LIG d   1       0.923  85.975 114.962  0.00  0.00     0.028 C 
ATOM     10  C   LIG d   1       1.557  85.924 113.562  0.00  0.00     0.006 C 
ENDBRANCH   8   9
BRANCH   8  11
ATOM     11  C   LIG d   1       1.643  86.244 117.282  0.00  0.00     0.028 C 
ATOM     12  C   LIG d   1       2.332  87.072 118.377  0.00  0.00     0.006 C 
ENDBRANCH   8  11
ENDBRANCH   7   8
ENDBRANCH   1   7
BRANCH   6  13
ATOM     13  N   LIG d   1       0.251  91.024 116.656  0.00  0.00    -0.311 N 
ATOM     14  C   LIG d   1      -0.403  91.492 117.718  0.00  0.00     0.210 C 
ATOM     15  C   LIG d   1      -1.788  92.075 117.420  0.00  0.00     0.109 C 
ATOM     16  O   LIG d   1       0.046  91.509 118.874  0.00  0.00    -0.276 OA
ATOM     17  H   LIG d   1      -0.175  91.080 115.752  0.00  0.00     0.149 HD
ENDBRANCH   6  13
BRANCH   5  18
ATOM     18  N   LIG d   1       2.740  92.388 117.786  0.00  0.00     0.381 N 
ATOM     19  H   LIG d   1       2.960  91.899 118.630  0.00  0.00    -0.090 HD
ATOM     20  H   LIG d   1       1.823  92.787 117.882  0.00  0.00    -0.090 HD
ATOM     21  H   LIG d   1       3.409  93.110 117.628  0.00  0.00    -0.090 HD
ENDBRANCH   5  18
BRANCH   3  22
ATOM     22  C   LIG d   1       5.395  89.405 115.142  0.00  0.00     0.382 C 
ATOM     23  O   LIG d   1       5.469  88.863 114.013  0.00  0.00    -0.241 OA
ATOM     24  O   LIG d   1       6.438  89.634 115.782  0.00  0.00    -0.241 OA
ENDBRANCH   3  22
TORSDOF 7
ENDMDL
MODEL 5
REMARK VINA RESULT:      -4.2      1.267      1.965
REMARK  7 active torsions:
REMARK  status: ('A' for Active; 'I' for Inactive)
REMARK    1  A    between atoms: C_2  and  C_3 
REMARK    2  A    between atoms: C_3  and  O_6 
REMARK    3  A    between atoms: C_3  and  C_4 
REMARK    4  A    between atoms: C_7  and  O_6 
REMARK    5  A    between atoms: C_9  and  C_10 
REMARK    6  A    between atoms: N_15  and  C_14 
REMARK    7  A    between atoms: N_20  and  C_19 
REMARK       I    between atoms: C_22  and  N_20 
ROOT
ATOM      1  C   LIG d   1       2.370  90.164 116.386  0.00  0.00     0.161 C 
ATOM      2  C   LIG d   1       1.117  90.799 116.380  0.00  0.00     0.016 C 
ATOM      3  C   LIG d   1       0.683  91.674 117.402  0.00  0.00     0.038 C 
ATOM      4  C   LIG d   1       1.539  92.095 118.431  0.00  0.00     0.028 C 
ATOM      5  C   LIG d   1       2.639  91.089 118.753  0.00  0.00    -0.047 C 
ATOM      6  C   LIG d   1       3.360  90.697 117.443  0.00  0.00     0.091 C 
ENDROOT
BRANCH   1   7
ATOM      7  O   LIG d   1       2.958  90.229 115.071  0.00  0.00    -0.368 OA
BRANCH   7   8
ATOM      8  C   LIG d   1       3.645  89.036 114.620  0.00  0.00     0.119 C 
BRANCH   8   9
ATOM      9  C   LIG d   1       4.467  89.419 113.375  0.00  0.00     0.028 C 
ATOM     10  C   LIG d   1       5.978  89.221 113.585  0.00  0.00     0.006 C 
ENDBRANCH   8   9
BRANCH   8  11
ATOM     11  C   LIG d   1       2.655  87.970 114.141  0.00  0.00     0.028 C 
ATOM     12  C   LIG d   1       2.938  87.496 112.707  0.00  0.00     0.006 C 
ENDBRANCH   8  11
ENDBRANCH   7   8
ENDBRANCH   1   7
BRANCH   6  13
ATOM     13  N   LIG d   1       4.396  89.653 117.656  0.00  0.00    -0.311 N 
ATOM     14  C   LIG d   1       5.677  89.929 117.896  0.00  0.00     0.210 C 
ATOM     15  C   LIG d   1       6.581  88.704 118.066  0.00  0.00     0.109 C 
ATOM     16  O   LIG d   1       6.144  91.071 118.015  0.00  0.00    -0.276 OA
ATOM     17  H   LIG d   1       4.098  88.698 117.607  0.00  0.00     0.149 HD
ENDBRANCH   6  13
BRANCH   5  18
ATOM     18  N   LIG d   1       3.538  91.712 119.743  0.00  0.00     0.381 N 
ATOM     19  H   LIG d   1       3.360  92.696 119.789  0.00  0.00    -0.090 HD
ATOM     20  H   LIG d   1       4.489  91.577 119.449  0.00  0.00    -0.090 HD
ATOM     21  H   LIG d   1       3.397  91.299 120.638  0.00  0.00    -0.090 HD
ENDBRANCH   5  18
BRANCH   3  22
ATOM     22  C   LIG d   1      -0.634  92.107 117.423  0.00  0.00     0.382 C 
ATOM     23  O   LIG d   1      -1.566  91.273 117.523  0.00  0.00    -0.241 OA
ATOM     24  O   LIG d   1      -0.903  93.317 117.298  0.00  0.00    -0.241 OA
ENDBRANCH   3  22
TORSDOF 7
ENDMDL
MODEL 6
REMARK VINA RESULT:      -4.2      2.325      5.389
REMARK  7 active torsions:
REMARK  status: ('A' for Active; 'I' for Inactive)
REMARK    1  A    between atoms: C_2  and  C_3 
REMARK    2  A    between atoms: C_3  and  O_6 
REMARK    3  A    between atoms: C_3  and  C_4 
REMARK    4  A    between atoms: C_7  and  O_6 
REMARK    5  A    between atoms: C_9  and  C_10 
REMARK    6  A    between atoms: N_15  and  C_14 
REMARK    7  A    between atoms: N_20  and  C_19 
REMARK       I    between atoms: C_22  and  N_20 
ROOT
ATOM      1  C   LIG d   1       4.031  88.592 117.064  0.00  0.00     0.161 C 
ATOM      2  C   LIG d   1       4.988  89.204 117.889  0.00  0.00     0.016 C 
ATOM      3  C   LIG d   1       6.225  89.697 117.414  0.00  0.00     0.038 C 
ATOM      4  C   LIG d   1       6.527  89.746 116.045  0.00  0.00     0.028 C 
ATOM      5  C   LIG d   1       5.805  88.680 115.227  0.00  0.00    -0.047 C 
ATOM      6  C   LIG d   1       4.295  88.737 115.550  0.00  0.00     0.091 C 
ENDROOT
BRANCH   1   7
ATOM      7  O   LIG d   1       2.716  89.082 117.392  0.00  0.00    -0.368 OA
BRANCH   7   8
ATOM      8  C   LIG d   1       2.326  90.328 116.765  0.00  0.00     0.119 C 
BRANCH   8   9
ATOM      9  C   LIG d   1       2.319  91.415 117.857  0.00  0.00     0.028 C 
ATOM     10  C   LIG d   1       3.336  92.535 117.577  0.00  0.00     0.006 C 
ENDBRANCH   8   9
BRANCH   8  11
ATOM     11  C   LIG d   1       0.885  90.264 116.248  0.00  0.00     0.028 C 
ATOM     12  C   LIG d   1      -0.060  91.214 117.000  0.00  0.00     0.006 C 
ENDBRANCH   8  11
ENDBRANCH   7   8
ENDBRANCH   1   7
BRANCH   6  13
ATOM     13  N   LIG d   1       3.526  87.671 114.855  0.00  0.00    -0.311 N 
ATOM     14  C   LIG d   1       2.830  87.879 113.739  0.00  0.00     0.210 C 
ATOM     15  C   LIG d   1       2.094  86.649 113.198  0.00  0.00     0.109 C 
ATOM     16  O   LIG d   1       2.778  88.957 113.128  0.00  0.00    -0.276 OA
ATOM     17  H   LIG d   1       3.539  86.758 115.266  0.00  0.00     0.149 HD
ENDBRANCH   6  13
BRANCH   5  18
ATOM     18  N   LIG d   1       6.102  88.934 113.804  0.00  0.00     0.381 N 
ATOM     19  H   LIG d   1       5.507  89.660 113.458  0.00  0.00    -0.090 HD
ATOM     20  H   LIG d   1       5.916  88.097 113.279  0.00  0.00    -0.090 HD
ATOM     21  H   LIG d   1       7.057  89.196 113.697  0.00  0.00    -0.090 HD
ENDBRANCH   5  18
BRANCH   3  22
ATOM     22  C   LIG d   1       7.193  90.110 118.317  0.00  0.00     0.382 C 
ATOM     23  O   LIG d   1       8.168  90.794 117.921  0.00  0.00    -0.241 OA
ATOM     24  O   LIG d   1       7.127  89.771 119.513  0.00  0.00    -0.241 OA
ENDBRANCH   3  22
TORSDOF 7
ENDMDL
MODEL 7
REMARK VINA RESULT:      -4.2      1.462      1.561
REMARK  7 active torsions:
REMARK  status: ('A' for Active; 'I' for Inactive)
REMARK    1  A    between atoms: C_2  and  C_3 
REMARK    2  A    between atoms: C_3  and  O_6 
REMARK    3  A    between atoms: C_3  and  C_4 
REMARK    4  A    between atoms: C_7  and  O_6 
REMARK    5  A    between atoms: C_9  and  C_10 
REMARK    6  A    between atoms: N_15  and  C_14 
REMARK    7  A    between atoms: N_20  and  C_19 
REMARK       I    between atoms: C_22  and  N_20 
ROOT
ATOM      1  C   LIG d   1       4.193  89.306 116.826  0.00  0.00     0.161 C 
ATOM      2  C   LIG d   1       2.913  89.751 116.454  0.00  0.00     0.016 C 
ATOM      3  C   LIG d   1       2.398  91.020 116.806  0.00  0.00     0.038 C 
ATOM      4  C   LIG d   1       3.190  91.995 117.429  0.00  0.00     0.028 C 
ATOM      5  C   LIG d   1       4.321  91.411 118.269  0.00  0.00    -0.047 C 
ATOM      6  C   LIG d   1       5.113  90.398 117.410  0.00  0.00     0.091 C 
ENDROOT
BRANCH   1   7
ATOM      7  O   LIG d   1       4.830  88.661 115.705  0.00  0.00    -0.368 OA
BRANCH   7   8
ATOM      8  C   LIG d   1       3.968  88.321 114.591  0.00  0.00     0.119 C 
BRANCH   8   9
ATOM      9  C   LIG d   1       3.953  86.785 114.470  0.00  0.00     0.028 C 
ATOM     10  C   LIG d   1       2.533  86.226 114.278  0.00  0.00     0.006 C 
ENDBRANCH   8   9
BRANCH   8  11
ATOM     11  C   LIG d   1       4.546  88.826 113.266  0.00  0.00     0.028 C 
ATOM     12  C   LIG d   1       6.050  89.133 113.349  0.00  0.00     0.006 C 
ENDBRANCH   8  11
ENDBRANCH   7   8
ENDBRANCH   1   7
BRANCH   6  13
ATOM     13  N   LIG d   1       6.186  89.718 118.181  0.00  0.00    -0.311 N 
ATOM     14  C   LIG d   1       7.447  90.144 118.215  0.00  0.00     0.210 C 
ATOM     15  C   LIG d   1       8.397  89.284 119.054  0.00  0.00     0.109 C 
ATOM     16  O   LIG d   1       7.862  91.170 117.656  0.00  0.00    -0.276 OA
ATOM     17  H   LIG d   1       5.930  88.894 118.689  0.00  0.00     0.149 HD
ENDBRANCH   6  13
BRANCH   5  18
ATOM     18  N   LIG d   1       5.148  92.535 118.747  0.00  0.00     0.381 N 
ATOM     19  H   LIG d   1       5.747  92.225 119.486  0.00  0.00    -0.090 HD
ATOM     20  H   LIG d   1       4.545  93.251 119.110  0.00  0.00    -0.090 HD
ATOM     21  H   LIG d   1       5.695  92.899 117.998  0.00  0.00    -0.090 HD
ENDBRANCH   5  18
BRANCH   3  22
ATOM     22  C   LIG d   1       1.062  91.309 116.570  0.00  0.00     0.382 C 
ATOM     23  O   LIG d   1       0.650  92.490 116.664  0.00  0.00    -0.241 OA
ATOM     24  O   LIG d   1       0.255  90.397 116.307  0.00  0.00    -0.241 OA
ENDBRANCH   3  22
TORSDOF 7
ENDMDL
MODEL 8
REMARK VINA RESULT:      -4.0      2.324      3.890
REMARK  7 active torsions:
REMARK  status: ('A' for Active; 'I' for Inactive)
REMARK    1  A    between atoms: C_2  and  C_3 
REMARK    2  A    between atoms: C_3  and  O_6 
REMARK    3  A    between atoms: C_3  and  C_4 
REMARK    4  A    between atoms: C_7  and  O_6 
REMARK    5  A    between atoms: C_9  and  C_10 
REMARK    6  A    between atoms: N_15  and  C_14 
REMARK    7  A    between atoms: N_20  and  C_19 
REMARK       I    between atoms: C_22  and  N_20 
ROOT
ATOM      1  C   LIG d   1       4.071  90.323 116.395  0.00  0.00     0.161 C 
ATOM      2  C   LIG d   1       4.234  91.305 117.386  0.00  0.00     0.016 C 
ATOM      3  C   LIG d   1       3.158  92.026 117.951  0.00  0.00     0.038 C 
ATOM      4  C   LIG d   1       1.822  91.706 117.669  0.00  0.00     0.028 C 
ATOM      5  C   LIG d   1       1.628  91.066 116.299  0.00  0.00    -0.047 C 
ATOM      6  C   LIG d   1       2.612  89.882 116.155  0.00  0.00     0.091 C 
ENDROOT
BRANCH   1   7
ATOM      7  O   LIG d   1       4.896  89.180 116.698  0.00  0.00    -0.368 OA
BRANCH   7   8
ATOM      8  C   LIG d   1       6.192  89.140 116.051  0.00  0.00     0.119 C 
BRANCH   8   9
ATOM      9  C   LIG d   1       6.034  88.330 114.749  0.00  0.00     0.028 C 
ATOM     10  C   LIG d   1       6.033  89.225 113.498  0.00  0.00     0.006 C 
ENDBRANCH   8   9
BRANCH   8  11
ATOM     11  C   LIG d   1       7.210  88.364 116.891  0.00  0.00     0.028 C 
ATOM     12  C   LIG d   1       6.597  87.765 118.167  0.00  0.00     0.006 C 
ENDBRANCH   8  11
ENDBRANCH   7   8
ENDBRANCH   1   7
BRANCH   6  13
ATOM     13  N   LIG d   1       2.547  89.252 114.811  0.00  0.00    -0.311 N 
ATOM     14  C   LIG d   1       2.524  87.934 114.619  0.00  0.00     0.210 C 
ATOM     15  C   LIG d   1       2.477  87.494 113.152  0.00  0.00     0.109 C 
ATOM     16  O   LIG d   1       2.505  87.088 115.526  0.00  0.00    -0.276 OA
ATOM     17  H   LIG d   1       2.528  89.865 114.020  0.00  0.00     0.149 HD
ENDBRANCH   6  13
BRANCH   5  18
ATOM     18  N   LIG d   1       0.214  90.659 116.193  0.00  0.00     0.381 N 
ATOM     19  H   LIG d   1      -0.301  91.019 116.971  0.00  0.00    -0.090 HD
ATOM     20  H   LIG d   1       0.162  89.656 116.217  0.00  0.00    -0.090 HD
ATOM     21  H   LIG d   1      -0.175  90.999 115.341  0.00  0.00    -0.090 HD
ENDBRANCH   5  18
BRANCH   3  22
ATOM     22  C   LIG d   1       3.416  93.108 118.779  0.00  0.00     0.382 C 
ATOM     23  O   LIG d   1       4.169  94.032 118.388  0.00  0.00    -0.241 OA
ATOM     24  O   LIG d   1       2.939  93.151 119.929  0.00  0.00    -0.241 OA
ENDBRANCH   3  22
TORSDOF 7
ENDMDL
MODEL 9
REMARK VINA RESULT:      -3.8      2.367      3.834
REMARK  7 active torsions:
REMARK  status: ('A' for Active; 'I' for Inactive)
REMARK    1  A    between atoms: C_2  and  C_3 
REMARK    2  A    between atoms: C_3  and  O_6 
REMARK    3  A    between atoms: C_3  and  C_4 
REMARK    4  A    between atoms: C_7  and  O_6 
REMARK    5  A    between atoms: C_9  and  C_10 
REMARK    6  A    between atoms: N_15  and  C_14 
REMARK    7  A    between atoms: N_20  and  C_19 
REMARK       I    between atoms: C_22  and  N_20 
ROOT
ATOM      1  C   LIG d   1       4.060  90.130 116.561  0.00  0.00     0.161 C 
ATOM      2  C   LIG d   1       4.271  91.160 117.492  0.00  0.00     0.016 C 
ATOM      3  C   LIG d   1       3.235  91.984 117.990  0.00  0.00     0.038 C 
ATOM      4  C   LIG d   1       1.885  91.732 117.702  0.00  0.00     0.028 C 
ATOM      5  C   LIG d   1       1.672  91.019 116.371  0.00  0.00    -0.047 C 
ATOM      6  C   LIG d   1       2.579  89.769 116.321  0.00  0.00     0.091 C 
ENDROOT
BRANCH   1   7
ATOM      7  O   LIG d   1       4.804  88.959 116.952  0.00  0.00    -0.368 OA
BRANCH   7   8
ATOM      8  C   LIG d   1       5.744  88.446 115.976  0.00  0.00     0.119 C 
BRANCH   8   9
ATOM      9  C   LIG d   1       7.090  88.237 116.695  0.00  0.00     0.028 C 
ATOM     10  C   LIG d   1       6.924  88.065 118.214  0.00  0.00     0.006 C 
ENDBRANCH   8   9
BRANCH   8  11
ATOM     11  C   LIG d   1       6.026  89.477 114.879  0.00  0.00     0.028 C 
ATOM     12  C   LIG d   1       5.871  88.899 113.463  0.00  0.00     0.006 C 
ENDBRANCH   8  11
ENDBRANCH   7   8
ENDBRANCH   1   7
BRANCH   6  13
ATOM     13  N   LIG d   1       2.495  89.059 115.018  0.00  0.00    -0.311 N 
ATOM     14  C   LIG d   1       2.410  87.734 114.909  0.00  0.00     0.210 C 
ATOM     15  C   LIG d   1       2.353  87.207 113.472  0.00  0.00     0.109 C 
ATOM     16  O   LIG d   1       2.344  86.948 115.866  0.00  0.00    -0.276 OA
ATOM     17  H   LIG d   1       2.510  89.622 114.190  0.00  0.00     0.149 HD
ENDBRANCH   6  13
BRANCH   5  18
ATOM     18  N   LIG d   1       0.236  90.697 116.263  0.00  0.00     0.381 N 
ATOM     19  H   LIG d   1       0.090  90.049 115.515  0.00  0.00    -0.090 HD
ATOM     20  H   LIG d   1      -0.271  91.539 116.055  0.00  0.00    -0.090 HD
ATOM     21  H   LIG d   1      -0.091  90.307 117.119  0.00  0.00    -0.090 HD
ENDBRANCH   5  18
BRANCH   3  22
ATOM     22  C   LIG d   1       3.549  93.098 118.753  0.00  0.00     0.382 C 
ATOM     23  O   LIG d   1       2.869  93.373 119.771  0.00  0.00    -0.241 OA
ATOM     24  O   LIG d   1       4.476  93.857 118.412  0.00  0.00    -0.241 OA
ENDBRANCH   3  22
TORSDOF 7
ENDMDL
