MODEL 1
REMARK VINA RESULT:      -5.4      0.000      0.000
REMARK  7 active torsions:
REMARK  status: ('A' for Active; 'I' for Inactive)
REMARK    1  A    between atoms: C_2  and  C_3 
REMARK    2  A    between atoms: C_3  and  O_6 
REMARK    3  A    between atoms: C_3  and  C_4 
REMARK    4  A    between atoms: C_7  and  O_6 
REMARK    5  A    between atoms: C_9  and  C_10 
REMARK    6  A    between atoms: N_15  and  C_14 
REMARK    7  A    between atoms: N_20  and  C_19 
REMARK       I    between atoms: C_22  and  N_20 
ROOT
ATOM      1  C   LIG d   1      -6.708  92.619 118.546  0.00  0.00     0.161 C 
ATOM      2  C   LIG d   1      -5.618  93.345 119.051  0.00  0.00     0.016 C 
ATOM      3  C   LIG d   1      -4.276  93.088 118.688  0.00  0.00     0.038 C 
ATOM      4  C   LIG d   1      -3.944  92.180 117.671  0.00  0.00     0.028 C 
ATOM      5  C   LIG d   1      -4.971  91.067 117.494  0.00  0.00    -0.047 C 
ATOM      6  C   LIG d   1      -6.375  91.699 117.352  0.00  0.00     0.091 C 
ENDROOT
BRANCH   1   7
ATOM      7  O   LIG d   1      -7.778  93.521 118.199  0.00  0.00    -0.368 OA
BRANCH   7   8
ATOM      8  C   LIG d   1      -7.557  94.919 118.506  0.00  0.00     0.119 C 
BRANCH   8   9
ATOM      9  C   LIG d   1      -8.690  95.372 119.447  0.00  0.00     0.028 C 
ATOM     10  C   LIG d   1      -9.557  94.196 119.930  0.00  0.00     0.006 C 
ENDBRANCH   8   9
BRANCH   8  11
ATOM     11  C   LIG d   1      -7.695  95.792 117.255  0.00  0.00     0.028 C 
ATOM     12  C   LIG d   1      -7.896  97.280 117.586  0.00  0.00     0.006 C 
ENDBRANCH   8  11
ENDBRANCH   7   8
ENDBRANCH   1   7
BRANCH   6  13
ATOM     13  N   LIG d   1      -7.450  90.676 117.259  0.00  0.00    -0.311 N 
ATOM     14  C   LIG d   1      -7.910  90.200 116.104  0.00  0.00     0.210 C 
ATOM     15  C   LIG d   1      -9.034  89.166 116.232  0.00  0.00     0.109 C 
ATOM     16  O   LIG d   1      -7.473  90.511 114.986  0.00  0.00    -0.276 OA
ATOM     17  H   LIG d   1      -7.840  90.345 118.120  0.00  0.00     0.149 HD
ENDBRANCH   6  13
BRANCH   5  18
ATOM     18  N   LIG d   1      -4.572  90.275 116.316  0.00  0.00     0.381 N 
ATOM     19  H   LIG d   1      -4.690  89.301 116.507  0.00  0.00    -0.090 HD
ATOM     20  H   LIG d   1      -3.600  90.444 116.125  0.00  0.00    -0.090 HD
ATOM     21  H   LIG d   1      -5.122  90.536 115.527  0.00  0.00    -0.090 HD
ENDBRANCH   5  18
BRANCH   3  22
ATOM     22  C   LIG d   1      -3.246  93.716 119.372  0.00  0.00     0.382 C 
ATOM     23  O   LIG d   1      -3.295  94.952 119.583  0.00  0.00    -0.241 OA
ATOM     24  O   LIG d   1      -2.248  93.069 119.743  0.00  0.00    -0.241 OA
ENDBRANCH   3  22
TORSDOF 7
ENDMDL
MODEL 2
REMARK VINA RESULT:      -5.3      2.515      4.980
REMARK  7 active torsions:
REMARK  status: ('A' for Active; 'I' for Inactive)
REMARK    1  A    between atoms: C_2  and  C_3 
REMARK    2  A    between atoms: C_3  and  O_6 
REMARK    3  A    between atoms: C_3  and  C_4 
REMARK    4  A    between atoms: C_7  and  O_6 
REMARK    5  A    between atoms: C_9  and  C_10 
REMARK    6  A    between atoms: N_15  and  C_14 
REMARK    7  A    between atoms: N_20  and  C_19 
REMARK       I    between atoms: C_22  and  N_20 
ROOT
ATOM      1  C   LIG d   1      -5.125  91.154 116.814  0.00  0.00     0.161 C 
ATOM      2  C   LIG d   1      -4.149  90.148 116.916  0.00  0.00     0.016 C 
ATOM      3  C   LIG d   1      -3.035  90.230 117.783  0.00  0.00     0.038 C 
ATOM      4  C   LIG d   1      -2.901  91.262 118.723  0.00  0.00     0.028 C 
ATOM      5  C   LIG d   1      -3.595  92.555 118.307  0.00  0.00    -0.047 C 
ATOM      6  C   LIG d   1      -5.055  92.236 117.912  0.00  0.00     0.091 C 
ENDROOT
BRANCH   1   7
ATOM      7  O   LIG d   1      -6.438  90.560 116.779  0.00  0.00    -0.368 OA
BRANCH   7   8
ATOM      8  C   LIG d   1      -6.917  90.151 115.475  0.00  0.00     0.119 C 
BRANCH   8   9
ATOM      9  C   LIG d   1      -6.545  91.263 114.475  0.00  0.00     0.028 C 
ATOM     10  C   LIG d   1      -7.700  91.601 113.517  0.00  0.00     0.006 C 
ENDBRANCH   8   9
BRANCH   8  11
ATOM     11  C   LIG d   1      -8.447  90.072 115.443  0.00  0.00     0.028 C 
ATOM     12  C   LIG d   1      -9.021  89.191 116.564  0.00  0.00     0.006 C 
ENDBRANCH   8  11
ENDBRANCH   7   8
ENDBRANCH   1   7
BRANCH   6  13
ATOM     13  N   LIG d   1      -5.781  93.433 117.412  0.00  0.00    -0.311 N 
ATOM     14  C   LIG d   1      -6.951  93.839 117.902  0.00  0.00     0.210 C 
ATOM     15  C   LIG d   1      -7.537  95.084 117.229  0.00  0.00     0.109 C 
ATOM     16  O   LIG d   1      -7.544  93.304 118.851  0.00  0.00    -0.276 OA
ATOM     17  H   LIG d   1      -5.356  93.943 116.663  0.00  0.00     0.149 HD
ENDBRANCH   6  13
BRANCH   5  18
ATOM     18  N   LIG d   1      -3.493  93.499 119.436  0.00  0.00     0.381 N 
ATOM     19  H   LIG d   1      -3.091  94.359 119.122  0.00  0.00    -0.090 HD
ATOM     20  H   LIG d   1      -2.890  93.105 120.135  0.00  0.00    -0.090 HD
ATOM     21  H   LIG d   1      -4.396  93.667 119.822  0.00  0.00    -0.090 HD
ENDBRANCH   5  18
BRANCH   3  22
ATOM     22  C   LIG d   1      -2.019  89.291 117.686  0.00  0.00     0.382 C 
ATOM     23  O   LIG d   1      -2.180  88.141 118.161  0.00  0.00    -0.241 OA
ATOM     24  O   LIG d   1      -0.927  89.593 117.168  0.00  0.00    -0.241 OA
ENDBRANCH   3  22
TORSDOF 7
ENDMDL
MODEL 3
REMARK VINA RESULT:      -5.2      2.268      4.706
REMARK  7 active torsions:
REMARK  status: ('A' for Active; 'I' for Inactive)
REMARK    1  A    between atoms: C_2  and  C_3 
REMARK    2  A    between atoms: C_3  and  O_6 
REMARK    3  A    between atoms: C_3  and  C_4 
REMARK    4  A    between atoms: C_7  and  O_6 
REMARK    5  A    between atoms: C_9  and  C_10 
REMARK    6  A    between atoms: N_15  and  C_14 
REMARK    7  A    between atoms: N_20  and  C_19 
REMARK       I    between atoms: C_22  and  N_20 
ROOT
ATOM      1  C   LIG d   1      -6.172  91.422 118.159  0.00  0.00     0.161 C 
ATOM      2  C   LIG d   1      -6.905  92.597 117.923  0.00  0.00     0.016 C 
ATOM      3  C   LIG d   1      -6.379  93.895 118.119  0.00  0.00     0.038 C 
ATOM      4  C   LIG d   1      -5.026  94.108 118.423  0.00  0.00     0.028 C 
ATOM      5  C   LIG d   1      -4.379  92.942 119.162  0.00  0.00    -0.047 C 
ATOM      6  C   LIG d   1      -4.660  91.637 118.383  0.00  0.00     0.091 C 
ENDROOT
BRANCH   1   7
ATOM      7  O   LIG d   1      -6.391  90.486 117.085  0.00  0.00    -0.368 OA
BRANCH   7   8
ATOM      8  C   LIG d   1      -7.319  90.904 116.054  0.00  0.00     0.119 C 
BRANCH   8   9
ATOM      9  C   LIG d   1      -8.104  89.657 115.603  0.00  0.00     0.028 C 
ATOM     10  C   LIG d   1      -9.199  89.258 116.606  0.00  0.00     0.006 C 
ENDBRANCH   8   9
BRANCH   8  11
ATOM     11  C   LIG d   1      -6.581  91.393 114.804  0.00  0.00     0.028 C 
ATOM     12  C   LIG d   1      -7.499  91.515 113.578  0.00  0.00     0.006 C 
ENDBRANCH   8  11
ENDBRANCH   7   8
ENDBRANCH   1   7
BRANCH   6  13
ATOM     13  N   LIG d   1      -4.134  90.435 119.081  0.00  0.00    -0.311 N 
ATOM     14  C   LIG d   1      -3.242  89.606 118.543  0.00  0.00     0.210 C 
ATOM     15  C   LIG d   1      -2.849  88.417 119.425  0.00  0.00     0.109 C 
ATOM     16  O   LIG d   1      -2.715  89.759 117.431  0.00  0.00    -0.276 OA
ATOM     17  H   LIG d   1      -4.485  90.252 120.001  0.00  0.00     0.149 HD
ENDBRANCH   6  13
BRANCH   5  18
ATOM     18  N   LIG d   1      -2.940  93.239 119.291  0.00  0.00     0.381 N 
ATOM     19  H   LIG d   1      -2.461  92.963 118.458  0.00  0.00    -0.090 HD
ATOM     20  H   LIG d   1      -2.567  92.710 120.060  0.00  0.00    -0.090 HD
ATOM     21  H   LIG d   1      -2.807  94.213 119.453  0.00  0.00    -0.090 HD
ENDBRANCH   5  18
BRANCH   3  22
ATOM     22  C   LIG d   1      -7.220  94.995 118.052  0.00  0.00     0.382 C 
ATOM     23  O   LIG d   1      -8.413  94.850 117.691  0.00  0.00    -0.241 OA
ATOM     24  O   LIG d   1      -6.790  96.136 118.305  0.00  0.00    -0.241 OA
ENDBRANCH   3  22
TORSDOF 7
ENDMDL
MODEL 4
REMARK VINA RESULT:      -4.9      7.962     10.297
REMARK  7 active torsions:
REMARK  status: ('A' for Active; 'I' for Inactive)
REMARK    1  A    between atoms: C_2  and  C_3 
REMARK    2  A    between atoms: C_3  and  O_6 
REMARK    3  A    between atoms: C_3  and  C_4 
REMARK    4  A    between atoms: C_7  and  O_6 
REMARK    5  A    between atoms: C_9  and  C_10 
REMARK    6  A    between atoms: N_15  and  C_14 
REMARK    7  A    between atoms: N_20  and  C_19 
REMARK       I    between atoms: C_22  and  N_20 
ROOT
ATOM      1  C   LIG d   1       2.608  88.654 116.438  0.00  0.00     0.161 C 
ATOM      2  C   LIG d   1       3.043  89.601 117.380  0.00  0.00     0.016 C 
ATOM      3  C   LIG d   1       4.115  90.493 117.148  0.00  0.00     0.038 C 
ATOM      4  C   LIG d   1       4.732  90.601 115.893  0.00  0.00     0.028 C 
ATOM      5  C   LIG d   1       4.662  89.318 115.071  0.00  0.00    -0.047 C 
ATOM      6  C   LIG d   1       3.195  88.832 115.022  0.00  0.00     0.091 C 
ENDROOT
BRANCH   1   7
ATOM      7  O   LIG d   1       1.167  88.644 116.385  0.00  0.00    -0.368 OA
BRANCH   7   8
ATOM      8  C   LIG d   1       0.493  88.009 117.499  0.00  0.00     0.119 C 
BRANCH   8   9
ATOM      9  C   LIG d   1       0.316  86.520 117.146  0.00  0.00     0.028 C 
ATOM     10  C   LIG d   1      -0.437  85.743 118.239  0.00  0.00     0.006 C 
ENDBRANCH   8   9
BRANCH   8  11
ATOM     11  C   LIG d   1      -0.927  88.556 117.676  0.00  0.00     0.028 C 
ATOM     12  C   LIG d   1      -0.995  90.087 117.555  0.00  0.00     0.006 C 
ENDBRANCH   8  11
ENDBRANCH   7   8
ENDBRANCH   1   7
BRANCH   6  13
ATOM     13  N   LIG d   1       3.051  87.537 114.309  0.00  0.00    -0.311 N 
ATOM     14  C   LIG d   1       2.486  87.420 113.108  0.00  0.00     0.210 C 
ATOM     15  C   LIG d   1       2.420  85.991 112.561  0.00  0.00     0.109 C 
ATOM     16  O   LIG d   1       2.062  88.369 112.431  0.00  0.00    -0.276 OA
ATOM     17  H   LIG d   1       3.396  86.720 114.773  0.00  0.00     0.149 HD
ENDBRANCH   6  13
BRANCH   5  18
ATOM     18  N   LIG d   1       5.219  89.612 113.737  0.00  0.00     0.381 N 
ATOM     19  H   LIG d   1       5.493  88.761 113.289  0.00  0.00    -0.090 HD
ATOM     20  H   LIG d   1       6.035  90.189 113.845  0.00  0.00    -0.090 HD
ATOM     21  H   LIG d   1       4.540  90.085 113.181  0.00  0.00    -0.090 HD
ENDBRANCH   5  18
BRANCH   3  22
ATOM     22  C   LIG d   1       4.608  91.261 118.192  0.00  0.00     0.382 C 
ATOM     23  O   LIG d   1       5.004  92.432 117.976  0.00  0.00    -0.241 OA
ATOM     24  O   LIG d   1       4.702  90.783 119.338  0.00  0.00    -0.241 OA
ENDBRANCH   3  22
TORSDOF 7
ENDMDL
MODEL 5
REMARK VINA RESULT:      -4.5      6.501     10.165
REMARK  7 active torsions:
REMARK  status: ('A' for Active; 'I' for Inactive)
REMARK    1  A    between atoms: C_2  and  C_3 
REMARK    2  A    between atoms: C_3  and  O_6 
REMARK    3  A    between atoms: C_3  and  C_4 
REMARK    4  A    between atoms: C_7  and  O_6 
REMARK    5  A    between atoms: C_9  and  C_10 
REMARK    6  A    between atoms: N_15  and  C_14 
REMARK    7  A    between atoms: N_20  and  C_19 
REMARK       I    between atoms: C_22  and  N_20 
ROOT
ATOM      1  C   LIG d   1       1.181  89.846 117.522  0.00  0.00     0.161 C 
ATOM      2  C   LIG d   1      -0.198  89.637 117.354  0.00  0.00     0.016 C 
ATOM      3  C   LIG d   1      -1.180  90.583 117.729  0.00  0.00     0.038 C 
ATOM      4  C   LIG d   1      -0.839  91.874 118.161  0.00  0.00     0.028 C 
ATOM      5  C   LIG d   1       0.534  91.949 118.821  0.00  0.00    -0.047 C 
ATOM      6  C   LIG d   1       1.576  91.292 117.888  0.00  0.00     0.091 C 
ENDROOT
BRANCH   1   7
ATOM      7  O   LIG d   1       1.887  89.418 116.340  0.00  0.00    -0.368 OA
BRANCH   7   8
ATOM      8  C   LIG d   1       2.588  88.154 116.440  0.00  0.00     0.119 C 
BRANCH   8   9
ATOM      9  C   LIG d   1       4.076  88.426 116.147  0.00  0.00     0.028 C 
ATOM     10  C   LIG d   1       4.276  89.335 114.923  0.00  0.00     0.006 C 
ENDBRANCH   8   9
BRANCH   8  11
ATOM     11  C   LIG d   1       2.132  87.176 115.353  0.00  0.00     0.028 C 
ATOM     12  C   LIG d   1       0.872  86.390 115.749  0.00  0.00     0.006 C 
ENDBRANCH   8  11
ENDBRANCH   7   8
ENDBRANCH   1   7
BRANCH   6  13
ATOM     13  N   LIG d   1       2.932  91.247 118.495  0.00  0.00    -0.311 N 
ATOM     14  C   LIG d   1       4.022  91.717 117.890  0.00  0.00     0.210 C 
ATOM     15  C   LIG d   1       5.322  91.554 118.683  0.00  0.00     0.109 C 
ATOM     16  O   LIG d   1       4.030  92.283 116.787  0.00  0.00    -0.276 OA
ATOM     17  H   LIG d   1       3.012  90.833 119.403  0.00  0.00     0.149 HD
ENDBRANCH   6  13
BRANCH   5  18
ATOM     18  N   LIG d   1       0.819  93.369 119.097  0.00  0.00     0.381 N 
ATOM     19  H   LIG d   1       1.805  93.531 119.059  0.00  0.00    -0.090 HD
ATOM     20  H   LIG d   1       0.499  93.591 120.024  0.00  0.00    -0.090 HD
ATOM     21  H   LIG d   1       0.354  93.946 118.431  0.00  0.00    -0.090 HD
ENDBRANCH   5  18
BRANCH   3  22
ATOM     22  C   LIG d   1      -2.520  90.227 117.711  0.00  0.00     0.382 C 
ATOM     23  O   LIG d   1      -2.847  89.023 117.586  0.00  0.00    -0.241 OA
ATOM     24  O   LIG d   1      -3.406  91.100 117.775  0.00  0.00    -0.241 OA
ENDBRANCH   3  22
TORSDOF 7
ENDMDL
MODEL 6
REMARK VINA RESULT:      -4.5      2.263      4.554
REMARK  7 active torsions:
REMARK  status: ('A' for Active; 'I' for Inactive)
REMARK    1  A    between atoms: C_2  and  C_3 
REMARK    2  A    between atoms: C_3  and  O_6 
REMARK    3  A    between atoms: C_3  and  C_4 
REMARK    4  A    between atoms: C_7  and  O_6 
REMARK    5  A    between atoms: C_9  and  C_10 
REMARK    6  A    between atoms: N_15  and  C_14 
REMARK    7  A    between atoms: N_20  and  C_19 
REMARK       I    between atoms: C_22  and  N_20 
ROOT
ATOM      1  C   LIG d   1      -5.259  91.812 117.231  0.00  0.00     0.161 C 
ATOM      2  C   LIG d   1      -4.114  91.034 117.467  0.00  0.00     0.016 C 
ATOM      3  C   LIG d   1      -3.058  91.442 118.314  0.00  0.00     0.038 C 
ATOM      4  C   LIG d   1      -3.146  92.597 119.106  0.00  0.00     0.028 C 
ATOM      5  C   LIG d   1      -4.061  93.666 118.518  0.00  0.00    -0.047 C 
ATOM      6  C   LIG d   1      -5.424  93.024 118.171  0.00  0.00     0.091 C 
ENDROOT
BRANCH   1   7
ATOM      7  O   LIG d   1      -6.434  90.978 117.278  0.00  0.00    -0.368 OA
BRANCH   7   8
ATOM      8  C   LIG d   1      -7.375  91.141 116.188  0.00  0.00     0.119 C 
BRANCH   8   9
ATOM      9  C   LIG d   1      -7.832  89.734 115.757  0.00  0.00     0.028 C 
ATOM     10  C   LIG d   1      -9.143  89.308 116.440  0.00  0.00     0.006 C 
ENDBRANCH   8   9
BRANCH   8  11
ATOM     11  C   LIG d   1      -6.698  91.743 114.953  0.00  0.00     0.028 C 
ATOM     12  C   LIG d   1      -7.472  91.464 113.654  0.00  0.00     0.006 C 
ENDBRANCH   8  11
ENDBRANCH   7   8
ENDBRANCH   1   7
BRANCH   6  13
ATOM     13  N   LIG d   1      -6.350  93.982 117.513  0.00  0.00    -0.311 N 
ATOM     14  C   LIG d   1      -7.231  94.725 118.180  0.00  0.00     0.210 C 
ATOM     15  C   LIG d   1      -8.104  95.632 117.307  0.00  0.00     0.109 C 
ATOM     16  O   LIG d   1      -7.350  94.744 119.414  0.00  0.00    -0.276 OA
ATOM     17  H   LIG d   1      -6.300  94.053 116.516  0.00  0.00     0.149 HD
ENDBRANCH   6  13
BRANCH   5  18
ATOM     18  N   LIG d   1      -4.169  94.754 119.508  0.00  0.00     0.381 N 
ATOM     19  H   LIG d   1      -4.027  95.636 119.058  0.00  0.00    -0.090 HD
ATOM     20  H   LIG d   1      -3.452  94.634 120.202  0.00  0.00    -0.090 HD
ATOM     21  H   LIG d   1      -5.066  94.733 119.940  0.00  0.00    -0.090 HD
ENDBRANCH   5  18
BRANCH   3  22
ATOM     22  C   LIG d   1      -1.880  90.710 118.345  0.00  0.00     0.382 C 
ATOM     23  O   LIG d   1      -0.799  91.248 118.003  0.00  0.00    -0.241 OA
ATOM     24  O   LIG d   1      -1.892  89.507 118.668  0.00  0.00    -0.241 OA
ENDBRANCH   3  22
TORSDOF 7
ENDMDL
MODEL 7
REMARK VINA RESULT:      -4.3      9.864     12.664
REMARK  7 active torsions:
REMARK  status: ('A' for Active; 'I' for Inactive)
REMARK    1  A    between atoms: C_2  and  C_3 
REMARK    2  A    between atoms: C_3  and  O_6 
REMARK    3  A    between atoms: C_3  and  C_4 
REMARK    4  A    between atoms: C_7  and  O_6 
REMARK    5  A    between atoms: C_9  and  C_10 
REMARK    6  A    between atoms: N_15  and  C_14 
REMARK    7  A    between atoms: N_20  and  C_19 
REMARK       I    between atoms: C_22  and  N_20 
ROOT
ATOM      1  C   LIG d   1       5.151  90.136 115.847  0.00  0.00     0.161 C 
ATOM      2  C   LIG d   1       4.104  89.629 115.060  0.00  0.00     0.016 C 
ATOM      3  C   LIG d   1       3.766  88.257 115.004  0.00  0.00     0.038 C 
ATOM      4  C   LIG d   1       4.360  87.312 115.854  0.00  0.00     0.028 C 
ATOM      5  C   LIG d   1       5.766  87.697 116.299  0.00  0.00    -0.047 C 
ATOM      6  C   LIG d   1       5.738  89.135 116.865  0.00  0.00     0.091 C 
ENDROOT
BRANCH   1   7
ATOM      7  O   LIG d   1       4.722  91.338 116.516  0.00  0.00    -0.368 OA
BRANCH   7   8
ATOM      8  C   LIG d   1       4.042  91.155 117.782  0.00  0.00     0.119 C 
BRANCH   8   9
ATOM      9  C   LIG d   1       2.587  91.629 117.599  0.00  0.00     0.028 C 
ATOM     10  C   LIG d   1       1.586  90.461 117.587  0.00  0.00     0.006 C 
ENDBRANCH   8   9
BRANCH   8  11
ATOM     11  C   LIG d   1       4.631  92.061 118.867  0.00  0.00     0.028 C 
ATOM     12  C   LIG d   1       5.897  92.800 118.404  0.00  0.00     0.006 C 
ENDBRANCH   8  11
ENDBRANCH   7   8
ENDBRANCH   1   7
BRANCH   6  13
ATOM     13  N   LIG d   1       7.090  89.622 117.245  0.00  0.00    -0.311 N 
ATOM     14  C   LIG d   1       7.579  89.535 118.481  0.00  0.00     0.210 C 
ATOM     15  C   LIG d   1       8.985  90.115 118.662  0.00  0.00     0.109 C 
ATOM     16  O   LIG d   1       6.995  89.004 119.437  0.00  0.00    -0.276 OA
ATOM     17  H   LIG d   1       7.644  90.039 116.524  0.00  0.00     0.149 HD
ENDBRANCH   6  13
BRANCH   5  18
ATOM     18  N   LIG d   1       6.211  86.696 117.287  0.00  0.00     0.381 N 
ATOM     19  H   LIG d   1       5.974  87.002 118.209  0.00  0.00    -0.090 HD
ATOM     20  H   LIG d   1       7.211  86.606 117.231  0.00  0.00    -0.090 HD
ATOM     21  H   LIG d   1       5.781  85.817 117.100  0.00  0.00    -0.090 HD
ENDBRANCH   5  18
BRANCH   3  22
ATOM     22  C   LIG d   1       2.851  87.812 114.062  0.00  0.00     0.382 C 
ATOM     23  O   LIG d   1       2.357  86.663 114.161  0.00  0.00    -0.241 OA
ATOM     24  O   LIG d   1       2.546  88.529 113.090  0.00  0.00    -0.241 OA
ENDBRANCH   3  22
TORSDOF 7
ENDMDL
MODEL 8
REMARK VINA RESULT:      -4.3      7.123     10.086
REMARK  7 active torsions:
REMARK  status: ('A' for Active; 'I' for Inactive)
REMARK    1  A    between atoms: C_2  and  C_3 
REMARK    2  A    between atoms: C_3  and  O_6 
REMARK    3  A    between atoms: C_3  and  C_4 
REMARK    4  A    between atoms: C_7  and  O_6 
REMARK    5  A    between atoms: C_9  and  C_10 
REMARK    6  A    between atoms: N_15  and  C_14 
REMARK    7  A    between atoms: N_20  and  C_19 
REMARK       I    between atoms: C_22  and  N_20 
ROOT
ATOM      1  C   LIG d   1       1.922  89.722 117.330  0.00  0.00     0.161 C 
ATOM      2  C   LIG d   1       2.453  89.188 116.144  0.00  0.00     0.016 C 
ATOM      3  C   LIG d   1       3.691  89.593 115.594  0.00  0.00     0.038 C 
ATOM      4  C   LIG d   1       4.559  90.458 116.278  0.00  0.00     0.028 C 
ATOM      5  C   LIG d   1       3.841  91.407 117.232  0.00  0.00    -0.047 C 
ATOM      6  C   LIG d   1       2.906  90.585 118.148  0.00  0.00     0.091 C 
ENDROOT
BRANCH   1   7
ATOM      7  O   LIG d   1       1.387  88.662 118.147  0.00  0.00    -0.368 OA
BRANCH   7   8
ATOM      8  C   LIG d   1       0.013  88.287 117.884  0.00  0.00     0.119 C 
BRANCH   8   9
ATOM      9  C   LIG d   1      -0.891  89.321 118.584  0.00  0.00     0.028 C 
ATOM     10  C   LIG d   1      -1.756  90.113 117.589  0.00  0.00     0.006 C 
ENDBRANCH   8   9
BRANCH   8  11
ATOM     11  C   LIG d   1      -0.332  86.943 118.533  0.00  0.00     0.028 C 
ATOM     12  C   LIG d   1       0.194  85.742 117.730  0.00  0.00     0.006 C 
ENDBRANCH   8  11
ENDBRANCH   7   8
ENDBRANCH   1   7
BRANCH   6  13
ATOM     13  N   LIG d   1       2.103  91.445 119.056  0.00  0.00    -0.311 N 
ATOM     14  C   LIG d   1       1.268  92.389 118.623  0.00  0.00     0.210 C 
ATOM     15  C   LIG d   1       0.553  93.174 119.727  0.00  0.00     0.109 C 
ATOM     16  O   LIG d   1       1.028  92.628 117.430  0.00  0.00    -0.276 OA
ATOM     17  H   LIG d   1       2.213  91.297 120.040  0.00  0.00     0.149 HD
ENDBRANCH   6  13
BRANCH   5  18
ATOM     18  N   LIG d   1       4.872  92.153 117.978  0.00  0.00     0.381 N 
ATOM     19  H   LIG d   1       4.530  93.064 118.209  0.00  0.00    -0.090 HD
ATOM     20  H   LIG d   1       5.683  92.259 117.394  0.00  0.00    -0.090 HD
ATOM     21  H   LIG d   1       5.115  91.660 118.809  0.00  0.00    -0.090 HD
ENDBRANCH   5  18
BRANCH   3  22
ATOM     22  C   LIG d   1       4.054  89.163 114.327  0.00  0.00     0.382 C 
ATOM     23  O   LIG d   1       4.537  89.976 113.503  0.00  0.00    -0.241 OA
ATOM     24  O   LIG d   1       3.862  87.981 113.982  0.00  0.00    -0.241 OA
ENDBRANCH   3  22
TORSDOF 7
ENDMDL
MODEL 9
REMARK VINA RESULT:      -4.2      8.073     10.841
REMARK  7 active torsions:
REMARK  status: ('A' for Active; 'I' for Inactive)
REMARK    1  A    between atoms: C_2  and  C_3 
REMARK    2  A    between atoms: C_3  and  O_6 
REMARK    3  A    between atoms: C_3  and  C_4 
REMARK    4  A    between atoms: C_7  and  O_6 
REMARK    5  A    between atoms: C_9  and  C_10 
REMARK    6  A    between atoms: N_15  and  C_14 
REMARK    7  A    between atoms: N_20  and  C_19 
REMARK       I    between atoms: C_22  and  N_20 
ROOT
ATOM      1  C   LIG d   1       2.783  89.550 117.035  0.00  0.00     0.161 C 
ATOM      2  C   LIG d   1       2.377  88.868 115.875  0.00  0.00     0.016 C 
ATOM      3  C   LIG d   1       3.279  88.236 114.989  0.00  0.00     0.038 C 
ATOM      4  C   LIG d   1       4.645  88.112 115.284  0.00  0.00     0.028 C 
ATOM      5  C   LIG d   1       5.171  89.220 116.190  0.00  0.00    -0.047 C 
ATOM      6  C   LIG d   1       4.258  89.331 117.431  0.00  0.00     0.091 C 
ENDROOT
BRANCH   1   7
ATOM      7  O   LIG d   1       1.913  89.209 118.132  0.00  0.00    -0.368 OA
BRANCH   7   8
ATOM      8  C   LIG d   1       1.135  90.296 118.691  0.00  0.00     0.119 C 
BRANCH   8   9
ATOM      9  C   LIG d   1      -0.297  89.773 118.918  0.00  0.00     0.028 C 
ATOM     10  C   LIG d   1      -1.041  89.508 117.598  0.00  0.00     0.006 C 
ENDBRANCH   8   9
BRANCH   8  11
ATOM     11  C   LIG d   1       0.992  91.449 117.693  0.00  0.00     0.028 C 
ATOM     12  C   LIG d   1       0.920  92.824 118.376  0.00  0.00     0.006 C 
ENDBRANCH   8  11
ENDBRANCH   7   8
ENDBRANCH   1   7
BRANCH   6  13
ATOM     13  N   LIG d   1       4.653  90.448 118.329  0.00  0.00    -0.311 N 
ATOM     14  C   LIG d   1       4.688  91.722 117.941  0.00  0.00     0.210 C 
ATOM     15  C   LIG d   1       5.142  92.712 119.018  0.00  0.00     0.109 C 
ATOM     16  O   LIG d   1       4.354  92.129 116.819  0.00  0.00    -0.276 OA
ATOM     17  H   LIG d   1       4.909  90.210 119.267  0.00  0.00     0.149 HD
ENDBRANCH   6  13
BRANCH   5  18
ATOM     18  N   LIG d   1       6.569  88.893 116.528  0.00  0.00     0.381 N 
ATOM     19  H   LIG d   1       6.887  89.487 117.268  0.00  0.00    -0.090 HD
ATOM     20  H   LIG d   1       7.146  89.058 115.722  0.00  0.00    -0.090 HD
ATOM     21  H   LIG d   1       6.639  87.939 116.805  0.00  0.00    -0.090 HD
ENDBRANCH   5  18
BRANCH   3  22
ATOM     22  C   LIG d   1       2.822  87.753 113.772  0.00  0.00     0.382 C 
ATOM     23  O   LIG d   1       2.399  88.550 112.900  0.00  0.00    -0.241 OA
ATOM     24  O   LIG d   1       2.786  86.527 113.552  0.00  0.00    -0.241 OA
ENDBRANCH   3  22
TORSDOF 7
ENDMDL
