MODEL 1
REMARK VINA RESULT:      -4.6      0.000      0.000
REMARK  7 active torsions:
REMARK  status: ('A' for Active; 'I' for Inactive)
REMARK    1  A    between atoms: C_2  and  C_3 
REMARK    2  A    between atoms: C_3  and  O_6 
REMARK    3  A    between atoms: C_3  and  C_4 
REMARK    4  A    between atoms: C_7  and  O_6 
REMARK    5  A    between atoms: C_9  and  C_10 
REMARK    6  A    between atoms: N_15  and  C_14 
REMARK    7  A    between atoms: N_20  and  C_19 
REMARK       I    between atoms: C_22  and  N_20 
ROOT
ATOM      1  C   LIG d   1      -5.708  93.026 119.215  0.00  0.00     0.161 C 
ATOM      2  C   LIG d   1      -7.003  93.552 119.080  0.00  0.00     0.016 C 
ATOM      3  C   LIG d   1      -7.278  94.937 119.016  0.00  0.00     0.038 C 
ATOM      4  C   LIG d   1      -6.254  95.893 118.930  0.00  0.00     0.028 C 
ATOM      5  C   LIG d   1      -4.947  95.439 119.571  0.00  0.00    -0.047 C 
ATOM      6  C   LIG d   1      -4.570  94.048 119.012  0.00  0.00     0.091 C 
ENDROOT
BRANCH   1   7
ATOM      7  O   LIG d   1      -5.540  91.905 118.324  0.00  0.00    -0.368 OA
BRANCH   7   8
ATOM      8  C   LIG d   1      -4.973  92.204 117.025  0.00  0.00     0.119 C 
BRANCH   8   9
ATOM      9  C   LIG d   1      -6.133  92.246 116.012  0.00  0.00     0.028 C 
ATOM     10  C   LIG d   1      -6.110  91.052 115.043  0.00  0.00     0.006 C 
ENDBRANCH   8   9
BRANCH   8  11
ATOM     11  C   LIG d   1      -4.056  91.075 116.544  0.00  0.00     0.028 C 
ATOM     12  C   LIG d   1      -3.201  90.480 117.675  0.00  0.00     0.006 C 
ENDBRANCH   8  11
ENDBRANCH   7   8
ENDBRANCH   1   7
BRANCH   6  13
ATOM     13  N   LIG d   1      -3.347  93.493 119.649  0.00  0.00    -0.311 N 
ATOM     14  C   LIG d   1      -2.130  93.605 119.120  0.00  0.00     0.210 C 
ATOM     15  C   LIG d   1      -1.010  92.944 119.930  0.00  0.00     0.109 C 
ATOM     16  O   LIG d   1      -1.867  94.215 118.073  0.00  0.00    -0.276 OA
ATOM     17  H   LIG d   1      -3.465  93.009 120.517  0.00  0.00     0.149 HD
ENDBRANCH   6  13
BRANCH   5  18
ATOM     18  N   LIG d   1      -3.931  96.471 119.289  0.00  0.00     0.381 N 
ATOM     19  H   LIG d   1      -3.477  96.740 120.139  0.00  0.00    -0.090 HD
ATOM     20  H   LIG d   1      -4.387  97.280 118.905  0.00  0.00    -0.090 HD
ATOM     21  H   LIG d   1      -3.260  96.120 118.642  0.00  0.00    -0.090 HD
ENDBRANCH   5  18
BRANCH   3  22
ATOM     22  C   LIG d   1      -8.590  95.381 119.077  0.00  0.00     0.382 C 
ATOM     23  O   LIG d   1      -9.534  94.572 118.908  0.00  0.00    -0.241 OA
ATOM     24  O   LIG d   1      -8.841  96.588 119.254  0.00  0.00    -0.241 OA
ENDBRANCH   3  22
TORSDOF 7
ENDMDL
MODEL 2
REMARK VINA RESULT:      -4.6      1.774      4.579
REMARK  7 active torsions:
REMARK  status: ('A' for Active; 'I' for Inactive)
REMARK    1  A    between atoms: C_2  and  C_3 
REMARK    2  A    between atoms: C_3  and  O_6 
REMARK    3  A    between atoms: C_3  and  C_4 
REMARK    4  A    between atoms: C_7  and  O_6 
REMARK    5  A    between atoms: C_9  and  C_10 
REMARK    6  A    between atoms: N_15  and  C_14 
REMARK    7  A    between atoms: N_20  and  C_19 
REMARK       I    between atoms: C_22  and  N_20 
ROOT
ATOM      1  C   LIG d   1      -5.428  93.199 118.326  0.00  0.00     0.161 C 
ATOM      2  C   LIG d   1      -6.127  92.654 117.237  0.00  0.00     0.016 C 
ATOM      3  C   LIG d   1      -5.565  91.713 116.344  0.00  0.00     0.038 C 
ATOM      4  C   LIG d   1      -4.307  91.136 116.570  0.00  0.00     0.028 C 
ATOM      5  C   LIG d   1      -3.366  92.029 117.372  0.00  0.00    -0.047 C 
ATOM      6  C   LIG d   1      -4.092  92.499 118.654  0.00  0.00     0.091 C 
ENDROOT
BRANCH   1   7
ATOM      7  O   LIG d   1      -6.278  93.225 119.490  0.00  0.00    -0.368 OA
BRANCH   7   8
ATOM      8  C   LIG d   1      -6.717  94.533 119.930  0.00  0.00     0.119 C 
BRANCH   8   9
ATOM      9  C   LIG d   1      -8.244  94.599 119.734  0.00  0.00     0.028 C 
ATOM     10  C   LIG d   1      -8.660  95.684 118.726  0.00  0.00     0.006 C 
ENDBRANCH   8   9
BRANCH   8  11
ATOM     11  C   LIG d   1      -6.146  95.641 119.040  0.00  0.00     0.028 C 
ATOM     12  C   LIG d   1      -5.292  96.652 119.821  0.00  0.00     0.006 C 
ENDBRANCH   8  11
ENDBRANCH   7   8
ENDBRANCH   1   7
BRANCH   6  13
ATOM     13  N   LIG d   1      -3.273  93.445 119.455  0.00  0.00    -0.311 N 
ATOM     14  C   LIG d   1      -2.360  94.256 118.923  0.00  0.00     0.210 C 
ATOM     15  C   LIG d   1      -1.613  95.136 119.930  0.00  0.00     0.109 C 
ATOM     16  O   LIG d   1      -2.121  94.354 117.710  0.00  0.00    -0.276 OA
ATOM     17  H   LIG d   1      -3.424  93.454 120.445  0.00  0.00     0.149 HD
ENDBRANCH   6  13
BRANCH   5  18
ATOM     18  N   LIG d   1      -2.144  91.251 117.652  0.00  0.00     0.381 N 
ATOM     19  H   LIG d   1      -1.922  90.675 116.865  0.00  0.00    -0.090 HD
ATOM     20  H   LIG d   1      -2.313  90.654 118.442  0.00  0.00    -0.090 HD
ATOM     21  H   LIG d   1      -1.386  91.867 117.847  0.00  0.00    -0.090 HD
ENDBRANCH   5  18
BRANCH   3  22
ATOM     22  C   LIG d   1      -6.249  91.370 115.187  0.00  0.00     0.382 C 
ATOM     23  O   LIG d   1      -6.594  92.262 114.375  0.00  0.00    -0.241 OA
ATOM     24  O   LIG d   1      -6.564  90.185 114.967  0.00  0.00    -0.241 OA
ENDBRANCH   3  22
TORSDOF 7
ENDMDL
MODEL 3
REMARK VINA RESULT:      -4.5      2.294      5.866
REMARK  7 active torsions:
REMARK  status: ('A' for Active; 'I' for Inactive)
REMARK    1  A    between atoms: C_2  and  C_3 
REMARK    2  A    between atoms: C_3  and  O_6 
REMARK    3  A    between atoms: C_3  and  C_4 
REMARK    4  A    between atoms: C_7  and  O_6 
REMARK    5  A    between atoms: C_9  and  C_10 
REMARK    6  A    between atoms: N_15  and  C_14 
REMARK    7  A    between atoms: N_20  and  C_19 
REMARK       I    between atoms: C_22  and  N_20 
ROOT
ATOM      1  C   LIG d   1      -5.310  92.914 119.208  0.00  0.00     0.161 C 
ATOM      2  C   LIG d   1      -4.189  92.139 118.867  0.00  0.00     0.016 C 
ATOM      3  C   LIG d   1      -4.012  91.544 117.596  0.00  0.00     0.038 C 
ATOM      4  C   LIG d   1      -4.877  91.812 116.525  0.00  0.00     0.028 C 
ATOM      5  C   LIG d   1      -6.290  92.179 116.966  0.00  0.00    -0.047 C 
ATOM      6  C   LIG d   1      -6.210  93.308 118.018  0.00  0.00     0.091 C 
ENDROOT
BRANCH   1   7
ATOM      7  O   LIG d   1      -4.890  94.088 119.930  0.00  0.00    -0.368 OA
BRANCH   7   8
ATOM      8  C   LIG d   1      -4.184  95.092 119.159  0.00  0.00     0.119 C 
BRANCH   8   9
ATOM      9  C   LIG d   1      -2.687  94.971 119.504  0.00  0.00     0.028 C 
ATOM     10  C   LIG d   1      -1.854  94.442 118.324  0.00  0.00     0.006 C 
ENDBRANCH   8   9
BRANCH   8  11
ATOM     11  C   LIG d   1      -4.586  96.507 119.586  0.00  0.00     0.028 C 
ATOM     12  C   LIG d   1      -3.376  97.430 119.803  0.00  0.00     0.006 C 
ENDBRANCH   8  11
ENDBRANCH   7   8
ENDBRANCH   1   7
BRANCH   6  13
ATOM     13  N   LIG d   1      -7.544  93.670 118.564  0.00  0.00    -0.311 N 
ATOM     14  C   LIG d   1      -8.024  94.913 118.564  0.00  0.00     0.210 C 
ATOM     15  C   LIG d   1      -9.411  95.070 119.193  0.00  0.00     0.109 C 
ATOM     16  O   LIG d   1      -7.446  95.894 118.072  0.00  0.00    -0.276 OA
ATOM     17  H   LIG d   1      -8.093  92.930 118.955  0.00  0.00     0.149 HD
ENDBRANCH   6  13
BRANCH   5  18
ATOM     18  N   LIG d   1      -7.046  92.566 115.760  0.00  0.00     0.381 N 
ATOM     19  H   LIG d   1      -7.991  92.785 116.008  0.00  0.00    -0.090 HD
ATOM     20  H   LIG d   1      -7.060  91.790 115.122  0.00  0.00    -0.090 HD
ATOM     21  H   LIG d   1      -6.618  93.354 115.327  0.00  0.00    -0.090 HD
ENDBRANCH   5  18
BRANCH   3  22
ATOM     22  C   LIG d   1      -2.980  90.639 117.399  0.00  0.00     0.382 C 
ATOM     23  O   LIG d   1      -1.791  91.039 117.374  0.00  0.00    -0.241 OA
ATOM     24  O   LIG d   1      -3.226  89.434 117.201  0.00  0.00    -0.241 OA
ENDBRANCH   3  22
TORSDOF 7
ENDMDL
MODEL 4
REMARK VINA RESULT:      -4.3      8.997     11.464
REMARK  7 active torsions:
REMARK  status: ('A' for Active; 'I' for Inactive)
REMARK    1  A    between atoms: C_2  and  C_3 
REMARK    2  A    between atoms: C_3  and  O_6 
REMARK    3  A    between atoms: C_3  and  C_4 
REMARK    4  A    between atoms: C_7  and  O_6 
REMARK    5  A    between atoms: C_9  and  C_10 
REMARK    6  A    between atoms: N_15  and  C_14 
REMARK    7  A    between atoms: N_20  and  C_19 
REMARK       I    between atoms: C_22  and  N_20 
ROOT
ATOM      1  C   LIG d   1       3.692  88.812 116.054  0.00  0.00     0.161 C 
ATOM      2  C   LIG d   1       2.632  88.411 115.224  0.00  0.00     0.016 C 
ATOM      3  C   LIG d   1       2.801  88.039 113.871  0.00  0.00     0.038 C 
ATOM      4  C   LIG d   1       4.071  87.895 113.294  0.00  0.00     0.028 C 
ATOM      5  C   LIG d   1       5.135  88.774 113.945  0.00  0.00    -0.047 C 
ATOM      6  C   LIG d   1       5.099  88.554 115.475  0.00  0.00     0.091 C 
ENDROOT
BRANCH   1   7
ATOM      7  O   LIG d   1       3.561  88.190 117.348  0.00  0.00    -0.368 OA
BRANCH   7   8
ATOM      8  C   LIG d   1       3.229  89.072 118.448  0.00  0.00     0.119 C 
BRANCH   8   9
ATOM      9  C   LIG d   1       1.785  88.750 118.879  0.00  0.00     0.028 C 
ATOM     10  C   LIG d   1       0.759  89.710 118.253  0.00  0.00     0.006 C 
ENDBRANCH   8   9
BRANCH   8  11
ATOM     11  C   LIG d   1       3.202  90.536 118.000  0.00  0.00     0.028 C 
ATOM     12  C   LIG d   1       4.239  91.402 118.733  0.00  0.00     0.006 C 
ENDBRANCH   8  11
ENDBRANCH   7   8
ENDBRANCH   1   7
BRANCH   6  13
ATOM     13  N   LIG d   1       6.051  89.439 116.196  0.00  0.00    -0.311 N 
ATOM     14  C   LIG d   1       6.827  89.021 117.195  0.00  0.00     0.210 C 
ATOM     15  C   LIG d   1       7.721  90.099 117.814  0.00  0.00     0.109 C 
ATOM     16  O   LIG d   1       6.884  87.851 117.604  0.00  0.00    -0.276 OA
ATOM     17  H   LIG d   1       6.092  90.396 115.907  0.00  0.00     0.149 HD
ENDBRANCH   6  13
BRANCH   5  18
ATOM     18  N   LIG d   1       6.434  88.423 113.341  0.00  0.00     0.381 N 
ATOM     19  H   LIG d   1       7.177  88.697 113.952  0.00  0.00    -0.090 HD
ATOM     20  H   LIG d   1       6.536  88.925 112.476  0.00  0.00    -0.090 HD
ATOM     21  H   LIG d   1       6.477  87.442 113.171  0.00  0.00    -0.090 HD
ENDBRANCH   5  18
BRANCH   3  22
ATOM     22  C   LIG d   1       1.687  87.844 113.067  0.00  0.00     0.382 C 
ATOM     23  O   LIG d   1       1.197  86.696 112.943  0.00  0.00    -0.241 OA
ATOM     24  O   LIG d   1       1.194  88.794 112.430  0.00  0.00    -0.241 OA
ENDBRANCH   3  22
TORSDOF 7
ENDMDL
MODEL 5
REMARK VINA RESULT:      -4.3      7.418     10.816
REMARK  7 active torsions:
REMARK  status: ('A' for Active; 'I' for Inactive)
REMARK    1  A    between atoms: C_2  and  C_3 
REMARK    2  A    between atoms: C_3  and  O_6 
REMARK    3  A    between atoms: C_3  and  C_4 
REMARK    4  A    between atoms: C_7  and  O_6 
REMARK    5  A    between atoms: C_9  and  C_10 
REMARK    6  A    between atoms: N_15  and  C_14 
REMARK    7  A    between atoms: N_20  and  C_19 
REMARK       I    between atoms: C_22  and  N_20 
ROOT
ATOM      1  C   LIG d   1       2.500  88.850 116.551  0.00  0.00     0.161 C 
ATOM      2  C   LIG d   1       3.462  89.482 117.356  0.00  0.00     0.016 C 
ATOM      3  C   LIG d   1       4.786  89.739 116.931  0.00  0.00     0.038 C 
ATOM      4  C   LIG d   1       5.196  89.516 115.608  0.00  0.00     0.028 C 
ATOM      5  C   LIG d   1       4.407  88.415 114.907  0.00  0.00    -0.047 C 
ATOM      6  C   LIG d   1       2.896  88.701 115.067  0.00  0.00     0.091 C 
ENDROOT
BRANCH   1   7
ATOM      7  O   LIG d   1       1.239  89.539 116.665  0.00  0.00    -0.368 OA
BRANCH   7   8
ATOM      8  C   LIG d   1       0.714  89.688 118.007  0.00  0.00     0.119 C 
BRANCH   8   9
ATOM      9  C   LIG d   1      -0.402  88.640 118.187  0.00  0.00     0.028 C 
ATOM     10  C   LIG d   1      -1.805  89.268 118.166  0.00  0.00     0.006 C 
ENDBRANCH   8   9
BRANCH   8  11
ATOM     11  C   LIG d   1       0.028  91.046 118.189  0.00  0.00     0.028 C 
ATOM     12  C   LIG d   1       1.008  92.158 118.594  0.00  0.00     0.006 C 
ENDBRANCH   8  11
ENDBRANCH   7   8
ENDBRANCH   1   7
BRANCH   6  13
ATOM     13  N   LIG d   1       2.052  87.627 114.482  0.00  0.00    -0.311 N 
ATOM     14  C   LIG d   1       1.535  87.687 113.256  0.00  0.00     0.210 C 
ATOM     15  C   LIG d   1       0.677  86.482 112.856  0.00  0.00     0.109 C 
ATOM     16  O   LIG d   1       1.732  88.608 112.450  0.00  0.00    -0.276 OA
ATOM     17  H   LIG d   1       1.867  86.828 115.056  0.00  0.00     0.149 HD
ENDBRANCH   6  13
BRANCH   5  18
ATOM     18  N   LIG d   1       4.843  88.383 113.498  0.00  0.00     0.381 N 
ATOM     19  H   LIG d   1       5.448  89.159 113.313  0.00  0.00    -0.090 HD
ATOM     20  H   LIG d   1       4.036  88.464 112.906  0.00  0.00    -0.090 HD
ATOM     21  H   LIG d   1       5.320  87.529 113.308  0.00  0.00    -0.090 HD
ENDBRANCH   5  18
BRANCH   3  22
ATOM     22  C   LIG d   1       5.726  90.188 117.845  0.00  0.00     0.382 C 
ATOM     23  O   LIG d   1       6.950  90.098 117.582  0.00  0.00    -0.241 OA
ATOM     24  O   LIG d   1       5.368  90.641 118.949  0.00  0.00    -0.241 OA
ENDBRANCH   3  22
TORSDOF 7
ENDMDL
MODEL 6
REMARK VINA RESULT:      -4.3      2.578      4.338
REMARK  7 active torsions:
REMARK  status: ('A' for Active; 'I' for Inactive)
REMARK    1  A    between atoms: C_2  and  C_3 
REMARK    2  A    between atoms: C_3  and  O_6 
REMARK    3  A    between atoms: C_3  and  C_4 
REMARK    4  A    between atoms: C_7  and  O_6 
REMARK    5  A    between atoms: C_9  and  C_10 
REMARK    6  A    between atoms: N_15  and  C_14 
REMARK    7  A    between atoms: N_20  and  C_19 
REMARK       I    between atoms: C_22  and  N_20 
ROOT
ATOM      1  C   LIG d   1      -4.832  92.591 118.124  0.00  0.00     0.161 C 
ATOM      2  C   LIG d   1      -4.291  93.704 118.789  0.00  0.00     0.016 C 
ATOM      3  C   LIG d   1      -5.057  94.827 119.176  0.00  0.00     0.038 C 
ATOM      4  C   LIG d   1      -6.455  94.848 119.059  0.00  0.00     0.028 C 
ATOM      5  C   LIG d   1      -6.981  93.961 117.936  0.00  0.00    -0.047 C 
ATOM      6  C   LIG d   1      -6.374  92.547 118.087  0.00  0.00     0.091 C 
ENDROOT
BRANCH   1   7
ATOM      7  O   LIG d   1      -4.310  91.377 118.699  0.00  0.00    -0.368 OA
BRANCH   7   8
ATOM      8  C   LIG d   1      -2.912  91.401 119.077  0.00  0.00     0.119 C 
BRANCH   8   9
ATOM      9  C   LIG d   1      -2.081  91.266 117.786  0.00  0.00     0.028 C 
ATOM     10  C   LIG d   1      -0.603  91.635 117.998  0.00  0.00     0.006 C 
ENDBRANCH   8   9
BRANCH   8  11
ATOM     11  C   LIG d   1      -2.543  90.180 119.926  0.00  0.00     0.028 C 
ATOM     12  C   LIG d   1      -2.813  88.850 119.204  0.00  0.00     0.006 C 
ENDBRANCH   8  11
ENDBRANCH   7   8
ENDBRANCH   1   7
BRANCH   6  13
ATOM     13  N   LIG d   1      -6.772  91.638 116.980  0.00  0.00    -0.311 N 
ATOM     14  C   LIG d   1      -6.488  91.874 115.700  0.00  0.00     0.210 C 
ATOM     15  C   LIG d   1      -7.008  90.820 114.718  0.00  0.00     0.109 C 
ATOM     16  O   LIG d   1      -5.828  92.840 115.288  0.00  0.00    -0.276 OA
ATOM     17  H   LIG d   1      -7.283  90.814 117.228  0.00  0.00     0.149 HD
ENDBRANCH   6  13
BRANCH   5  18
ATOM     18  N   LIG d   1      -8.454  93.969 118.015  0.00  0.00     0.381 N 
ATOM     19  H   LIG d   1      -8.813  93.075 117.745  0.00  0.00    -0.090 HD
ATOM     20  H   LIG d   1      -8.810  94.657 117.375  0.00  0.00    -0.090 HD
ATOM     21  H   LIG d   1      -8.745  94.185 118.943  0.00  0.00    -0.090 HD
ENDBRANCH   5  18
BRANCH   3  22
ATOM     22  C   LIG d   1      -4.419  95.963 119.652  0.00  0.00     0.382 C 
ATOM     23  O   LIG d   1      -5.087  96.989 119.926  0.00  0.00    -0.241 OA
ATOM     24  O   LIG d   1      -3.179  95.990 119.767  0.00  0.00    -0.241 OA
ENDBRANCH   3  22
TORSDOF 7
ENDMDL
MODEL 7
REMARK VINA RESULT:      -4.2      5.328      7.474
REMARK  7 active torsions:
REMARK  status: ('A' for Active; 'I' for Inactive)
REMARK    1  A    between atoms: C_2  and  C_3 
REMARK    2  A    between atoms: C_3  and  O_6 
REMARK    3  A    between atoms: C_3  and  C_4 
REMARK    4  A    between atoms: C_7  and  O_6 
REMARK    5  A    between atoms: C_9  and  C_10 
REMARK    6  A    between atoms: N_15  and  C_14 
REMARK    7  A    between atoms: N_20  and  C_19 
REMARK       I    between atoms: C_22  and  N_20 
ROOT
ATOM      1  C   LIG d   1       0.951  89.374 118.700  0.00  0.00     0.161 C 
ATOM      2  C   LIG d   1      -0.387  89.097 118.373  0.00  0.00     0.016 C 
ATOM      3  C   LIG d   1      -1.346  90.101 118.108  0.00  0.00     0.038 C 
ATOM      4  C   LIG d   1      -0.993  91.455 118.002  0.00  0.00     0.028 C 
ATOM      5  C   LIG d   1       0.240  91.825 118.820  0.00  0.00    -0.047 C 
ATOM      6  C   LIG d   1       1.381  90.839 118.481  0.00  0.00     0.091 C 
ENDROOT
BRANCH   1   7
ATOM      7  O   LIG d   1       1.825  88.482 117.979  0.00  0.00    -0.368 OA
BRANCH   7   8
ATOM      8  C   LIG d   1       1.968  88.739 116.561  0.00  0.00     0.119 C 
BRANCH   8   9
ATOM      9  C   LIG d   1       1.546  87.459 115.813  0.00  0.00     0.028 C 
ATOM     10  C   LIG d   1       1.828  87.541 114.304  0.00  0.00     0.006 C 
ENDBRANCH   8   9
BRANCH   8  11
ATOM     11  C   LIG d   1       3.434  88.966 116.180  0.00  0.00     0.028 C 
ATOM     12  C   LIG d   1       4.407  88.592 117.309  0.00  0.00     0.006 C 
ENDBRANCH   8  11
ENDBRANCH   7   8
ENDBRANCH   1   7
BRANCH   6  13
ATOM     13  N   LIG d   1       2.598  91.078 119.300  0.00  0.00    -0.311 N 
ATOM     14  C   LIG d   1       3.627  91.817 118.886  0.00  0.00     0.210 C 
ATOM     15  C   LIG d   1       4.790  91.918 119.878  0.00  0.00     0.109 C 
ATOM     16  O   LIG d   1       3.673  92.423 117.806  0.00  0.00    -0.276 OA
ATOM     17  H   LIG d   1       2.632  90.649 120.204  0.00  0.00     0.149 HD
ENDBRANCH   6  13
BRANCH   5  18
ATOM     18  N   LIG d   1       0.576  93.227 118.510  0.00  0.00     0.381 N 
ATOM     19  H   LIG d   1       0.801  93.716 119.354  0.00  0.00    -0.090 HD
ATOM     20  H   LIG d   1      -0.225  93.669 118.094  0.00  0.00    -0.090 HD
ATOM     21  H   LIG d   1       1.348  93.262 117.882  0.00  0.00    -0.090 HD
ENDBRANCH   5  18
BRANCH   3  22
ATOM     22  C   LIG d   1      -2.684  89.758 117.983  0.00  0.00     0.382 C 
ATOM     23  O   LIG d   1      -3.326  90.099 116.961  0.00  0.00    -0.241 OA
ATOM     24  O   LIG d   1      -3.268  89.151 118.901  0.00  0.00    -0.241 OA
ENDBRANCH   3  22
TORSDOF 7
ENDMDL
MODEL 8
REMARK VINA RESULT:      -4.0      7.689     10.103
REMARK  7 active torsions:
REMARK  status: ('A' for Active; 'I' for Inactive)
REMARK    1  A    between atoms: C_2  and  C_3 
REMARK    2  A    between atoms: C_3  and  O_6 
REMARK    3  A    between atoms: C_3  and  C_4 
REMARK    4  A    between atoms: C_7  and  O_6 
REMARK    5  A    between atoms: C_9  and  C_10 
REMARK    6  A    between atoms: N_15  and  C_14 
REMARK    7  A    between atoms: N_20  and  C_19 
REMARK       I    between atoms: C_22  and  N_20 
ROOT
ATOM      1  C   LIG d   1       2.484  87.087 116.419  0.00  0.00     0.161 C 
ATOM      2  C   LIG d   1       1.154  87.368 116.775  0.00  0.00     0.016 C 
ATOM      3  C   LIG d   1       0.790  88.391 117.681  0.00  0.00     0.038 C 
ATOM      4  C   LIG d   1       1.728  89.307 118.180  0.00  0.00     0.028 C 
ATOM      5  C   LIG d   1       3.145  88.749 118.245  0.00  0.00    -0.047 C 
ATOM      6  C   LIG d   1       3.511  88.148 116.868  0.00  0.00     0.091 C 
ENDROOT
BRANCH   1   7
ATOM      7  O   LIG d   1       2.574  86.873 114.997  0.00  0.00    -0.368 OA
BRANCH   7   8
ATOM      8  C   LIG d   1       2.523  88.060 114.168  0.00  0.00     0.119 C 
BRANCH   8   9
ATOM      9  C   LIG d   1       1.494  87.801 113.051  0.00  0.00     0.028 C 
ATOM     10  C   LIG d   1       0.713  86.493 113.264  0.00  0.00     0.006 C 
ENDBRANCH   8   9
BRANCH   8  11
ATOM     11  C   LIG d   1       3.854  88.296 113.448  0.00  0.00     0.028 C 
ATOM     12  C   LIG d   1       4.634  86.996 113.198  0.00  0.00     0.006 C 
ENDBRANCH   8  11
ENDBRANCH   7   8
ENDBRANCH   1   7
BRANCH   6  13
ATOM     13  N   LIG d   1       4.851  87.504 116.868  0.00  0.00    -0.311 N 
ATOM     14  C   LIG d   1       5.971  88.144 116.536  0.00  0.00     0.210 C 
ATOM     15  C   LIG d   1       7.241  87.289 116.584  0.00  0.00     0.109 C 
ATOM     16  O   LIG d   1       6.038  89.345 116.238  0.00  0.00    -0.276 OA
ATOM     17  H   LIG d   1       4.893  86.538 117.128  0.00  0.00     0.149 HD
ENDBRANCH   6  13
BRANCH   5  18
ATOM     18  N   LIG d   1       4.040  89.849 118.651  0.00  0.00     0.381 N 
ATOM     19  H   LIG d   1       3.805  90.680 118.147  0.00  0.00    -0.090 HD
ATOM     20  H   LIG d   1       4.986  89.599 118.424  0.00  0.00    -0.090 HD
ATOM     21  H   LIG d   1       3.958  90.011 119.631  0.00  0.00    -0.090 HD
ENDBRANCH   5  18
BRANCH   3  22
ATOM     22  C   LIG d   1      -0.520  88.480 118.127  0.00  0.00     0.382 C 
ATOM     23  O   LIG d   1      -1.320  89.268 117.569  0.00  0.00    -0.241 OA
ATOM     24  O   LIG d   1      -0.899  87.814 119.109  0.00  0.00    -0.241 OA
ENDBRANCH   3  22
TORSDOF 7
ENDMDL
MODEL 9
REMARK VINA RESULT:      -3.8      2.860      5.032
REMARK  7 active torsions:
REMARK  status: ('A' for Active; 'I' for Inactive)
REMARK    1  A    between atoms: C_2  and  C_3 
REMARK    2  A    between atoms: C_3  and  O_6 
REMARK    3  A    between atoms: C_3  and  C_4 
REMARK    4  A    between atoms: C_7  and  O_6 
REMARK    5  A    between atoms: C_9  and  C_10 
REMARK    6  A    between atoms: N_15  and  C_14 
REMARK    7  A    between atoms: N_20  and  C_19 
REMARK       I    between atoms: C_22  and  N_20 
ROOT
ATOM      1  C   LIG d   1      -3.058  92.914 118.367  0.00  0.00     0.161 C 
ATOM      2  C   LIG d   1      -4.136  92.756 117.480  0.00  0.00     0.016 C 
ATOM      3  C   LIG d   1      -4.471  91.522 116.876  0.00  0.00     0.038 C 
ATOM      4  C   LIG d   1      -3.839  90.323 117.238  0.00  0.00     0.028 C 
ATOM      5  C   LIG d   1      -2.416  90.519 117.751  0.00  0.00    -0.047 C 
ATOM      6  C   LIG d   1      -2.427  91.596 118.860  0.00  0.00     0.091 C 
ENDROOT
BRANCH   1   7
ATOM      7  O   LIG d   1      -3.464  93.725 119.488  0.00  0.00    -0.368 OA
BRANCH   7   8
ATOM      8  C   LIG d   1      -2.704  94.940 119.704  0.00  0.00     0.119 C 
BRANCH   8   9
ATOM      9  C   LIG d   1      -3.712  96.083 119.928  0.00  0.00     0.028 C 
ATOM     10  C   LIG d   1      -5.162  95.648 119.657  0.00  0.00     0.006 C 
ENDBRANCH   8   9
BRANCH   8  11
ATOM     11  C   LIG d   1      -1.915  95.334 118.452  0.00  0.00     0.028 C 
ATOM     12  C   LIG d   1      -0.418  95.539 118.731  0.00  0.00     0.006 C 
ENDBRANCH   8  11
ENDBRANCH   7   8
ENDBRANCH   1   7
BRANCH   6  13
ATOM     13  N   LIG d   1      -1.062  91.909 119.359  0.00  0.00    -0.311 N 
ATOM     14  C   LIG d   1       0.023  91.887 118.587  0.00  0.00     0.210 C 
ATOM     15  C   LIG d   1       1.334  92.223 119.305  0.00  0.00     0.109 C 
ATOM     16  O   LIG d   1       0.021  91.653 117.369  0.00  0.00    -0.276 OA
ATOM     17  H   LIG d   1      -0.973  92.141 120.329  0.00  0.00     0.149 HD
ENDBRANCH   6  13
BRANCH   5  18
ATOM     18  N   LIG d   1      -1.927  89.209 118.221  0.00  0.00     0.381 N 
ATOM     19  H   LIG d   1      -2.287  89.022 119.135  0.00  0.00    -0.090 HD
ATOM     20  H   LIG d   1      -0.924  89.237 118.276  0.00  0.00    -0.090 HD
ATOM     21  H   LIG d   1      -2.213  88.493 117.590  0.00  0.00    -0.090 HD
ENDBRANCH   5  18
BRANCH   3  22
ATOM     22  C   LIG d   1      -5.422  91.487 115.867  0.00  0.00     0.382 C 
ATOM     23  O   LIG d   1      -5.753  90.390 115.356  0.00  0.00    -0.241 OA
ATOM     24  O   LIG d   1      -5.921  92.542 115.433  0.00  0.00    -0.241 OA
ENDBRANCH   3  22
TORSDOF 7
ENDMDL
