MODEL 1
REMARK VINA RESULT:      -4.8      0.000      0.000
REMARK  7 active torsions:
REMARK  status: ('A' for Active; 'I' for Inactive)
REMARK    1  A    between atoms: C_2  and  C_3 
REMARK    2  A    between atoms: C_3  and  O_6 
REMARK    3  A    between atoms: C_3  and  C_4 
REMARK    4  A    between atoms: C_7  and  O_6 
REMARK    5  A    between atoms: C_9  and  C_10 
REMARK    6  A    between atoms: N_15  and  C_14 
REMARK    7  A    between atoms: N_20  and  C_19 
REMARK       I    between atoms: C_22  and  N_20 
ROOT
ATOM      1  C   LIG d   1      -0.468  91.695 117.992  0.00  0.00     0.161 C 
ATOM      2  C   LIG d   1       0.871  92.045 118.231  0.00  0.00     0.016 C 
ATOM      3  C   LIG d   1       1.302  93.376 118.440  0.00  0.00     0.038 C 
ATOM      4  C   LIG d   1       0.394  94.436 118.576  0.00  0.00     0.028 C 
ATOM      5  C   LIG d   1      -0.922  94.205 117.841  0.00  0.00    -0.047 C 
ATOM      6  C   LIG d   1      -1.488  92.824 118.247  0.00  0.00     0.091 C 
ENDROOT
BRANCH   1   7
ATOM      7  O   LIG d   1      -0.812  90.526 118.763  0.00  0.00    -0.368 OA
BRANCH   7   8
ATOM      8  C   LIG d   1      -0.961  89.292 118.019  0.00  0.00     0.119 C 
BRANCH   8   9
ATOM      9  C   LIG d   1      -2.351  88.717 118.350  0.00  0.00     0.028 C 
ATOM     10  C   LIG d   1      -2.353  87.903 119.656  0.00  0.00     0.006 C 
ENDBRANCH   8   9
BRANCH   8  11
ATOM     11  C   LIG d   1       0.040  88.233 118.490  0.00  0.00     0.028 C 
ATOM     12  C   LIG d   1       0.522  87.321 117.351  0.00  0.00     0.006 C 
ENDBRANCH   8  11
ENDBRANCH   7   8
ENDBRANCH   1   7
BRANCH   6  13
ATOM     13  N   LIG d   1      -2.732  92.482 117.510  0.00  0.00    -0.311 N 
ATOM     14  C   LIG d   1      -3.843  92.052 118.106  0.00  0.00     0.210 C 
ATOM     15  C   LIG d   1      -5.004  91.736 117.159  0.00  0.00     0.109 C 
ATOM     16  O   LIG d   1      -3.987  91.933 119.332  0.00  0.00    -0.276 OA
ATOM     17  H   LIG d   1      -2.713  92.580 116.514  0.00  0.00     0.149 HD
ENDBRANCH   6  13
BRANCH   5  18
ATOM     18  N   LIG d   1      -1.825  95.321 118.179  0.00  0.00     0.381 N 
ATOM     19  H   LIG d   1      -1.821  95.472 119.169  0.00  0.00    -0.090 HD
ATOM     20  H   LIG d   1      -2.759  95.080 117.901  0.00  0.00    -0.090 HD
ATOM     21  H   LIG d   1      -1.533  96.150 117.709  0.00  0.00    -0.090 HD
ENDBRANCH   5  18
BRANCH   3  22
ATOM     22  C   LIG d   1       2.658  93.662 118.476  0.00  0.00     0.382 C 
ATOM     23  O   LIG d   1       3.374  93.429 117.472  0.00  0.00    -0.241 OA
ATOM     24  O   LIG d   1       3.183  94.108 119.514  0.00  0.00    -0.241 OA
ENDBRANCH   3  22
TORSDOF 7
ENDMDL
MODEL 2
REMARK VINA RESULT:      -4.7      3.334      7.029
REMARK  7 active torsions:
REMARK  status: ('A' for Active; 'I' for Inactive)
REMARK    1  A    between atoms: C_2  and  C_3 
REMARK    2  A    between atoms: C_3  and  O_6 
REMARK    3  A    between atoms: C_3  and  C_4 
REMARK    4  A    between atoms: C_7  and  O_6 
REMARK    5  A    between atoms: C_9  and  C_10 
REMARK    6  A    between atoms: N_15  and  C_14 
REMARK    7  A    between atoms: N_20  and  C_19 
REMARK       I    between atoms: C_22  and  N_20 
ROOT
ATOM      1  C   LIG d   1      -5.858  92.122 118.799  0.00  0.00     0.161 C 
ATOM      2  C   LIG d   1      -7.002  92.934 118.868  0.00  0.00     0.016 C 
ATOM      3  C   LIG d   1      -6.961  94.313 119.174  0.00  0.00     0.038 C 
ATOM      4  C   LIG d   1      -5.750  95.012 119.285  0.00  0.00     0.028 C 
ATOM      5  C   LIG d   1      -4.582  94.135 119.722  0.00  0.00    -0.047 C 
ATOM      6  C   LIG d   1      -4.519  92.890 118.807  0.00  0.00     0.091 C 
ENDROOT
BRANCH   1   7
ATOM      7  O   LIG d   1      -5.936  91.264 117.644  0.00  0.00    -0.368 OA
BRANCH   7   8
ATOM      8  C   LIG d   1      -7.232  91.175 117.002  0.00  0.00     0.119 C 
BRANCH   8   9
ATOM      9  C   LIG d   1      -7.306  89.807 116.297  0.00  0.00     0.028 C 
ATOM     10  C   LIG d   1      -8.674  89.128 116.476  0.00  0.00     0.006 C 
ENDBRANCH   8   9
BRANCH   8  11
ATOM     11  C   LIG d   1      -7.373  92.215 115.886  0.00  0.00     0.028 C 
ATOM     12  C   LIG d   1      -6.405  91.971 114.718  0.00  0.00     0.006 C 
ENDBRANCH   8  11
ENDBRANCH   7   8
ENDBRANCH   1   7
BRANCH   6  13
ATOM     13  N   LIG d   1      -3.456  91.937 119.219  0.00  0.00    -0.311 N 
ATOM     14  C   LIG d   1      -2.224  91.949 118.714  0.00  0.00     0.210 C 
ATOM     15  C   LIG d   1      -1.289  90.866 119.262  0.00  0.00     0.109 C 
ATOM     16  O   LIG d   1      -1.807  92.774 117.886  0.00  0.00    -0.276 OA
ATOM     17  H   LIG d   1      -3.699  91.253 119.909  0.00  0.00     0.149 HD
ENDBRANCH   6  13
BRANCH   5  18
ATOM     18  N   LIG d   1      -3.359  94.958 119.663  0.00  0.00     0.381 N 
ATOM     19  H   LIG d   1      -2.566  94.404 119.917  0.00  0.00    -0.090 HD
ATOM     20  H   LIG d   1      -3.442  95.711 120.323  0.00  0.00    -0.090 HD
ATOM     21  H   LIG d   1      -3.238  95.323 118.744  0.00  0.00    -0.090 HD
ENDBRANCH   5  18
BRANCH   3  22
ATOM     22  C   LIG d   1      -8.142  95.000 119.412  0.00  0.00     0.382 C 
ATOM     23  O   LIG d   1      -9.245  94.425 119.249  0.00  0.00    -0.241 OA
ATOM     24  O   LIG d   1      -8.119  96.200 119.745  0.00  0.00    -0.241 OA
ENDBRANCH   3  22
TORSDOF 7
ENDMDL
MODEL 3
REMARK VINA RESULT:      -4.3      0.976      1.796
REMARK  7 active torsions:
REMARK  status: ('A' for Active; 'I' for Inactive)
REMARK    1  A    between atoms: C_2  and  C_3 
REMARK    2  A    between atoms: C_3  and  O_6 
REMARK    3  A    between atoms: C_3  and  C_4 
REMARK    4  A    between atoms: C_7  and  O_6 
REMARK    5  A    between atoms: C_9  and  C_10 
REMARK    6  A    between atoms: N_15  and  C_14 
REMARK    7  A    between atoms: N_20  and  C_19 
REMARK       I    between atoms: C_22  and  N_20 
ROOT
ATOM      1  C   LIG d   1       0.226  90.909 118.437  0.00  0.00     0.161 C 
ATOM      2  C   LIG d   1       1.539  91.365 118.638  0.00  0.00     0.016 C 
ATOM      3  C   LIG d   1       1.925  92.717 118.489  0.00  0.00     0.038 C 
ATOM      4  C   LIG d   1       0.985  93.736 118.274  0.00  0.00     0.028 C 
ATOM      5  C   LIG d   1      -0.277  93.258 117.566  0.00  0.00    -0.047 C 
ATOM      6  C   LIG d   1      -0.834  92.023 118.312  0.00  0.00     0.091 C 
ENDROOT
BRANCH   1   7
ATOM      7  O   LIG d   1      -0.138  89.988 119.485  0.00  0.00    -0.368 OA
BRANCH   7   8
ATOM      8  C   LIG d   1       0.071  88.583 119.199  0.00  0.00     0.119 C 
BRANCH   8   9
ATOM      9  C   LIG d   1       0.023  88.409 117.669  0.00  0.00     0.028 C 
ATOM     10  C   LIG d   1       0.706  87.113 117.204  0.00  0.00     0.006 C 
ENDBRANCH   8   9
BRANCH   8  11
ATOM     11  C   LIG d   1      -1.078  87.728 119.741  0.00  0.00     0.028 C 
ATOM     12  C   LIG d   1      -2.440  88.112 119.143  0.00  0.00     0.006 C 
ENDBRANCH   8  11
ENDBRANCH   7   8
ENDBRANCH   1   7
BRANCH   6  13
ATOM     13  N   LIG d   1      -2.022  91.441 117.635  0.00  0.00    -0.311 N 
ATOM     14  C   LIG d   1      -3.274  91.791 117.922  0.00  0.00     0.210 C 
ATOM     15  C   LIG d   1      -4.352  91.053 117.121  0.00  0.00     0.109 C 
ATOM     16  O   LIG d   1      -3.594  92.666 118.741  0.00  0.00    -0.276 OA
ATOM     17  H   LIG d   1      -1.853  90.745 116.935  0.00  0.00     0.149 HD
ENDBRANCH   6  13
BRANCH   5  18
ATOM     18  N   LIG d   1      -1.224  94.388 117.530  0.00  0.00     0.381 N 
ATOM     19  H   LIG d   1      -1.047  95.003 118.299  0.00  0.00    -0.090 HD
ATOM     20  H   LIG d   1      -2.159  94.031 117.621  0.00  0.00    -0.090 HD
ATOM     21  H   LIG d   1      -1.132  94.884 116.671  0.00  0.00    -0.090 HD
ENDBRANCH   5  18
BRANCH   3  22
ATOM     22  C   LIG d   1       3.269  93.055 118.514  0.00  0.00     0.382 C 
ATOM     23  O   LIG d   1       3.953  92.829 119.542  0.00  0.00    -0.241 OA
ATOM     24  O   LIG d   1       3.797  93.623 117.540  0.00  0.00    -0.241 OA
ENDBRANCH   3  22
TORSDOF 7
ENDMDL
MODEL 4
REMARK VINA RESULT:      -4.2      2.989      4.368
REMARK  7 active torsions:
REMARK  status: ('A' for Active; 'I' for Inactive)
REMARK    1  A    between atoms: C_2  and  C_3 
REMARK    2  A    between atoms: C_3  and  O_6 
REMARK    3  A    between atoms: C_3  and  C_4 
REMARK    4  A    between atoms: C_7  and  O_6 
REMARK    5  A    between atoms: C_9  and  C_10 
REMARK    6  A    between atoms: N_15  and  C_14 
REMARK    7  A    between atoms: N_20  and  C_19 
REMARK       I    between atoms: C_22  and  N_20 
ROOT
ATOM      1  C   LIG d   1      -3.840  91.626 117.846  0.00  0.00     0.161 C 
ATOM      2  C   LIG d   1      -3.093  92.628 118.488  0.00  0.00     0.016 C 
ATOM      3  C   LIG d   1      -3.677  93.681 119.228  0.00  0.00     0.038 C 
ATOM      4  C   LIG d   1      -5.052  93.719 119.505  0.00  0.00     0.028 C 
ATOM      5  C   LIG d   1      -5.901  93.008 118.457  0.00  0.00    -0.047 C 
ATOM      6  C   LIG d   1      -5.334  91.588 118.231  0.00  0.00     0.091 C 
ENDROOT
BRANCH   1   7
ATOM      7  O   LIG d   1      -3.231  90.340 118.075  0.00  0.00    -0.368 OA
BRANCH   7   8
ATOM      8  C   LIG d   1      -1.967  90.351 118.784  0.00  0.00     0.119 C 
BRANCH   8   9
ATOM      9  C   LIG d   1      -0.858  90.049 117.757  0.00  0.00     0.028 C 
ATOM     10  C   LIG d   1       0.282  91.079 117.805  0.00  0.00     0.006 C 
ENDBRANCH   8   9
BRANCH   8  11
ATOM     11  C   LIG d   1      -1.892  89.214 119.807  0.00  0.00     0.028 C 
ATOM     12  C   LIG d   1      -2.474  87.894 119.276  0.00  0.00     0.006 C 
ENDBRANCH   8  11
ENDBRANCH   7   8
ENDBRANCH   1   7
BRANCH   6  13
ATOM     13  N   LIG d   1      -6.055  90.854 117.159  0.00  0.00    -0.311 N 
ATOM     14  C   LIG d   1      -6.244  91.343 115.934  0.00  0.00     0.210 C 
ATOM     15  C   LIG d   1      -7.031  90.431 114.988  0.00  0.00     0.109 C 
ATOM     16  O   LIG d   1      -5.807  92.432 115.533  0.00  0.00    -0.276 OA
ATOM     17  H   LIG d   1      -6.416  89.949 117.389  0.00  0.00     0.149 HD
ENDBRANCH   6  13
BRANCH   5  18
ATOM     18  N   LIG d   1      -7.294  93.004 118.940  0.00  0.00     0.381 N 
ATOM     19  H   LIG d   1      -7.333  93.382 119.865  0.00  0.00    -0.090 HD
ATOM     20  H   LIG d   1      -7.625  92.056 118.972  0.00  0.00    -0.090 HD
ATOM     21  H   LIG d   1      -7.869  93.543 118.329  0.00  0.00    -0.090 HD
ENDBRANCH   5  18
BRANCH   3  22
ATOM     22  C   LIG d   1      -2.888  94.734 119.666  0.00  0.00     0.382 C 
ATOM     23  O   LIG d   1      -1.657  94.564 119.842  0.00  0.00    -0.241 OA
ATOM     24  O   LIG d   1      -3.398  95.839 119.930  0.00  0.00    -0.241 OA
ENDBRANCH   3  22
TORSDOF 7
ENDMDL
MODEL 5
REMARK VINA RESULT:      -4.2      4.455      6.060
REMARK  7 active torsions:
REMARK  status: ('A' for Active; 'I' for Inactive)
REMARK    1  A    between atoms: C_2  and  C_3 
REMARK    2  A    between atoms: C_3  and  O_6 
REMARK    3  A    between atoms: C_3  and  C_4 
REMARK    4  A    between atoms: C_7  and  O_6 
REMARK    5  A    between atoms: C_9  and  C_10 
REMARK    6  A    between atoms: N_15  and  C_14 
REMARK    7  A    between atoms: N_20  and  C_19 
REMARK       I    between atoms: C_22  and  N_20 
ROOT
ATOM      1  C   LIG d   1       2.793  88.830 116.567  0.00  0.00     0.161 C 
ATOM      2  C   LIG d   1       3.312  89.667 117.568  0.00  0.00     0.016 C 
ATOM      3  C   LIG d   1       4.423  90.519 117.372  0.00  0.00     0.038 C 
ATOM      4  C   LIG d   1       4.999  90.706 116.106  0.00  0.00     0.028 C 
ATOM      5  C   LIG d   1       4.831  89.506 115.181  0.00  0.00    -0.047 C 
ATOM      6  C   LIG d   1       3.339  89.102 115.149  0.00  0.00     0.091 C 
ENDROOT
BRANCH   1   7
ATOM      7  O   LIG d   1       1.353  88.899 116.571  0.00  0.00    -0.368 OA
BRANCH   7   8
ATOM      8  C   LIG d   1       0.735  89.235 117.837  0.00  0.00     0.119 C 
BRANCH   8   9
ATOM      9  C   LIG d   1      -0.089  88.013 118.288  0.00  0.00     0.028 C 
ATOM     10  C   LIG d   1      -1.586  88.336 118.434  0.00  0.00     0.006 C 
ENDBRANCH   8   9
BRANCH   8  11
ATOM     11  C   LIG d   1      -0.279  90.372 117.678  0.00  0.00     0.028 C 
ATOM     12  C   LIG d   1       0.374  91.762 117.712  0.00  0.00     0.006 C 
ENDBRANCH   8  11
ENDBRANCH   7   8
ENDBRANCH   1   7
BRANCH   6  13
ATOM     13  N   LIG d   1       3.098  87.884 114.333  0.00  0.00    -0.311 N 
ATOM     14  C   LIG d   1       2.635  87.917 113.085  0.00  0.00     0.210 C 
ATOM     15  C   LIG d   1       2.440  86.546 112.430  0.00  0.00     0.109 C 
ATOM     16  O   LIG d   1       2.397  88.954 112.446  0.00  0.00    -0.276 OA
ATOM     17  H   LIG d   1       3.295  87.001 114.762  0.00  0.00     0.149 HD
ENDBRANCH   6  13
BRANCH   5  18
ATOM     18  N   LIG d   1       5.355  89.888 113.856  0.00  0.00     0.381 N 
ATOM     19  H   LIG d   1       5.554  89.066 113.321  0.00  0.00    -0.090 HD
ATOM     20  H   LIG d   1       6.211  90.398 113.980  0.00  0.00    -0.090 HD
ATOM     21  H   LIG d   1       4.689  90.452 113.376  0.00  0.00    -0.090 HD
ENDBRANCH   5  18
BRANCH   3  22
ATOM     22  C   LIG d   1       4.993  91.166 118.457  0.00  0.00     0.382 C 
ATOM     23  O   LIG d   1       6.182  91.563 118.397  0.00  0.00    -0.241 OA
ATOM     24  O   LIG d   1       4.349  91.318 119.512  0.00  0.00    -0.241 OA
ENDBRANCH   3  22
TORSDOF 7
ENDMDL
MODEL 6
REMARK VINA RESULT:      -4.2      1.980      5.078
REMARK  7 active torsions:
REMARK  status: ('A' for Active; 'I' for Inactive)
REMARK    1  A    between atoms: C_2  and  C_3 
REMARK    2  A    between atoms: C_3  and  O_6 
REMARK    3  A    between atoms: C_3  and  C_4 
REMARK    4  A    between atoms: C_7  and  O_6 
REMARK    5  A    between atoms: C_9  and  C_10 
REMARK    6  A    between atoms: N_15  and  C_14 
REMARK    7  A    between atoms: N_20  and  C_19 
REMARK       I    between atoms: C_22  and  N_20 
ROOT
ATOM      1  C   LIG d   1       0.027  90.821 118.006  0.00  0.00     0.161 C 
ATOM      2  C   LIG d   1      -1.366  90.936 117.859  0.00  0.00     0.016 C 
ATOM      3  C   LIG d   1      -2.053  92.171 117.897  0.00  0.00     0.038 C 
ATOM      4  C   LIG d   1      -1.372  93.397 117.933  0.00  0.00     0.028 C 
ATOM      5  C   LIG d   1       0.001  93.309 118.590  0.00  0.00    -0.047 C 
ATOM      6  C   LIG d   1       0.797  92.156 117.935  0.00  0.00     0.091 C 
ENDROOT
BRANCH   1   7
ATOM      7  O   LIG d   1       0.546  89.891 117.035  0.00  0.00    -0.368 OA
BRANCH   7   8
ATOM      8  C   LIG d   1       1.216  88.722 117.566  0.00  0.00     0.119 C 
BRANCH   8   9
ATOM      9  C   LIG d   1       2.398  88.401 116.631  0.00  0.00     0.028 C 
ATOM     10  C   LIG d   1       2.899  89.641 115.872  0.00  0.00     0.006 C 
ENDBRANCH   8   9
BRANCH   8  11
ATOM     11  C   LIG d   1       0.310  87.488 117.514  0.00  0.00     0.028 C 
ATOM     12  C   LIG d   1      -0.205  87.068 118.900  0.00  0.00     0.006 C 
ENDBRANCH   8  11
ENDBRANCH   7   8
ENDBRANCH   1   7
BRANCH   6  13
ATOM     13  N   LIG d   1       2.121  91.947 118.576  0.00  0.00    -0.311 N 
ATOM     14  C   LIG d   1       3.226  92.590 118.204  0.00  0.00     0.210 C 
ATOM     15  C   LIG d   1       4.489  92.210 118.983  0.00  0.00     0.109 C 
ATOM     16  O   LIG d   1       3.274  93.462 117.323  0.00  0.00    -0.276 OA
ATOM     17  H   LIG d   1       2.167  91.279 119.321  0.00  0.00     0.149 HD
ENDBRANCH   6  13
BRANCH   5  18
ATOM     18  N   LIG d   1       0.654  94.623 118.436  0.00  0.00     0.381 N 
ATOM     19  H   LIG d   1       0.097  95.211 117.850  0.00  0.00    -0.090 HD
ATOM     20  H   LIG d   1       1.547  94.492 117.994  0.00  0.00    -0.090 HD
ATOM     21  H   LIG d   1       0.776  95.049 119.328  0.00  0.00    -0.090 HD
ENDBRANCH   5  18
BRANCH   3  22
ATOM     22  C   LIG d   1      -3.439  92.185 117.938  0.00  0.00     0.382 C 
ATOM     23  O   LIG d   1      -4.031  92.642 118.945  0.00  0.00    -0.241 OA
ATOM     24  O   LIG d   1      -4.104  91.706 117.000  0.00  0.00    -0.241 OA
ENDBRANCH   3  22
TORSDOF 7
ENDMDL
MODEL 7
REMARK VINA RESULT:      -4.1      3.306      6.315
REMARK  7 active torsions:
REMARK  status: ('A' for Active; 'I' for Inactive)
REMARK    1  A    between atoms: C_2  and  C_3 
REMARK    2  A    between atoms: C_3  and  O_6 
REMARK    3  A    between atoms: C_3  and  C_4 
REMARK    4  A    between atoms: C_7  and  O_6 
REMARK    5  A    between atoms: C_9  and  C_10 
REMARK    6  A    between atoms: N_15  and  C_14 
REMARK    7  A    between atoms: N_20  and  C_19 
REMARK       I    between atoms: C_22  and  N_20 
ROOT
ATOM      1  C   LIG d   1       1.300  88.316 117.354  0.00  0.00     0.161 C 
ATOM      2  C   LIG d   1      -0.018  87.961 117.686  0.00  0.00     0.016 C 
ATOM      3  C   LIG d   1      -1.012  88.902 118.038  0.00  0.00     0.038 C 
ATOM      4  C   LIG d   1      -0.794  90.284 117.934  0.00  0.00     0.028 C 
ATOM      5  C   LIG d   1       0.670  90.680 118.090  0.00  0.00    -0.047 C 
ATOM      6  C   LIG d   1       1.526  89.826 117.127  0.00  0.00     0.091 C 
ENDROOT
BRANCH   1   7
ATOM      7  O   LIG d   1       1.733  87.566 116.202  0.00  0.00    -0.368 OA
BRANCH   7   8
ATOM      8  C   LIG d   1       2.356  86.287 116.471  0.00  0.00     0.119 C 
BRANCH   8   9
ATOM      9  C   LIG d   1       3.818  86.560 116.876  0.00  0.00     0.028 C 
ATOM     10  C   LIG d   1       4.742  86.730 115.659  0.00  0.00     0.006 C 
ENDBRANCH   8   9
BRANCH   8  11
ATOM     11  C   LIG d   1       2.440  85.430 115.204  0.00  0.00     0.028 C 
ATOM     12  C   LIG d   1       1.197  85.565 114.310  0.00  0.00     0.006 C 
ENDBRANCH   8  11
ENDBRANCH   7   8
ENDBRANCH   1   7
BRANCH   6  13
ATOM     13  N   LIG d   1       2.981  90.090 117.276  0.00  0.00    -0.311 N 
ATOM     14  C   LIG d   1       3.797  90.295 116.244  0.00  0.00     0.210 C 
ATOM     15  C   LIG d   1       5.265  90.530 116.617  0.00  0.00     0.109 C 
ATOM     16  O   LIG d   1       3.441  90.337 115.057  0.00  0.00    -0.276 OA
ATOM     17  H   LIG d   1       3.349  90.105 118.207  0.00  0.00     0.149 HD
ENDBRANCH   6  13
BRANCH   5  18
ATOM     18  N   LIG d   1       0.771  92.128 117.823  0.00  0.00     0.381 N 
ATOM     19  H   LIG d   1       1.303  92.569 118.546  0.00  0.00    -0.090 HD
ATOM     20  H   LIG d   1      -0.153  92.524 117.823  0.00  0.00    -0.090 HD
ATOM     21  H   LIG d   1       1.206  92.282 116.940  0.00  0.00    -0.090 HD
ENDBRANCH   5  18
BRANCH   3  22
ATOM     22  C   LIG d   1      -2.228  88.463 118.539  0.00  0.00     0.382 C 
ATOM     23  O   LIG d   1      -3.290  89.037 118.198  0.00  0.00    -0.241 OA
ATOM     24  O   LIG d   1      -2.273  87.528 119.360  0.00  0.00    -0.241 OA
ENDBRANCH   3  22
TORSDOF 7
ENDMDL
MODEL 8
REMARK VINA RESULT:      -4.1      2.637      6.264
REMARK  7 active torsions:
REMARK  status: ('A' for Active; 'I' for Inactive)
REMARK    1  A    between atoms: C_2  and  C_3 
REMARK    2  A    between atoms: C_3  and  O_6 
REMARK    3  A    between atoms: C_3  and  C_4 
REMARK    4  A    between atoms: C_7  and  O_6 
REMARK    5  A    between atoms: C_9  and  C_10 
REMARK    6  A    between atoms: N_15  and  C_14 
REMARK    7  A    between atoms: N_20  and  C_19 
REMARK       I    between atoms: C_22  and  N_20 
ROOT
ATOM      1  C   LIG d   1      -3.020  93.194 118.783  0.00  0.00     0.161 C 
ATOM      2  C   LIG d   1      -4.285  93.692 119.135  0.00  0.00     0.016 C 
ATOM      3  C   LIG d   1      -5.499  93.091 118.728  0.00  0.00     0.038 C 
ATOM      4  C   LIG d   1      -5.529  91.856 118.064  0.00  0.00     0.028 C 
ATOM      5  C   LIG d   1      -4.270  91.576 117.250  0.00  0.00    -0.047 C 
ATOM      6  C   LIG d   1      -3.032  91.785 118.152  0.00  0.00     0.091 C 
ENDROOT
BRANCH   1   7
ATOM      7  O   LIG d   1      -2.148  93.221 119.930  0.00  0.00    -0.368 OA
BRANCH   7   8
ATOM      8  C   LIG d   1      -1.127  94.250 119.930  0.00  0.00     0.119 C 
BRANCH   8   9
ATOM      9  C   LIG d   1      -1.242  95.016 118.598  0.00  0.00     0.028 C 
ATOM     10  C   LIG d   1      -1.883  96.403 118.772  0.00  0.00     0.006 C 
ENDBRANCH   8   9
BRANCH   8  11
ATOM     11  C   LIG d   1       0.278  93.641 119.927  0.00  0.00     0.028 C 
ATOM     12  C   LIG d   1       1.112  94.071 118.710  0.00  0.00     0.006 C 
ENDBRANCH   8  11
ENDBRANCH   7   8
ENDBRANCH   1   7
BRANCH   6  13
ATOM     13  N   LIG d   1      -1.755  91.613 117.412  0.00  0.00    -0.311 N 
ATOM     14  C   LIG d   1      -0.762  90.833 117.834  0.00  0.00     0.210 C 
ATOM     15  C   LIG d   1       0.474  90.813 116.930  0.00  0.00     0.109 C 
ATOM     16  O   LIG d   1      -0.801  90.129 118.855  0.00  0.00    -0.276 OA
ATOM     17  H   LIG d   1      -1.652  92.123 116.556  0.00  0.00     0.149 HD
ENDBRANCH   6  13
BRANCH   5  18
ATOM     18  N   LIG d   1      -4.376  90.201 116.725  0.00  0.00     0.381 N 
ATOM     19  H   LIG d   1      -4.194  90.200 115.741  0.00  0.00    -0.090 HD
ATOM     20  H   LIG d   1      -5.312  89.868 116.873  0.00  0.00    -0.090 HD
ATOM     21  H   LIG d   1      -3.726  89.607 117.191  0.00  0.00    -0.090 HD
ENDBRANCH   5  18
BRANCH   3  22
ATOM     22  C   LIG d   1      -6.699  93.748 118.952  0.00  0.00     0.382 C 
ATOM     23  O   LIG d   1      -7.700  93.484 118.243  0.00  0.00    -0.241 OA
ATOM     24  O   LIG d   1      -6.782  94.633 119.824  0.00  0.00    -0.241 OA
ENDBRANCH   3  22
TORSDOF 7
ENDMDL
MODEL 9
REMARK VINA RESULT:      -4.1      4.289      6.601
REMARK  7 active torsions:
REMARK  status: ('A' for Active; 'I' for Inactive)
REMARK    1  A    between atoms: C_2  and  C_3 
REMARK    2  A    between atoms: C_3  and  O_6 
REMARK    3  A    between atoms: C_3  and  C_4 
REMARK    4  A    between atoms: C_7  and  O_6 
REMARK    5  A    between atoms: C_9  and  C_10 
REMARK    6  A    between atoms: N_15  and  C_14 
REMARK    7  A    between atoms: N_20  and  C_19 
REMARK       I    between atoms: C_22  and  N_20 
ROOT
ATOM      1  C   LIG d   1       3.064  91.022 117.411  0.00  0.00     0.161 C 
ATOM      2  C   LIG d   1       2.806  90.302 116.232  0.00  0.00     0.016 C 
ATOM      3  C   LIG d   1       3.821  89.730 115.431  0.00  0.00     0.038 C 
ATOM      4  C   LIG d   1       5.163  89.711 115.837  0.00  0.00     0.028 C 
ATOM      5  C   LIG d   1       5.532  90.863 116.766  0.00  0.00    -0.047 C 
ATOM      6  C   LIG d   1       4.514  90.916 117.928  0.00  0.00     0.091 C 
ENDROOT
BRANCH   1   7
ATOM      7  O   LIG d   1       2.135  90.627 118.439  0.00  0.00    -0.368 OA
BRANCH   7   8
ATOM      8  C   LIG d   1       1.239  91.659 118.919  0.00  0.00     0.119 C 
BRANCH   8   9
ATOM      9  C   LIG d   1      -0.163  91.031 119.048  0.00  0.00     0.028 C 
ATOM     10  C   LIG d   1      -0.719  90.555 117.696  0.00  0.00     0.006 C 
ENDBRANCH   8   9
BRANCH   8  11
ATOM     11  C   LIG d   1       1.086  92.785 117.893  0.00  0.00     0.028 C 
ATOM     12  C   LIG d   1       1.046  94.179 118.540  0.00  0.00     0.006 C 
ENDBRANCH   8  11
ENDBRANCH   7   8
ENDBRANCH   1   7
BRANCH   6  13
ATOM     13  N   LIG d   1       4.752  92.067 118.838  0.00  0.00    -0.311 N 
ATOM     14  C   LIG d   1       4.691  93.338 118.444  0.00  0.00     0.210 C 
ATOM     15  C   LIG d   1       4.990  94.369 119.537  0.00  0.00     0.109 C 
ATOM     16  O   LIG d   1       4.386  93.710 117.301  0.00  0.00    -0.276 OA
ATOM     17  H   LIG d   1       4.975  91.856 119.791  0.00  0.00     0.149 HD
ENDBRANCH   6  13
BRANCH   5  18
ATOM     18  N   LIG d   1       6.918  90.643 117.220  0.00  0.00     0.381 N 
ATOM     19  H   LIG d   1       7.512  90.486 116.431  0.00  0.00    -0.090 HD
ATOM     20  H   LIG d   1       6.943  89.825 117.802  0.00  0.00    -0.090 HD
ATOM     21  H   LIG d   1       7.238  91.435 117.733  0.00  0.00    -0.090 HD
ENDBRANCH   5  18
BRANCH   3  22
ATOM     22  C   LIG d   1       3.501  89.204 114.189  0.00  0.00     0.382 C 
ATOM     23  O   LIG d   1       4.063  89.646 113.157  0.00  0.00    -0.241 OA
ATOM     24  O   LIG d   1       2.625  88.325 114.081  0.00  0.00    -0.241 OA
ENDBRANCH   3  22
TORSDOF 7
ENDMDL
