MODEL 1
REMARK VINA RESULT:      -4.1      0.000      0.000
REMARK  7 active torsions:
REMARK  status: ('A' for Active; 'I' for Inactive)
REMARK    1  A    between atoms: C_2  and  C_3 
REMARK    2  A    between atoms: C_3  and  O_6 
REMARK    3  A    between atoms: C_3  and  C_4 
REMARK    4  A    between atoms: C_7  and  O_6 
REMARK    5  A    between atoms: C_9  and  C_10 
REMARK    6  A    between atoms: N_15  and  C_14 
REMARK    7  A    between atoms: N_20  and  C_19 
REMARK       I    between atoms: C_22  and  N_20 
ROOT
ATOM      1  C   LIG d   1       0.423  89.696 117.742  0.00  0.00     0.161 C 
ATOM      2  C   LIG d   1      -0.946  89.379 117.755  0.00  0.00     0.016 C 
ATOM      3  C   LIG d   1      -1.957  90.310 118.087  0.00  0.00     0.038 C 
ATOM      4  C   LIG d   1      -1.677  91.670 118.284  0.00  0.00     0.028 C 
ATOM      5  C   LIG d   1      -0.258  91.931 118.777  0.00  0.00    -0.047 C 
ATOM      6  C   LIG d   1       0.739  91.203 117.846  0.00  0.00     0.091 C 
ENDROOT
BRANCH   1   7
ATOM      7  O   LIG d   1       1.044  89.134 116.569  0.00  0.00    -0.368 OA
BRANCH   7   8
ATOM      8  C   LIG d   1       2.097  88.168 116.807  0.00  0.00     0.119 C 
BRANCH   8   9
ATOM      9  C   LIG d   1       3.125  88.313 115.668  0.00  0.00     0.028 C 
ATOM     10  C   LIG d   1       3.155  89.735 115.083  0.00  0.00     0.006 C 
ENDBRANCH   8   9
BRANCH   8  11
ATOM     11  C   LIG d   1       1.572  86.733 116.699  0.00  0.00     0.028 C 
ATOM     12  C   LIG d   1       1.544  86.217 115.251  0.00  0.00     0.006 C 
ENDBRANCH   8  11
ENDBRANCH   7   8
ENDBRANCH   1   7
BRANCH   6  13
ATOM     13  N   LIG d   1       2.146  91.337 118.306  0.00  0.00    -0.311 N 
ATOM     14  C   LIG d   1       2.986  92.258 117.837  0.00  0.00     0.210 C 
ATOM     15  C   LIG d   1       4.397  92.209 118.432  0.00  0.00     0.109 C 
ATOM     16  O   LIG d   1       2.687  93.131 117.008  0.00  0.00    -0.276 OA
ATOM     17  H   LIG d   1       2.462  90.689 119.000  0.00  0.00     0.149 HD
ENDBRANCH   6  13
BRANCH   5  18
ATOM     18  N   LIG d   1      -0.058  93.392 118.808  0.00  0.00     0.381 N 
ATOM     19  H   LIG d   1      -0.939  93.852 118.927  0.00  0.00    -0.090 HD
ATOM     20  H   LIG d   1       0.334  93.685 117.931  0.00  0.00    -0.090 HD
ATOM     21  H   LIG d   1       0.555  93.637 119.553  0.00  0.00    -0.090 HD
ENDBRANCH   5  18
BRANCH   3  22
ATOM     22  C   LIG d   1      -3.261  89.873 118.264  0.00  0.00     0.382 C 
ATOM     23  O   LIG d   1      -3.543  89.111 119.220  0.00  0.00    -0.241 OA
ATOM     24  O   LIG d   1      -4.151  90.196 117.455  0.00  0.00    -0.241 OA
ENDBRANCH   3  22
TORSDOF 7
ENDMDL
MODEL 2
REMARK VINA RESULT:      -4.1      3.513      5.209
REMARK  7 active torsions:
REMARK  status: ('A' for Active; 'I' for Inactive)
REMARK    1  A    between atoms: C_2  and  C_3 
REMARK    2  A    between atoms: C_3  and  O_6 
REMARK    3  A    between atoms: C_3  and  C_4 
REMARK    4  A    between atoms: C_7  and  O_6 
REMARK    5  A    between atoms: C_9  and  C_10 
REMARK    6  A    between atoms: N_15  and  C_14 
REMARK    7  A    between atoms: N_20  and  C_19 
REMARK       I    between atoms: C_22  and  N_20 
ROOT
ATOM      1  C   LIG d   1       3.671  89.388 116.013  0.00  0.00     0.161 C 
ATOM      2  C   LIG d   1       2.862  90.535 116.069  0.00  0.00     0.016 C 
ATOM      3  C   LIG d   1       2.804  91.393 117.191  0.00  0.00     0.038 C 
ATOM      4  C   LIG d   1       3.671  91.245 118.283  0.00  0.00     0.028 C 
ATOM      5  C   LIG d   1       4.148  89.811 118.488  0.00  0.00    -0.047 C 
ATOM      6  C   LIG d   1       4.707  89.273 117.151  0.00  0.00     0.091 C 
ENDROOT
BRANCH   1   7
ATOM      7  O   LIG d   1       4.325  89.314 114.731  0.00  0.00    -0.368 OA
BRANCH   7   8
ATOM      8  C   LIG d   1       3.675  88.491 113.731  0.00  0.00     0.119 C 
BRANCH   8   9
ATOM      9  C   LIG d   1       3.206  87.199 114.428  0.00  0.00     0.028 C 
ATOM     10  C   LIG d   1       4.036  85.973 114.012  0.00  0.00     0.006 C 
ENDBRANCH   8   9
BRANCH   8  11
ATOM     11  C   LIG d   1       4.665  88.035 112.655  0.00  0.00     0.028 C 
ATOM     12  C   LIG d   1       5.966  88.853 112.657  0.00  0.00     0.006 C 
ENDBRANCH   8  11
ENDBRANCH   7   8
ENDBRANCH   1   7
BRANCH   6  13
ATOM     13  N   LIG d   1       5.118  87.847 117.242  0.00  0.00    -0.311 N 
ATOM     14  C   LIG d   1       6.256  87.379 116.731  0.00  0.00     0.210 C 
ATOM     15  C   LIG d   1       6.477  85.874 116.918  0.00  0.00     0.109 C 
ATOM     16  O   LIG d   1       7.118  88.071 116.170  0.00  0.00    -0.276 OA
ATOM     17  H   LIG d   1       4.492  87.221 117.709  0.00  0.00     0.149 HD
ENDBRANCH   6  13
BRANCH   5  18
ATOM     18  N   LIG d   1       5.150  89.825 119.570  0.00  0.00     0.381 N 
ATOM     19  H   LIG d   1       4.710  90.064 120.436  0.00  0.00    -0.090 HD
ATOM     20  H   LIG d   1       5.842  90.525 119.364  0.00  0.00    -0.090 HD
ATOM     21  H   LIG d   1       5.584  88.931 119.645  0.00  0.00    -0.090 HD
ENDBRANCH   5  18
BRANCH   3  22
ATOM     22  C   LIG d   1       1.841  92.390 117.245  0.00  0.00     0.382 C 
ATOM     23  O   LIG d   1       0.639  92.114 117.015  0.00  0.00    -0.241 OA
ATOM     24  O   LIG d   1       2.166  93.570 117.476  0.00  0.00    -0.241 OA
ENDBRANCH   3  22
TORSDOF 7
ENDMDL
MODEL 3
REMARK VINA RESULT:      -4.0      3.472      5.916
REMARK  7 active torsions:
REMARK  status: ('A' for Active; 'I' for Inactive)
REMARK    1  A    between atoms: C_2  and  C_3 
REMARK    2  A    between atoms: C_3  and  O_6 
REMARK    3  A    between atoms: C_3  and  C_4 
REMARK    4  A    between atoms: C_7  and  O_6 
REMARK    5  A    between atoms: C_9  and  C_10 
REMARK    6  A    between atoms: N_15  and  C_14 
REMARK    7  A    between atoms: N_20  and  C_19 
REMARK       I    between atoms: C_22  and  N_20 
ROOT
ATOM      1  C   LIG d   1      -2.948  93.347 118.606  0.00  0.00     0.161 C 
ATOM      2  C   LIG d   1      -4.280  93.694 118.886  0.00  0.00     0.016 C 
ATOM      3  C   LIG d   1      -5.380  92.854 118.597  0.00  0.00     0.038 C 
ATOM      4  C   LIG d   1      -5.208  91.538 118.144  0.00  0.00     0.028 C 
ATOM      5  C   LIG d   1      -3.909  91.326 117.374  0.00  0.00    -0.047 C 
ATOM      6  C   LIG d   1      -2.733  91.870 118.215  0.00  0.00     0.091 C 
ENDROOT
BRANCH   1   7
ATOM      7  O   LIG d   1      -2.107  93.697 119.724  0.00  0.00    -0.368 OA
BRANCH   7   8
ATOM      8  C   LIG d   1      -1.168  94.778 119.501  0.00  0.00     0.119 C 
BRANCH   8   9
ATOM      9  C   LIG d   1      -1.340  95.247 118.044  0.00  0.00     0.028 C 
ATOM     10  C   LIG d   1      -1.706  96.738 117.947  0.00  0.00     0.006 C 
ENDBRANCH   8   9
BRANCH   8  11
ATOM     11  C   LIG d   1       0.279  94.287 119.602  0.00  0.00     0.028 C 
ATOM     12  C   LIG d   1       0.999  94.272 118.244  0.00  0.00     0.006 C 
ENDBRANCH   8  11
ENDBRANCH   7   8
ENDBRANCH   1   7
BRANCH   6  13
ATOM     13  N   LIG d   1      -1.434  91.779 117.499  0.00  0.00    -0.311 N 
ATOM     14  C   LIG d   1      -0.584  90.764 117.647  0.00  0.00     0.210 C 
ATOM     15  C   LIG d   1       0.707  90.877 116.831  0.00  0.00     0.109 C 
ATOM     16  O   LIG d   1      -0.792  89.765 118.353  0.00  0.00    -0.276 OA
ATOM     17  H   LIG d   1      -1.199  92.532 116.882  0.00  0.00     0.149 HD
ENDBRANCH   6  13
BRANCH   5  18
ATOM     18  N   LIG d   1      -3.794  89.885 117.082  0.00  0.00     0.381 N 
ATOM     19  H   LIG d   1      -4.173  89.691 116.176  0.00  0.00    -0.090 HD
ATOM     20  H   LIG d   1      -4.325  89.372 117.763  0.00  0.00    -0.090 HD
ATOM     21  H   LIG d   1      -2.838  89.606 117.116  0.00  0.00    -0.090 HD
ENDBRANCH   5  18
BRANCH   3  22
ATOM     22  C   LIG d   1      -6.671  93.345 118.722  0.00  0.00     0.382 C 
ATOM     23  O   LIG d   1      -7.554  93.003 117.900  0.00  0.00    -0.241 OA
ATOM     24  O   LIG d   1      -6.952  94.159 119.622  0.00  0.00    -0.241 OA
ENDBRANCH   3  22
TORSDOF 7
ENDMDL
MODEL 4
REMARK VINA RESULT:      -4.0      5.391      8.218
REMARK  7 active torsions:
REMARK  status: ('A' for Active; 'I' for Inactive)
REMARK    1  A    between atoms: C_2  and  C_3 
REMARK    2  A    between atoms: C_3  and  O_6 
REMARK    3  A    between atoms: C_3  and  C_4 
REMARK    4  A    between atoms: C_7  and  O_6 
REMARK    5  A    between atoms: C_9  and  C_10 
REMARK    6  A    between atoms: N_15  and  C_14 
REMARK    7  A    between atoms: N_20  and  C_19 
REMARK       I    between atoms: C_22  and  N_20 
ROOT
ATOM      1  C   LIG d   1      -5.666  93.151 118.382  0.00  0.00     0.161 C 
ATOM      2  C   LIG d   1      -6.379  92.563 117.324  0.00  0.00     0.016 C 
ATOM      3  C   LIG d   1      -5.885  91.483 116.557  0.00  0.00     0.038 C 
ATOM      4  C   LIG d   1      -4.699  90.815 116.896  0.00  0.00     0.028 C 
ATOM      5  C   LIG d   1      -3.701  91.692 117.644  0.00  0.00    -0.047 C 
ATOM      6  C   LIG d   1      -4.419  92.363 118.838  0.00  0.00     0.091 C 
ENDROOT
BRANCH   1   7
ATOM      7  O   LIG d   1      -6.548  93.381 119.498  0.00  0.00    -0.368 OA
BRANCH   7   8
ATOM      8  C   LIG d   1      -7.019  94.741 119.668  0.00  0.00     0.119 C 
BRANCH   8   9
ATOM      9  C   LIG d   1      -8.246  94.924 118.754  0.00  0.00     0.028 C 
ATOM     10  C   LIG d   1      -9.571  94.858 119.530  0.00  0.00     0.006 C 
ENDBRANCH   8   9
BRANCH   8  11
ATOM     11  C   LIG d   1      -5.986  95.755 119.168  0.00  0.00     0.028 C 
ATOM     12  C   LIG d   1      -6.593  97.141 118.900  0.00  0.00     0.006 C 
ENDBRANCH   8  11
ENDBRANCH   7   8
ENDBRANCH   1   7
BRANCH   6  13
ATOM     13  N   LIG d   1      -3.536  93.305 119.574  0.00  0.00    -0.311 N 
ATOM     14  C   LIG d   1      -2.595  94.040 118.984  0.00  0.00     0.210 C 
ATOM     15  C   LIG d   1      -1.783  94.931 119.930  0.00  0.00     0.109 C 
ATOM     16  O   LIG d   1      -2.377  94.063 117.763  0.00  0.00    -0.276 OA
ATOM     17  H   LIG d   1      -3.666  93.372 120.564  0.00  0.00     0.149 HD
ENDBRANCH   6  13
BRANCH   5  18
ATOM     18  N   LIG d   1      -2.574  90.835 118.056  0.00  0.00     0.381 N 
ATOM     19  H   LIG d   1      -1.709  91.308 117.886  0.00  0.00    -0.090 HD
ATOM     20  H   LIG d   1      -2.587  89.994 117.505  0.00  0.00    -0.090 HD
ATOM     21  H   LIG d   1      -2.653  90.608 119.023  0.00  0.00    -0.090 HD
ENDBRANCH   5  18
BRANCH   3  22
ATOM     22  C   LIG d   1      -6.560  91.087 115.413  0.00  0.00     0.382 C 
ATOM     23  O   LIG d   1      -6.901  91.941 114.559  0.00  0.00    -0.241 OA
ATOM     24  O   LIG d   1      -6.871  89.893 115.244  0.00  0.00    -0.241 OA
ENDBRANCH   3  22
TORSDOF 7
ENDMDL
MODEL 5
REMARK VINA RESULT:      -3.8      3.555      5.170
REMARK  7 active torsions:
REMARK  status: ('A' for Active; 'I' for Inactive)
REMARK    1  A    between atoms: C_2  and  C_3 
REMARK    2  A    between atoms: C_3  and  O_6 
REMARK    3  A    between atoms: C_3  and  C_4 
REMARK    4  A    between atoms: C_7  and  O_6 
REMARK    5  A    between atoms: C_9  and  C_10 
REMARK    6  A    between atoms: N_15  and  C_14 
REMARK    7  A    between atoms: N_20  and  C_19 
REMARK       I    between atoms: C_22  and  N_20 
ROOT
ATOM      1  C   LIG d   1       3.758  89.134 115.877  0.00  0.00     0.161 C 
ATOM      2  C   LIG d   1       2.954  90.285 115.905  0.00  0.00     0.016 C 
ATOM      3  C   LIG d   1       2.945  91.202 116.982  0.00  0.00     0.038 C 
ATOM      4  C   LIG d   1       3.857  91.108 118.044  0.00  0.00     0.028 C 
ATOM      5  C   LIG d   1       4.338  89.684 118.304  0.00  0.00    -0.047 C 
ATOM      6  C   LIG d   1       4.840  89.073 116.976  0.00  0.00     0.091 C 
ENDROOT
BRANCH   1   7
ATOM      7  O   LIG d   1       4.358  88.988 114.575  0.00  0.00    -0.368 OA
BRANCH   7   8
ATOM      8  C   LIG d   1       4.186  87.700 113.934  0.00  0.00     0.119 C 
BRANCH   8   9
ATOM      9  C   LIG d   1       5.007  87.718 112.631  0.00  0.00     0.028 C 
ATOM     10  C   LIG d   1       5.988  88.901 112.571  0.00  0.00     0.006 C 
ENDBRANCH   8   9
BRANCH   8  11
ATOM     11  C   LIG d   1       2.734  87.484 113.496  0.00  0.00     0.028 C 
ATOM     12  C   LIG d   1       2.132  86.183 114.048  0.00  0.00     0.006 C 
ENDBRANCH   8  11
ENDBRANCH   7   8
ENDBRANCH   1   7
BRANCH   6  13
ATOM     13  N   LIG d   1       5.250  87.653 117.125  0.00  0.00    -0.311 N 
ATOM     14  C   LIG d   1       6.461  87.202 116.802  0.00  0.00     0.210 C 
ATOM     15  C   LIG d   1       6.670  85.699 117.015  0.00  0.00     0.109 C 
ATOM     16  O   LIG d   1       7.393  87.910 116.389  0.00  0.00    -0.276 OA
ATOM     17  H   LIG d   1       4.566  87.015 117.482  0.00  0.00     0.149 HD
ENDBRANCH   6  13
BRANCH   5  18
ATOM     18  N   LIG d   1       5.384  89.750 119.342  0.00  0.00     0.381 N 
ATOM     19  H   LIG d   1       5.119  90.406 120.049  0.00  0.00    -0.090 HD
ATOM     20  H   LIG d   1       6.239  90.069 118.921  0.00  0.00    -0.090 HD
ATOM     21  H   LIG d   1       5.520  88.850 119.747  0.00  0.00    -0.090 HD
ENDBRANCH   5  18
BRANCH   3  22
ATOM     22  C   LIG d   1       1.988  92.205 117.022  0.00  0.00     0.382 C 
ATOM     23  O   LIG d   1       2.331  93.389 117.253  0.00  0.00    -0.241 OA
ATOM     24  O   LIG d   1       0.781  91.933 116.875  0.00  0.00    -0.241 OA
ENDBRANCH   3  22
TORSDOF 7
ENDMDL
MODEL 6
REMARK VINA RESULT:      -3.8      3.054      5.375
REMARK  7 active torsions:
REMARK  status: ('A' for Active; 'I' for Inactive)
REMARK    1  A    between atoms: C_2  and  C_3 
REMARK    2  A    between atoms: C_3  and  O_6 
REMARK    3  A    between atoms: C_3  and  C_4 
REMARK    4  A    between atoms: C_7  and  O_6 
REMARK    5  A    between atoms: C_9  and  C_10 
REMARK    6  A    between atoms: N_15  and  C_14 
REMARK    7  A    between atoms: N_20  and  C_19 
REMARK       I    between atoms: C_22  and  N_20 
ROOT
ATOM      1  C   LIG d   1      -2.098  92.914 117.958  0.00  0.00     0.161 C 
ATOM      2  C   LIG d   1      -3.399  93.142 118.437  0.00  0.00     0.016 C 
ATOM      3  C   LIG d   1      -4.317  92.105 118.720  0.00  0.00     0.038 C 
ATOM      4  C   LIG d   1      -3.942  90.753 118.687  0.00  0.00     0.028 C 
ATOM      5  C   LIG d   1      -2.794  90.466 117.724  0.00  0.00    -0.047 C 
ATOM      6  C   LIG d   1      -1.634  91.444 118.022  0.00  0.00     0.091 C 
ENDROOT
BRANCH   1   7
ATOM      7  O   LIG d   1      -1.165  93.764 118.654  0.00  0.00    -0.368 OA
BRANCH   7   8
ATOM      8  C   LIG d   1      -0.340  94.619 117.825  0.00  0.00     0.119 C 
BRANCH   8   9
ATOM      9  C   LIG d   1       0.778  95.192 118.717  0.00  0.00     0.028 C 
ATOM     10  C   LIG d   1       1.802  94.123 119.133  0.00  0.00     0.006 C 
ENDBRANCH   8   9
BRANCH   8  11
ATOM     11  C   LIG d   1      -1.125  95.837 117.326  0.00  0.00     0.028 C 
ATOM     12  C   LIG d   1      -1.730  96.664 118.471  0.00  0.00     0.006 C 
ENDBRANCH   8  11
ENDBRANCH   7   8
ENDBRANCH   1   7
BRANCH   6  13
ATOM     13  N   LIG d   1      -0.503  91.287 117.070  0.00  0.00    -0.311 N 
ATOM     14  C   LIG d   1       0.734  90.969 117.448  0.00  0.00     0.210 C 
ATOM     15  C   LIG d   1       1.755  90.878 116.308  0.00  0.00     0.109 C 
ATOM     16  O   LIG d   1       1.077  90.722 118.614  0.00  0.00    -0.276 OA
ATOM     17  H   LIG d   1      -0.699  91.439 116.100  0.00  0.00     0.149 HD
ENDBRANCH   6  13
BRANCH   5  18
ATOM     18  N   LIG d   1      -2.415  89.051 117.892  0.00  0.00     0.381 N 
ATOM     19  H   LIG d   1      -3.086  88.464 117.437  0.00  0.00    -0.090 HD
ATOM     20  H   LIG d   1      -2.414  88.828 118.872  0.00  0.00    -0.090 HD
ATOM     21  H   LIG d   1      -1.509  88.892 117.508  0.00  0.00    -0.090 HD
ENDBRANCH   5  18
BRANCH   3  22
ATOM     22  C   LIG d   1      -5.638  92.415 119.002  0.00  0.00     0.382 C 
ATOM     23  O   LIG d   1      -5.910  93.225 119.921  0.00  0.00    -0.241 OA
ATOM     24  O   LIG d   1      -6.564  91.861 118.379  0.00  0.00    -0.241 OA
ENDBRANCH   3  22
TORSDOF 7
ENDMDL
MODEL 7
REMARK VINA RESULT:      -3.7      3.234      5.816
REMARK  7 active torsions:
REMARK  status: ('A' for Active; 'I' for Inactive)
REMARK    1  A    between atoms: C_2  and  C_3 
REMARK    2  A    between atoms: C_3  and  O_6 
REMARK    3  A    between atoms: C_3  and  C_4 
REMARK    4  A    between atoms: C_7  and  O_6 
REMARK    5  A    between atoms: C_9  and  C_10 
REMARK    6  A    between atoms: N_15  and  C_14 
REMARK    7  A    between atoms: N_20  and  C_19 
REMARK       I    between atoms: C_22  and  N_20 
ROOT
ATOM      1  C   LIG d   1      -2.616  92.771 118.345  0.00  0.00     0.161 C 
ATOM      2  C   LIG d   1      -3.769  92.525 117.580  0.00  0.00     0.016 C 
ATOM      3  C   LIG d   1      -4.211  91.228 117.234  0.00  0.00     0.038 C 
ATOM      4  C   LIG d   1      -3.611  90.074 117.760  0.00  0.00     0.028 C 
ATOM      5  C   LIG d   1      -2.143  90.269 118.126  0.00  0.00    -0.047 C 
ATOM      6  C   LIG d   1      -2.011  91.523 119.021  0.00  0.00     0.091 C 
ENDROOT
BRANCH   1   7
ATOM      7  O   LIG d   1      -2.890  93.790 119.327  0.00  0.00    -0.368 OA
BRANCH   7   8
ATOM      8  C   LIG d   1      -2.061  94.977 119.261  0.00  0.00     0.119 C 
BRANCH   8   9
ATOM      9  C   LIG d   1      -2.986  96.197 119.436  0.00  0.00     0.028 C 
ATOM     10  C   LIG d   1      -4.418  95.796 119.828  0.00  0.00     0.006 C 
ENDBRANCH   8   9
BRANCH   8  11
ATOM     11  C   LIG d   1      -1.431  95.140 117.875  0.00  0.00     0.028 C 
ATOM     12  C   LIG d   1       0.018  95.648 117.935  0.00  0.00     0.006 C 
ENDBRANCH   8  11
ENDBRANCH   7   8
ENDBRANCH   1   7
BRANCH   6  13
ATOM     13  N   LIG d   1      -0.597  91.834 119.355  0.00  0.00    -0.311 N 
ATOM     14  C   LIG d   1       0.356  91.993 118.437  0.00  0.00     0.210 C 
ATOM     15  C   LIG d   1       1.750  92.290 118.998  0.00  0.00     0.109 C 
ATOM     16  O   LIG d   1       0.171  91.949 117.212  0.00  0.00    -0.276 OA
ATOM     17  H   LIG d   1      -0.365  91.919 120.325  0.00  0.00     0.149 HD
ENDBRANCH   6  13
BRANCH   5  18
ATOM     18  N   LIG d   1      -1.681  89.035 118.788  0.00  0.00     0.381 N 
ATOM     19  H   LIG d   1      -1.379  89.243 119.719  0.00  0.00    -0.090 HD
ATOM     20  H   LIG d   1      -0.899  88.665 118.278  0.00  0.00    -0.090 HD
ATOM     21  H   LIG d   1      -2.418  88.365 118.812  0.00  0.00    -0.090 HD
ENDBRANCH   5  18
BRANCH   3  22
ATOM     22  C   LIG d   1      -5.243  91.074 116.320  0.00  0.00     0.382 C 
ATOM     23  O   LIG d   1      -5.640  89.925 116.010  0.00  0.00    -0.241 OA
ATOM     24  O   LIG d   1      -5.750  92.068 115.767  0.00  0.00    -0.241 OA
ENDBRANCH   3  22
TORSDOF 7
ENDMDL
MODEL 8
REMARK VINA RESULT:      -3.7      2.817      4.958
REMARK  7 active torsions:
REMARK  status: ('A' for Active; 'I' for Inactive)
REMARK    1  A    between atoms: C_2  and  C_3 
REMARK    2  A    between atoms: C_3  and  O_6 
REMARK    3  A    between atoms: C_3  and  C_4 
REMARK    4  A    between atoms: C_7  and  O_6 
REMARK    5  A    between atoms: C_9  and  C_10 
REMARK    6  A    between atoms: N_15  and  C_14 
REMARK    7  A    between atoms: N_20  and  C_19 
REMARK       I    between atoms: C_22  and  N_20 
ROOT
ATOM      1  C   LIG d   1       2.320  90.008 115.967  0.00  0.00     0.161 C 
ATOM      2  C   LIG d   1       1.275  89.757 116.872  0.00  0.00     0.016 C 
ATOM      3  C   LIG d   1       0.947  88.465 117.344  0.00  0.00     0.038 C 
ATOM      4  C   LIG d   1       1.745  87.347 117.057  0.00  0.00     0.028 C 
ATOM      5  C   LIG d   1       2.510  87.469 115.744  0.00  0.00    -0.047 C 
ATOM      6  C   LIG d   1       3.270  88.815 115.730  0.00  0.00     0.091 C 
ENDROOT
BRANCH   1   7
ATOM      7  O   LIG d   1       3.065  91.166 116.390  0.00  0.00    -0.368 OA
BRANCH   7   8
ATOM      8  C   LIG d   1       3.081  91.428 117.815  0.00  0.00     0.119 C 
BRANCH   8   9
ATOM      9  C   LIG d   1       2.925  92.949 118.007  0.00  0.00     0.028 C 
ATOM     10  C   LIG d   1       1.463  93.410 117.880  0.00  0.00     0.006 C 
ENDBRANCH   8   9
BRANCH   8  11
ATOM     11  C   LIG d   1       4.439  91.079 118.431  0.00  0.00     0.028 C 
ATOM     12  C   LIG d   1       4.430  89.731 119.168  0.00  0.00     0.006 C 
ENDBRANCH   8  11
ENDBRANCH   7   8
ENDBRANCH   1   7
BRANCH   6  13
ATOM     13  N   LIG d   1       3.978  89.053 114.445  0.00  0.00    -0.311 N 
ATOM     14  C   LIG d   1       5.266  88.771 114.254  0.00  0.00     0.210 C 
ATOM     15  C   LIG d   1       5.803  89.113 112.861  0.00  0.00     0.109 C 
ATOM     16  O   LIG d   1       6.006  88.241 115.096  0.00  0.00    -0.276 OA
ATOM     17  H   LIG d   1       3.445  89.452 113.697  0.00  0.00     0.149 HD
ENDBRANCH   6  13
BRANCH   5  18
ATOM     18  N   LIG d   1       3.403  86.300 115.638  0.00  0.00     0.381 N 
ATOM     19  H   LIG d   1       3.252  85.837 114.764  0.00  0.00    -0.090 HD
ATOM     20  H   LIG d   1       3.185  85.656 116.378  0.00  0.00    -0.090 HD
ATOM     21  H   LIG d   1       4.354  86.589 115.709  0.00  0.00    -0.090 HD
ENDBRANCH   5  18
BRANCH   3  22
ATOM     22  C   LIG d   1      -0.213  88.276 118.080  0.00  0.00     0.382 C 
ATOM     23  O   LIG d   1      -0.219  87.473 119.044  0.00  0.00    -0.241 OA
ATOM     24  O   LIG d   1      -1.264  88.865 117.764  0.00  0.00    -0.241 OA
ENDBRANCH   3  22
TORSDOF 7
ENDMDL
MODEL 9
REMARK VINA RESULT:      -3.6      1.978      4.171
REMARK  7 active torsions:
REMARK  status: ('A' for Active; 'I' for Inactive)
REMARK    1  A    between atoms: C_2  and  C_3 
REMARK    2  A    between atoms: C_3  and  O_6 
REMARK    3  A    between atoms: C_3  and  C_4 
REMARK    4  A    between atoms: C_7  and  O_6 
REMARK    5  A    between atoms: C_9  and  C_10 
REMARK    6  A    between atoms: N_15  and  C_14 
REMARK    7  A    between atoms: N_20  and  C_19 
REMARK       I    between atoms: C_22  and  N_20 
ROOT
ATOM      1  C   LIG d   1       0.129  90.656 117.095  0.00  0.00     0.161 C 
ATOM      2  C   LIG d   1      -1.167  90.610 117.636  0.00  0.00     0.016 C 
ATOM      3  C   LIG d   1      -1.724  89.452 118.225  0.00  0.00     0.038 C 
ATOM      4  C   LIG d   1      -0.963  88.295 118.450  0.00  0.00     0.028 C 
ATOM      5  C   LIG d   1       0.190  88.129 117.466  0.00  0.00    -0.047 C 
ATOM      6  C   LIG d   1       1.013  89.437 117.431  0.00  0.00     0.091 C 
ENDROOT
BRANCH   1   7
ATOM      7  O   LIG d   1       0.783  91.876 117.497  0.00  0.00    -0.368 OA
BRANCH   7   8
ATOM      8  C   LIG d   1       1.118  91.986 118.902  0.00  0.00     0.119 C 
BRANCH   8   9
ATOM      9  C   LIG d   1       0.551  93.326 119.409  0.00  0.00     0.028 C 
ATOM     10  C   LIG d   1       0.055  94.224 118.264  0.00  0.00     0.006 C 
ENDBRANCH   8   9
BRANCH   8  11
ATOM     11  C   LIG d   1       2.633  92.083 119.107  0.00  0.00     0.028 C 
ATOM     12  C   LIG d   1       3.371  92.607 117.865  0.00  0.00     0.006 C 
ENDBRANCH   8  11
ENDBRANCH   7   8
ENDBRANCH   1   7
BRANCH   6  13
ATOM     13  N   LIG d   1       2.111  89.389 116.431  0.00  0.00    -0.311 N 
ATOM     14  C   LIG d   1       3.363  89.050 116.734  0.00  0.00     0.210 C 
ATOM     15  C   LIG d   1       4.344  89.084 115.558  0.00  0.00     0.109 C 
ATOM     16  O   LIG d   1       3.748  88.692 117.857  0.00  0.00    -0.276 OA
ATOM     17  H   LIG d   1       1.881  89.634 115.488  0.00  0.00     0.149 HD
ENDBRANCH   6  13
BRANCH   5  18
ATOM     18  N   LIG d   1       0.980  86.961 117.900  0.00  0.00     0.381 N 
ATOM     19  H   LIG d   1       1.862  86.953 117.427  0.00  0.00    -0.090 HD
ATOM     20  H   LIG d   1       0.483  86.123 117.653  0.00  0.00    -0.090 HD
ATOM     21  H   LIG d   1       1.124  86.993 118.885  0.00  0.00    -0.090 HD
ENDBRANCH   5  18
BRANCH   3  22
ATOM     22  C   LIG d   1      -3.070  89.430 118.560  0.00  0.00     0.382 C 
ATOM     23  O   LIG d   1      -3.911  89.980 117.809  0.00  0.00    -0.241 OA
ATOM     24  O   LIG d   1      -3.447  88.907 119.626  0.00  0.00    -0.241 OA
ENDBRANCH   3  22
TORSDOF 7
ENDMDL
