MODEL 1
REMARK VINA RESULT:      -5.3      0.000      0.000
REMARK  7 active torsions:
REMARK  status: ('A' for Active; 'I' for Inactive)
REMARK    1  A    between atoms: C_2  and  C_3 
REMARK    2  A    between atoms: C_3  and  O_6 
REMARK    3  A    between atoms: C_3  and  C_4 
REMARK    4  A    between atoms: C_7  and  O_6 
REMARK    5  A    between atoms: C_9  and  C_10 
REMARK    6  A    between atoms: N_15  and  C_14 
REMARK    7  A    between atoms: N_20  and  C_19 
REMARK       I    between atoms: C_22  and  N_20 
ROOT
ATOM      1  C   LIG d   1      -6.146  93.063 118.137  0.00  0.00     0.161 C 
ATOM      2  C   LIG d   1      -6.996  92.149 117.492  0.00  0.00     0.016 C 
ATOM      3  C   LIG d   1      -6.527  91.079 116.695  0.00  0.00     0.038 C 
ATOM      4  C   LIG d   1      -5.164  90.760 116.610  0.00  0.00     0.028 C 
ATOM      5  C   LIG d   1      -4.246  91.957 116.835  0.00  0.00    -0.047 C 
ATOM      6  C   LIG d   1      -4.656  92.664 118.147  0.00  0.00     0.091 C 
ENDROOT
BRANCH   1   7
ATOM      7  O   LIG d   1      -6.611  93.298 119.481  0.00  0.00    -0.368 OA
BRANCH   7   8
ATOM      8  C   LIG d   1      -7.142  94.619 119.750  0.00  0.00     0.119 C 
BRANCH   8   9
ATOM      9  C   LIG d   1      -8.679  94.522 119.682  0.00  0.00     0.028 C 
ATOM     10  C   LIG d   1      -9.256  95.219 118.439  0.00  0.00     0.006 C 
ENDBRANCH   8   9
BRANCH   8  11
ATOM     11  C   LIG d   1      -6.749  95.612 118.652  0.00  0.00     0.028 C 
ATOM     12  C   LIG d   1      -5.904  96.781 119.180  0.00  0.00     0.006 C 
ENDBRANCH   8  11
ENDBRANCH   7   8
ENDBRANCH   1   7
BRANCH   6  13
ATOM     13  N   LIG d   1      -3.862  93.895 118.399  0.00  0.00    -0.311 N 
ATOM     14  C   LIG d   1      -2.775  93.922 119.167  0.00  0.00     0.210 C 
ATOM     15  C   LIG d   1      -2.118  95.299 119.310  0.00  0.00     0.109 C 
ATOM     16  O   LIG d   1      -2.274  92.931 119.719  0.00  0.00    -0.276 OA
ATOM     17  H   LIG d   1      -4.181  94.740 117.965  0.00  0.00     0.149 HD
ENDBRANCH   6  13
BRANCH   5  18
ATOM     18  N   LIG d   1      -2.859  91.457 116.856  0.00  0.00     0.381 N 
ATOM     19  H   LIG d   1      -2.394  91.710 116.007  0.00  0.00    -0.090 HD
ATOM     20  H   LIG d   1      -2.875  90.454 116.919  0.00  0.00    -0.090 HD
ATOM     21  H   LIG d   1      -2.371  91.838 117.637  0.00  0.00    -0.090 HD
ENDBRANCH   5  18
BRANCH   3  22
ATOM     22  C   LIG d   1      -7.425  90.341 115.939  0.00  0.00     0.382 C 
ATOM     23  O   LIG d   1      -7.663  90.669 114.751  0.00  0.00    -0.241 OA
ATOM     24  O   LIG d   1      -8.033  89.378 116.443  0.00  0.00    -0.241 OA
ENDBRANCH   3  22
TORSDOF 7
ENDMDL
MODEL 2
REMARK VINA RESULT:      -4.7      2.632      5.999
REMARK  7 active torsions:
REMARK  status: ('A' for Active; 'I' for Inactive)
REMARK    1  A    between atoms: C_2  and  C_3 
REMARK    2  A    between atoms: C_3  and  O_6 
REMARK    3  A    between atoms: C_3  and  C_4 
REMARK    4  A    between atoms: C_7  and  O_6 
REMARK    5  A    between atoms: C_9  and  C_10 
REMARK    6  A    between atoms: N_15  and  C_14 
REMARK    7  A    between atoms: N_20  and  C_19 
REMARK       I    between atoms: C_22  and  N_20 
ROOT
ATOM      1  C   LIG d   1      -5.417  92.663 118.197  0.00  0.00     0.161 C 
ATOM      2  C   LIG d   1      -4.927  93.844 118.778  0.00  0.00     0.016 C 
ATOM      3  C   LIG d   1      -5.712  95.007 118.957  0.00  0.00     0.038 C 
ATOM      4  C   LIG d   1      -7.091  95.017 118.702  0.00  0.00     0.028 C 
ATOM      5  C   LIG d   1      -7.519  94.006 117.643  0.00  0.00    -0.047 C 
ATOM      6  C   LIG d   1      -6.948  92.618 118.015  0.00  0.00     0.091 C 
ENDROOT
BRANCH   1   7
ATOM      7  O   LIG d   1      -4.969  91.523 118.956  0.00  0.00    -0.368 OA
BRANCH   7   8
ATOM      8  C   LIG d   1      -4.112  90.587 118.256  0.00  0.00     0.119 C 
BRANCH   8   9
ATOM      9  C   LIG d   1      -3.054  90.089 119.259  0.00  0.00     0.028 C 
ATOM     10  C   LIG d   1      -2.894  88.559 119.232  0.00  0.00     0.006 C 
ENDBRANCH   8   9
BRANCH   8  11
ATOM     11  C   LIG d   1      -3.320  91.282 117.144  0.00  0.00     0.028 C 
ATOM     12  C   LIG d   1      -1.910  91.702 117.589  0.00  0.00     0.006 C 
ENDBRANCH   8  11
ENDBRANCH   7   8
ENDBRANCH   1   7
BRANCH   6  13
ATOM     13  N   LIG d   1      -7.249  91.588 116.986  0.00  0.00    -0.311 N 
ATOM     14  C   LIG d   1      -6.824  91.664 115.726  0.00  0.00     0.210 C 
ATOM     15  C   LIG d   1      -7.264  90.506 114.825  0.00  0.00     0.109 C 
ATOM     16  O   LIG d   1      -6.099  92.564 115.278  0.00  0.00    -0.276 OA
ATOM     17  H   LIG d   1      -7.806  90.807 117.273  0.00  0.00     0.149 HD
ENDBRANCH   6  13
BRANCH   5  18
ATOM     18  N   LIG d   1      -8.992  94.026 117.577  0.00  0.00     0.381 N 
ATOM     19  H   LIG d   1      -9.375  93.696 118.440  0.00  0.00    -0.090 HD
ATOM     20  H   LIG d   1      -9.293  93.410 116.842  0.00  0.00    -0.090 HD
ATOM     21  H   LIG d   1      -9.313  94.952 117.396  0.00  0.00    -0.090 HD
ENDBRANCH   5  18
BRANCH   3  22
ATOM     22  C   LIG d   1      -5.108  96.189 119.358  0.00  0.00     0.382 C 
ATOM     23  O   LIG d   1      -5.727  97.275 119.256  0.00  0.00    -0.241 OA
ATOM     24  O   LIG d   1      -3.936  96.188 119.779  0.00  0.00    -0.241 OA
ENDBRANCH   3  22
TORSDOF 7
ENDMDL
MODEL 3
REMARK VINA RESULT:      -4.6      1.893      4.593
REMARK  7 active torsions:
REMARK  status: ('A' for Active; 'I' for Inactive)
REMARK    1  A    between atoms: C_2  and  C_3 
REMARK    2  A    between atoms: C_3  and  O_6 
REMARK    3  A    between atoms: C_3  and  C_4 
REMARK    4  A    between atoms: C_7  and  O_6 
REMARK    5  A    between atoms: C_9  and  C_10 
REMARK    6  A    between atoms: N_15  and  C_14 
REMARK    7  A    between atoms: N_20  and  C_19 
REMARK       I    between atoms: C_22  and  N_20 
ROOT
ATOM      1  C   LIG d   1      -6.409  92.988 118.878  0.00  0.00     0.161 C 
ATOM      2  C   LIG d   1      -7.673  93.593 118.769  0.00  0.00     0.016 C 
ATOM      3  C   LIG d   1      -7.866  94.993 118.746  0.00  0.00     0.038 C 
ATOM      4  C   LIG d   1      -6.789  95.889 118.677  0.00  0.00     0.028 C 
ATOM      5  C   LIG d   1      -5.505  95.342 119.293  0.00  0.00    -0.047 C 
ATOM      6  C   LIG d   1      -5.215  93.948 118.692  0.00  0.00     0.091 C 
ENDROOT
BRANCH   1   7
ATOM      7  O   LIG d   1      -6.314  91.885 117.956  0.00  0.00    -0.368 OA
BRANCH   7   8
ATOM      8  C   LIG d   1      -5.712  92.179 116.671  0.00  0.00     0.119 C 
BRANCH   8   9
ATOM      9  C   LIG d   1      -6.830  92.120 115.612  0.00  0.00     0.028 C 
ATOM     10  C   LIG d   1      -7.070  90.694 115.090  0.00  0.00     0.006 C 
ENDBRANCH   8   9
BRANCH   8  11
ATOM     11  C   LIG d   1      -4.710  91.095 116.264  0.00  0.00     0.028 C 
ATOM     12  C   LIG d   1      -4.223  90.255 117.456  0.00  0.00     0.006 C 
ENDBRANCH   8  11
ENDBRANCH   7   8
ENDBRANCH   1   7
BRANCH   6  13
ATOM     13  N   LIG d   1      -4.022  93.305 119.303  0.00  0.00    -0.311 N 
ATOM     14  C   LIG d   1      -2.806  93.355 118.763  0.00  0.00     0.210 C 
ATOM     15  C   LIG d   1      -1.720  92.608 119.545  0.00  0.00     0.109 C 
ATOM     16  O   LIG d   1      -2.516  93.974 117.728  0.00  0.00    -0.276 OA
ATOM     17  H   LIG d   1      -4.161  92.807 120.161  0.00  0.00     0.149 HD
ENDBRANCH   6  13
BRANCH   5  18
ATOM     18  N   LIG d   1      -4.433  96.320 119.030  0.00  0.00     0.381 N 
ATOM     19  H   LIG d   1      -3.853  96.413 119.840  0.00  0.00    -0.090 HD
ATOM     20  H   LIG d   1      -4.848  97.213 118.834  0.00  0.00    -0.090 HD
ATOM     21  H   LIG d   1      -3.884  96.023 118.253  0.00  0.00    -0.090 HD
ENDBRANCH   5  18
BRANCH   3  22
ATOM     22  C   LIG d   1      -9.149  95.511 118.831  0.00  0.00     0.382 C 
ATOM     23  O   LIG d   1      -9.353  96.724 118.584  0.00  0.00    -0.241 OA
ATOM     24  O   LIG d   1     -10.098  94.791 119.195  0.00  0.00    -0.241 OA
ENDBRANCH   3  22
TORSDOF 7
ENDMDL
MODEL 4
REMARK VINA RESULT:      -4.5      2.672      6.148
REMARK  7 active torsions:
REMARK  status: ('A' for Active; 'I' for Inactive)
REMARK    1  A    between atoms: C_2  and  C_3 
REMARK    2  A    between atoms: C_3  and  O_6 
REMARK    3  A    between atoms: C_3  and  C_4 
REMARK    4  A    between atoms: C_7  and  O_6 
REMARK    5  A    between atoms: C_9  and  C_10 
REMARK    6  A    between atoms: N_15  and  C_14 
REMARK    7  A    between atoms: N_20  and  C_19 
REMARK       I    between atoms: C_22  and  N_20 
ROOT
ATOM      1  C   LIG d   1      -5.214  92.243 117.882  0.00  0.00     0.161 C 
ATOM      2  C   LIG d   1      -4.628  93.357 118.504  0.00  0.00     0.016 C 
ATOM      3  C   LIG d   1      -5.341  94.537 118.818  0.00  0.00     0.038 C 
ATOM      4  C   LIG d   1      -6.732  94.626 118.666  0.00  0.00     0.028 C 
ATOM      5  C   LIG d   1      -7.282  93.712 117.575  0.00  0.00    -0.047 C 
ATOM      6  C   LIG d   1      -6.755  92.278 117.809  0.00  0.00     0.091 C 
ENDROOT
BRANCH   1   7
ATOM      7  O   LIG d   1      -4.770  91.033 118.527  0.00  0.00    -0.368 OA
BRANCH   7   8
ATOM      8  C   LIG d   1      -3.374  90.991 118.912  0.00  0.00     0.119 C 
BRANCH   8   9
ATOM      9  C   LIG d   1      -2.542  90.860 117.622  0.00  0.00     0.028 C 
ATOM     10  C   LIG d   1      -1.310  91.781 117.622  0.00  0.00     0.006 C 
ENDBRANCH   8   9
BRANCH   8  11
ATOM     11  C   LIG d   1      -3.059  89.734 119.728  0.00  0.00     0.028 C 
ATOM     12  C   LIG d   1      -2.744  88.515 118.847  0.00  0.00     0.006 C 
ENDBRANCH   8  11
ENDBRANCH   7   8
ENDBRANCH   1   7
BRANCH   6  13
ATOM     13  N   LIG d   1      -7.177  91.338 116.739  0.00  0.00    -0.311 N 
ATOM     14  C   LIG d   1      -6.878  91.510 115.452  0.00  0.00     0.210 C 
ATOM     15  C   LIG d   1      -7.428  90.433 114.511  0.00  0.00     0.109 C 
ATOM     16  O   LIG d   1      -6.184  92.435 115.005  0.00  0.00    -0.276 OA
ATOM     17  H   LIG d   1      -7.717  90.542 117.017  0.00  0.00     0.149 HD
ENDBRANCH   6  13
BRANCH   5  18
ATOM     18  N   LIG d   1      -8.753  93.802 117.618  0.00  0.00     0.381 N 
ATOM     19  H   LIG d   1      -9.039  94.292 118.443  0.00  0.00    -0.090 HD
ATOM     20  H   LIG d   1      -9.135  92.873 117.655  0.00  0.00    -0.090 HD
ATOM     21  H   LIG d   1      -9.090  94.276 116.809  0.00  0.00    -0.090 HD
ENDBRANCH   5  18
BRANCH   3  22
ATOM     22  C   LIG d   1      -4.653  95.660 119.253  0.00  0.00     0.382 C 
ATOM     23  O   LIG d   1      -3.441  95.571 119.566  0.00  0.00    -0.241 OA
ATOM     24  O   LIG d   1      -5.241  96.751 119.379  0.00  0.00    -0.241 OA
ENDBRANCH   3  22
TORSDOF 7
ENDMDL
MODEL 5
REMARK VINA RESULT:      -4.5      2.056      3.960
REMARK  7 active torsions:
REMARK  status: ('A' for Active; 'I' for Inactive)
REMARK    1  A    between atoms: C_2  and  C_3 
REMARK    2  A    between atoms: C_3  and  O_6 
REMARK    3  A    between atoms: C_3  and  C_4 
REMARK    4  A    between atoms: C_7  and  O_6 
REMARK    5  A    between atoms: C_9  and  C_10 
REMARK    6  A    between atoms: N_15  and  C_14 
REMARK    7  A    between atoms: N_20  and  C_19 
REMARK       I    between atoms: C_22  and  N_20 
ROOT
ATOM      1  C   LIG d   1      -3.771  93.328 118.145  0.00  0.00     0.161 C 
ATOM      2  C   LIG d   1      -5.121  93.670 118.332  0.00  0.00     0.016 C 
ATOM      3  C   LIG d   1      -6.196  92.869 117.884  0.00  0.00     0.038 C 
ATOM      4  C   LIG d   1      -5.994  91.588 117.348  0.00  0.00     0.028 C 
ATOM      5  C   LIG d   1      -4.634  91.420 116.679  0.00  0.00    -0.047 C 
ATOM      6  C   LIG d   1      -3.532  91.882 117.660  0.00  0.00     0.091 C 
ENDROOT
BRANCH   1   7
ATOM      7  O   LIG d   1      -3.031  93.580 119.355  0.00  0.00    -0.368 OA
BRANCH   7   8
ATOM      8  C   LIG d   1      -2.194  94.763 119.355  0.00  0.00     0.119 C 
BRANCH   8   9
ATOM      9  C   LIG d   1      -3.031  95.922 119.930  0.00  0.00     0.028 C 
ATOM     10  C   LIG d   1      -2.953  97.189 119.061  0.00  0.00     0.006 C 
ENDBRANCH   8   9
BRANCH   8  11
ATOM     11  C   LIG d   1      -1.833  95.190 117.930  0.00  0.00     0.028 C 
ATOM     12  C   LIG d   1      -0.340  95.011 117.614  0.00  0.00     0.006 C 
ENDBRANCH   8  11
ENDBRANCH   7   8
ENDBRANCH   1   7
BRANCH   6  13
ATOM     13  N   LIG d   1      -2.176  91.829 117.055  0.00  0.00    -0.311 N 
ATOM     14  C   LIG d   1      -1.107  91.351 117.691  0.00  0.00     0.210 C 
ATOM     15  C   LIG d   1       0.199  91.408 116.893  0.00  0.00     0.109 C 
ATOM     16  O   LIG d   1      -1.124  90.857 118.828  0.00  0.00    -0.276 OA
ATOM     17  H   LIG d   1      -2.078  92.182 116.123  0.00  0.00     0.149 HD
ENDBRANCH   6  13
BRANCH   5  18
ATOM     18  N   LIG d   1      -4.502  90.004 116.288  0.00  0.00     0.381 N 
ATOM     19  H   LIG d   1      -4.827  89.416 117.029  0.00  0.00    -0.090 HD
ATOM     20  H   LIG d   1      -3.531  89.800 116.126  0.00  0.00    -0.090 HD
ATOM     21  H   LIG d   1      -5.028  89.829 115.460  0.00  0.00    -0.090 HD
ENDBRANCH   5  18
BRANCH   3  22
ATOM     22  C   LIG d   1      -7.490  93.364 117.935  0.00  0.00     0.382 C 
ATOM     23  O   LIG d   1      -7.919  93.891 118.990  0.00  0.00    -0.241 OA
ATOM     24  O   LIG d   1      -8.249  93.252 116.953  0.00  0.00    -0.241 OA
ENDBRANCH   3  22
TORSDOF 7
ENDMDL
MODEL 6
REMARK VINA RESULT:      -4.3      8.304     10.359
REMARK  7 active torsions:
REMARK  status: ('A' for Active; 'I' for Inactive)
REMARK    1  A    between atoms: C_2  and  C_3 
REMARK    2  A    between atoms: C_3  and  O_6 
REMARK    3  A    between atoms: C_3  and  C_4 
REMARK    4  A    between atoms: C_7  and  O_6 
REMARK    5  A    between atoms: C_9  and  C_10 
REMARK    6  A    between atoms: N_15  and  C_14 
REMARK    7  A    between atoms: N_20  and  C_19 
REMARK       I    between atoms: C_22  and  N_20 
ROOT
ATOM      1  C   LIG d   1       3.950  91.166 116.633  0.00  0.00     0.161 C 
ATOM      2  C   LIG d   1       3.303  91.110 115.388  0.00  0.00     0.016 C 
ATOM      3  C   LIG d   1       3.696  90.239 114.345  0.00  0.00     0.038 C 
ATOM      4  C   LIG d   1       4.675  89.252 114.533  0.00  0.00     0.028 C 
ATOM      5  C   LIG d   1       5.697  89.609 115.607  0.00  0.00    -0.047 C 
ATOM      6  C   LIG d   1       4.949  90.019 116.896  0.00  0.00     0.091 C 
ENDROOT
BRANCH   1   7
ATOM      7  O   LIG d   1       2.972  91.230 117.690  0.00  0.00    -0.368 OA
BRANCH   7   8
ATOM      8  C   LIG d   1       1.653  90.724 117.368  0.00  0.00     0.119 C 
BRANCH   8   9
ATOM      9  C   LIG d   1       0.623  91.678 118.004  0.00  0.00     0.028 C 
ATOM     10  C   LIG d   1      -0.732  91.647 117.277  0.00  0.00     0.006 C 
ENDBRANCH   8   9
BRANCH   8  11
ATOM     11  C   LIG d   1       1.403  89.363 118.024  0.00  0.00     0.028 C 
ATOM     12  C   LIG d   1       1.621  88.187 117.059  0.00  0.00     0.006 C 
ENDBRANCH   8  11
ENDBRANCH   7   8
ENDBRANCH   1   7
BRANCH   6  13
ATOM     13  N   LIG d   1       5.873  90.465 117.971  0.00  0.00    -0.311 N 
ATOM     14  C   LIG d   1       6.362  89.648 118.902  0.00  0.00     0.210 C 
ATOM     15  C   LIG d   1       7.282  90.316 119.929  0.00  0.00     0.109 C 
ATOM     16  O   LIG d   1       6.147  88.428 118.956  0.00  0.00    -0.276 OA
ATOM     17  H   LIG d   1       6.125  91.434 117.983  0.00  0.00     0.149 HD
ENDBRANCH   6  13
BRANCH   5  18
ATOM     18  N   LIG d   1       6.573  88.437 115.795  0.00  0.00     0.381 N 
ATOM     19  H   LIG d   1       6.092  87.735 116.320  0.00  0.00    -0.090 HD
ATOM     20  H   LIG d   1       7.385  88.719 116.316  0.00  0.00    -0.090 HD
ATOM     21  H   LIG d   1       6.848  88.071 114.910  0.00  0.00    -0.090 HD
ENDBRANCH   5  18
BRANCH   3  22
ATOM     22  C   LIG d   1       3.135  90.379 113.085  0.00  0.00     0.382 C 
ATOM     23  O   LIG d   1       3.080  91.509 112.544  0.00  0.00    -0.241 OA
ATOM     24  O   LIG d   1       2.642  89.395 112.501  0.00  0.00    -0.241 OA
ENDBRANCH   3  22
TORSDOF 7
ENDMDL
MODEL 7
REMARK VINA RESULT:      -4.2     10.288     12.853
REMARK  7 active torsions:
REMARK  status: ('A' for Active; 'I' for Inactive)
REMARK    1  A    between atoms: C_2  and  C_3 
REMARK    2  A    between atoms: C_3  and  O_6 
REMARK    3  A    between atoms: C_3  and  C_4 
REMARK    4  A    between atoms: C_7  and  O_6 
REMARK    5  A    between atoms: C_9  and  C_10 
REMARK    6  A    between atoms: N_15  and  C_14 
REMARK    7  A    between atoms: N_20  and  C_19 
REMARK       I    between atoms: C_22  and  N_20 
ROOT
ATOM      1  C   LIG d   1       4.728  87.579 116.253  0.00  0.00     0.161 C 
ATOM      2  C   LIG d   1       3.858  88.607 115.853  0.00  0.00     0.016 C 
ATOM      3  C   LIG d   1       4.225  89.972 115.835  0.00  0.00     0.038 C 
ATOM      4  C   LIG d   1       5.542  90.390 116.073  0.00  0.00     0.028 C 
ATOM      5  C   LIG d   1       6.326  89.439 116.971  0.00  0.00    -0.047 C 
ATOM      6  C   LIG d   1       6.203  88.003 116.410  0.00  0.00     0.091 C 
ENDROOT
BRANCH   1   7
ATOM      7  O   LIG d   1       4.621  86.466 115.343  0.00  0.00    -0.368 OA
BRANCH   7   8
ATOM      8  C   LIG d   1       3.708  86.638 114.231  0.00  0.00     0.119 C 
BRANCH   8   9
ATOM      9  C   LIG d   1       2.743  85.437 114.235  0.00  0.00     0.028 C 
ATOM     10  C   LIG d   1       1.315  85.831 114.649  0.00  0.00     0.006 C 
ENDBRANCH   8   9
BRANCH   8  11
ATOM     11  C   LIG d   1       4.443  86.564 112.889  0.00  0.00     0.028 C 
ATOM     12  C   LIG d   1       5.056  87.910 112.471  0.00  0.00     0.006 C 
ENDBRANCH   8  11
ENDBRANCH   7   8
ENDBRANCH   1   7
BRANCH   6  13
ATOM     13  N   LIG d   1       6.871  86.997 117.276  0.00  0.00    -0.311 N 
ATOM     14  C   LIG d   1       8.177  86.740 117.228  0.00  0.00     0.210 C 
ATOM     15  C   LIG d   1       8.658  85.651 118.193  0.00  0.00     0.109 C 
ATOM     16  O   LIG d   1       8.988  87.333 116.501  0.00  0.00    -0.276 OA
ATOM     17  H   LIG d   1       6.292  86.492 117.918  0.00  0.00     0.149 HD
ENDBRANCH   6  13
BRANCH   5  18
ATOM     18  N   LIG d   1       7.719  89.921 117.024  0.00  0.00     0.381 N 
ATOM     19  H   LIG d   1       7.896  90.530 116.250  0.00  0.00    -0.090 HD
ATOM     20  H   LIG d   1       8.339  89.133 116.954  0.00  0.00    -0.090 HD
ATOM     21  H   LIG d   1       7.880  90.405 117.879  0.00  0.00    -0.090 HD
ENDBRANCH   5  18
BRANCH   3  22
ATOM     22  C   LIG d   1       3.257  90.941 115.614  0.00  0.00     0.382 C 
ATOM     23  O   LIG d   1       2.372  90.756 114.744  0.00  0.00    -0.241 OA
ATOM     24  O   LIG d   1       3.283  92.015 116.243  0.00  0.00    -0.241 OA
ENDBRANCH   3  22
TORSDOF 7
ENDMDL
MODEL 8
REMARK VINA RESULT:      -4.1      2.523      5.186
REMARK  7 active torsions:
REMARK  status: ('A' for Active; 'I' for Inactive)
REMARK    1  A    between atoms: C_2  and  C_3 
REMARK    2  A    between atoms: C_3  and  O_6 
REMARK    3  A    between atoms: C_3  and  C_4 
REMARK    4  A    between atoms: C_7  and  O_6 
REMARK    5  A    between atoms: C_9  and  C_10 
REMARK    6  A    between atoms: N_15  and  C_14 
REMARK    7  A    between atoms: N_20  and  C_19 
REMARK       I    between atoms: C_22  and  N_20 
ROOT
ATOM      1  C   LIG d   1      -3.220  92.881 119.086  0.00  0.00     0.161 C 
ATOM      2  C   LIG d   1      -3.021  94.255 118.873  0.00  0.00     0.016 C 
ATOM      3  C   LIG d   1      -1.998  94.774 118.046  0.00  0.00     0.038 C 
ATOM      4  C   LIG d   1      -1.193  93.943 117.253  0.00  0.00     0.028 C 
ATOM      5  C   LIG d   1      -1.027  92.538 117.822  0.00  0.00    -0.047 C 
ATOM      6  C   LIG d   1      -2.423  91.958 118.142  0.00  0.00     0.091 C 
ENDROOT
BRANCH   1   7
ATOM      7  O   LIG d   1      -4.627  92.575 119.017  0.00  0.00    -0.368 OA
BRANCH   7   8
ATOM      8  C   LIG d   1      -5.408  93.372 118.093  0.00  0.00     0.119 C 
BRANCH   8   9
ATOM      9  C   LIG d   1      -6.699  93.793 118.822  0.00  0.00     0.028 C 
ATOM     10  C   LIG d   1      -7.286  95.102 118.267  0.00  0.00     0.006 C 
ENDBRANCH   8   9
BRANCH   8  11
ATOM     11  C   LIG d   1      -5.872  92.540 116.894  0.00  0.00     0.028 C 
ATOM     12  C   LIG d   1      -6.938  91.498 117.268  0.00  0.00     0.006 C 
ENDBRANCH   8  11
ENDBRANCH   7   8
ENDBRANCH   1   7
BRANCH   6  13
ATOM     13  N   LIG d   1      -2.347  90.618 118.781  0.00  0.00    -0.311 N 
ATOM     14  C   LIG d   1      -3.137  89.600 118.445  0.00  0.00     0.210 C 
ATOM     15  C   LIG d   1      -2.906  88.312 119.242  0.00  0.00     0.109 C 
ATOM     16  O   LIG d   1      -3.985  89.631 117.541  0.00  0.00    -0.276 OA
ATOM     17  H   LIG d   1      -1.666  90.496 119.504  0.00  0.00     0.149 HD
ENDBRANCH   6  13
BRANCH   5  18
ATOM     18  N   LIG d   1      -0.283  91.740 116.829  0.00  0.00     0.381 N 
ATOM     19  H   LIG d   1      -0.267  90.780 117.109  0.00  0.00    -0.090 HD
ATOM     20  H   LIG d   1       0.665  92.073 116.789  0.00  0.00    -0.090 HD
ATOM     21  H   LIG d   1      -0.711  91.825 115.933  0.00  0.00    -0.090 HD
ENDBRANCH   5  18
BRANCH   3  22
ATOM     22  C   LIG d   1      -1.745  96.137 118.039  0.00  0.00     0.382 C 
ATOM     23  O   LIG d   1      -0.851  96.605 117.294  0.00  0.00    -0.241 OA
ATOM     24  O   LIG d   1      -2.370  96.900 118.801  0.00  0.00    -0.241 OA
ENDBRANCH   3  22
TORSDOF 7
ENDMDL
MODEL 9
REMARK VINA RESULT:      -4.1      5.187      7.908
REMARK  7 active torsions:
REMARK  status: ('A' for Active; 'I' for Inactive)
REMARK    1  A    between atoms: C_2  and  C_3 
REMARK    2  A    between atoms: C_3  and  O_6 
REMARK    3  A    between atoms: C_3  and  C_4 
REMARK    4  A    between atoms: C_7  and  O_6 
REMARK    5  A    between atoms: C_9  and  C_10 
REMARK    6  A    between atoms: N_15  and  C_14 
REMARK    7  A    between atoms: N_20  and  C_19 
REMARK       I    between atoms: C_22  and  N_20 
ROOT
ATOM      1  C   LIG d   1       0.219  91.126 117.809  0.00  0.00     0.161 C 
ATOM      2  C   LIG d   1      -1.151  91.363 117.606  0.00  0.00     0.016 C 
ATOM      3  C   LIG d   1      -1.715  92.657 117.531  0.00  0.00     0.038 C 
ATOM      4  C   LIG d   1      -0.918  93.812 117.505  0.00  0.00     0.028 C 
ATOM      5  C   LIG d   1       0.420  93.641 118.214  0.00  0.00    -0.047 C 
ATOM      6  C   LIG d   1       1.118  92.373 117.672  0.00  0.00     0.091 C 
ENDROOT
BRANCH   1   7
ATOM      7  O   LIG d   1       0.671  90.082 116.925  0.00  0.00    -0.368 OA
BRANCH   7   8
ATOM      8  C   LIG d   1       1.047  88.832 117.554  0.00  0.00     0.119 C 
BRANCH   8   9
ATOM      9  C   LIG d   1       2.233  88.252 116.760  0.00  0.00     0.028 C 
ATOM     10  C   LIG d   1       2.999  89.332 115.977  0.00  0.00     0.006 C 
ENDBRANCH   8   9
BRANCH   8  11
ATOM     11  C   LIG d   1      -0.070  87.791 117.434  0.00  0.00     0.028 C 
ATOM     12  C   LIG d   1      -0.924  87.684 118.707  0.00  0.00     0.006 C 
ENDBRANCH   8  11
ENDBRANCH   7   8
ENDBRANCH   1   7
BRANCH   6  13
ATOM     13  N   LIG d   1       2.396  92.085 118.372  0.00  0.00    -0.311 N 
ATOM     14  C   LIG d   1       3.588  92.454 117.905  0.00  0.00     0.210 C 
ATOM     15  C   LIG d   1       4.780  92.040 118.774  0.00  0.00     0.109 C 
ATOM     16  O   LIG d   1       3.768  93.114 116.871  0.00  0.00    -0.276 OA
ATOM     17  H   LIG d   1       2.340  91.581 119.236  0.00  0.00     0.149 HD
ENDBRANCH   6  13
BRANCH   5  18
ATOM     18  N   LIG d   1       1.203  94.872 117.992  0.00  0.00     0.381 N 
ATOM     19  H   LIG d   1       2.125  94.758 118.363  0.00  0.00    -0.090 HD
ATOM     20  H   LIG d   1       0.759  95.631 118.477  0.00  0.00    -0.090 HD
ATOM     21  H   LIG d   1       1.252  95.073 117.017  0.00  0.00    -0.090 HD
ENDBRANCH   5  18
BRANCH   3  22
ATOM     22  C   LIG d   1      -3.093  92.807 117.523  0.00  0.00     0.382 C 
ATOM     23  O   LIG d   1      -3.625  93.748 118.159  0.00  0.00    -0.241 OA
ATOM     24  O   LIG d   1      -3.814  91.988 116.923  0.00  0.00    -0.241 OA
ENDBRANCH   3  22
TORSDOF 7
ENDMDL
