MODEL 1
REMARK VINA RESULT:      -5.7      0.000      0.000
REMARK  7 active torsions:
REMARK  status: ('A' for Active; 'I' for Inactive)
REMARK    1  A    between atoms: C_2  and  C_3 
REMARK    2  A    between atoms: C_3  and  O_6 
REMARK    3  A    between atoms: C_3  and  C_4 
REMARK    4  A    between atoms: C_7  and  O_6 
REMARK    5  A    between atoms: C_9  and  C_10 
REMARK    6  A    between atoms: N_15  and  C_14 
REMARK    7  A    between atoms: N_20  and  C_19 
REMARK       I    between atoms: C_22  and  N_20 
ROOT
ATOM      1  C   LIG d   1      -6.344  92.066 117.509  0.00  0.00     0.161 C 
ATOM      2  C   LIG d   1      -7.251  93.135 117.413  0.00  0.00     0.016 C 
ATOM      3  C   LIG d   1      -7.080  94.364 118.091  0.00  0.00     0.038 C 
ATOM      4  C   LIG d   1      -5.905  94.664 118.797  0.00  0.00     0.028 C 
ATOM      5  C   LIG d   1      -5.191  93.429 119.337  0.00  0.00    -0.047 C 
ATOM      6  C   LIG d   1      -5.002  92.415 118.186  0.00  0.00     0.091 C 
ENDROOT
BRANCH   1   7
ATOM      7  O   LIG d   1      -6.115  91.501 116.204  0.00  0.00    -0.368 OA
BRANCH   7   8
ATOM      8  C   LIG d   1      -6.838  90.282 115.901  0.00  0.00     0.119 C 
BRANCH   8   9
ATOM      9  C   LIG d   1      -7.260  90.350 114.420  0.00  0.00     0.028 C 
ATOM     10  C   LIG d   1      -7.335  91.795 113.897  0.00  0.00     0.006 C 
ENDBRANCH   8   9
BRANCH   8  11
ATOM     11  C   LIG d   1      -8.146  90.199 116.692  0.00  0.00     0.028 C 
ATOM     12  C   LIG d   1      -9.078  89.086 116.187  0.00  0.00     0.006 C 
ENDBRANCH   8  11
ENDBRANCH   7   8
ENDBRANCH   1   7
BRANCH   6  13
ATOM     13  N   LIG d   1      -4.386  91.143 118.646  0.00  0.00    -0.311 N 
ATOM     14  C   LIG d   1      -3.071  90.937 118.683  0.00  0.00     0.210 C 
ATOM     15  C   LIG d   1      -2.648  89.548 119.172  0.00  0.00     0.109 C 
ATOM     16  O   LIG d   1      -2.214  91.783 118.388  0.00  0.00    -0.276 OA
ATOM     17  H   LIG d   1      -5.008  90.413 118.934  0.00  0.00     0.149 HD
ENDBRANCH   6  13
BRANCH   5  18
ATOM     18  N   LIG d   1      -3.916  93.875 119.930  0.00  0.00     0.381 N 
ATOM     19  H   LIG d   1      -3.569  94.669 119.429  0.00  0.00    -0.090 HD
ATOM     20  H   LIG d   1      -3.243  93.133 119.850  0.00  0.00    -0.090 HD
ATOM     21  H   LIG d   1      -4.050  94.111 120.889  0.00  0.00    -0.090 HD
ENDBRANCH   5  18
BRANCH   3  22
ATOM     22  C   LIG d   1      -8.109  95.293 118.100  0.00  0.00     0.382 C 
ATOM     23  O   LIG d   1      -7.920  96.434 118.587  0.00  0.00    -0.241 OA
ATOM     24  O   LIG d   1      -9.236  94.991 117.666  0.00  0.00    -0.241 OA
ENDBRANCH   3  22
TORSDOF 7
ENDMDL
MODEL 2
REMARK VINA RESULT:      -5.6      1.546      4.863
REMARK  7 active torsions:
REMARK  status: ('A' for Active; 'I' for Inactive)
REMARK    1  A    between atoms: C_2  and  C_3 
REMARK    2  A    between atoms: C_3  and  O_6 
REMARK    3  A    between atoms: C_3  and  C_4 
REMARK    4  A    between atoms: C_7  and  O_6 
REMARK    5  A    between atoms: C_9  and  C_10 
REMARK    6  A    between atoms: N_15  and  C_14 
REMARK    7  A    between atoms: N_20  and  C_19 
REMARK       I    between atoms: C_22  and  N_20 
ROOT
ATOM      1  C   LIG d   1      -5.479  91.867 117.537  0.00  0.00     0.161 C 
ATOM      2  C   LIG d   1      -4.426  90.948 117.671  0.00  0.00     0.016 C 
ATOM      3  C   LIG d   1      -3.278  91.190 118.460  0.00  0.00     0.038 C 
ATOM      4  C   LIG d   1      -3.175  92.314 119.294  0.00  0.00     0.028 C 
ATOM      5  C   LIG d   1      -3.986  93.508 118.804  0.00  0.00    -0.047 C 
ATOM      6  C   LIG d   1      -5.436  93.050 118.527  0.00  0.00     0.091 C 
ENDROOT
BRANCH   1   7
ATOM      7  O   LIG d   1      -6.743  91.180 117.632  0.00  0.00    -0.368 OA
BRANCH   7   8
ATOM      8  C   LIG d   1      -7.606  91.269 116.473  0.00  0.00     0.119 C 
BRANCH   8   9
ATOM      9  C   LIG d   1      -7.754  89.848 115.895  0.00  0.00     0.028 C 
ATOM     10  C   LIG d   1      -9.049  89.159 116.356  0.00  0.00     0.006 C 
ENDBRANCH   8   9
BRANCH   8  11
ATOM     11  C   LIG d   1      -6.958  92.095 115.357  0.00  0.00     0.028 C 
ATOM     12  C   LIG d   1      -7.341  91.604 113.953  0.00  0.00     0.006 C 
ENDBRANCH   8  11
ENDBRANCH   7   8
ENDBRANCH   1   7
BRANCH   6  13
ATOM     13  N   LIG d   1      -6.276  94.139 117.964  0.00  0.00    -0.311 N 
ATOM     14  C   LIG d   1      -7.099  94.885 118.699  0.00  0.00     0.210 C 
ATOM     15  C   LIG d   1      -7.888  95.939 117.917  0.00  0.00     0.109 C 
ATOM     16  O   LIG d   1      -7.225  94.795 119.929  0.00  0.00    -0.276 OA
ATOM     17  H   LIG d   1      -6.213  94.301 116.978  0.00  0.00     0.149 HD
ENDBRANCH   6  13
BRANCH   5  18
ATOM     18  N   LIG d   1      -3.899  94.559 119.836  0.00  0.00     0.381 N 
ATOM     19  H   LIG d   1      -2.940  94.791 120.003  0.00  0.00    -0.090 HD
ATOM     20  H   LIG d   1      -4.293  94.209 120.691  0.00  0.00    -0.090 HD
ATOM     21  H   LIG d   1      -4.397  95.369 119.540  0.00  0.00    -0.090 HD
ENDBRANCH   5  18
BRANCH   3  22
ATOM     22  C   LIG d   1      -2.199  90.322 118.389  0.00  0.00     0.382 C 
ATOM     23  O   LIG d   1      -1.160  90.662 117.772  0.00  0.00    -0.241 OA
ATOM     24  O   LIG d   1      -2.268  89.186 118.895  0.00  0.00    -0.241 OA
ENDBRANCH   3  22
TORSDOF 7
ENDMDL
MODEL 3
REMARK VINA RESULT:      -5.2      2.285      5.499
REMARK  7 active torsions:
REMARK  status: ('A' for Active; 'I' for Inactive)
REMARK    1  A    between atoms: C_2  and  C_3 
REMARK    2  A    between atoms: C_3  and  O_6 
REMARK    3  A    between atoms: C_3  and  C_4 
REMARK    4  A    between atoms: C_7  and  O_6 
REMARK    5  A    between atoms: C_9  and  C_10 
REMARK    6  A    between atoms: N_15  and  C_14 
REMARK    7  A    between atoms: N_20  and  C_19 
REMARK       I    between atoms: C_22  and  N_20 
ROOT
ATOM      1  C   LIG d   1      -5.602  92.761 118.045  0.00  0.00     0.161 C 
ATOM      2  C   LIG d   1      -6.105  91.589 117.455  0.00  0.00     0.016 C 
ATOM      3  C   LIG d   1      -7.408  91.487 116.917  0.00  0.00     0.038 C 
ATOM      4  C   LIG d   1      -8.251  92.602 116.795  0.00  0.00     0.028 C 
ATOM      5  C   LIG d   1      -7.976  93.685 117.834  0.00  0.00    -0.047 C 
ATOM      6  C   LIG d   1      -6.467  94.020 117.822  0.00  0.00     0.091 C 
ENDROOT
BRANCH   1   7
ATOM      7  O   LIG d   1      -4.253  92.994 117.596  0.00  0.00    -0.368 OA
BRANCH   7   8
ATOM      8  C   LIG d   1      -3.230  92.991 118.622  0.00  0.00     0.119 C 
BRANCH   8   9
ATOM      9  C   LIG d   1      -2.420  94.293 118.472  0.00  0.00     0.028 C 
ATOM     10  C   LIG d   1      -2.619  95.248 119.662  0.00  0.00     0.006 C 
ENDBRANCH   8   9
BRANCH   8  11
ATOM     11  C   LIG d   1      -2.222  91.859 118.401  0.00  0.00     0.028 C 
ATOM     12  C   LIG d   1      -2.851  90.464 118.545  0.00  0.00     0.006 C 
ENDBRANCH   8  11
ENDBRANCH   7   8
ENDBRANCH   1   7
BRANCH   6  13
ATOM     13  N   LIG d   1      -6.097  95.010 118.867  0.00  0.00    -0.311 N 
ATOM     14  C   LIG d   1      -6.310  96.319 118.744  0.00  0.00     0.210 C 
ATOM     15  C   LIG d   1      -5.836  97.165 119.930  0.00  0.00     0.109 C 
ATOM     16  O   LIG d   1      -6.876  96.856 117.780  0.00  0.00    -0.276 OA
ATOM     17  H   LIG d   1      -5.662  94.657 119.696  0.00  0.00     0.149 HD
ENDBRANCH   6  13
BRANCH   5  18
ATOM     18  N   LIG d   1      -8.828  94.843 117.506  0.00  0.00     0.381 N 
ATOM     19  H   LIG d   1      -9.768  94.539 117.352  0.00  0.00    -0.090 HD
ATOM     20  H   LIG d   1      -8.490  95.266 116.660  0.00  0.00    -0.090 HD
ATOM     21  H   LIG d   1      -8.803  95.505 118.250  0.00  0.00    -0.090 HD
ENDBRANCH   5  18
BRANCH   3  22
ATOM     22  C   LIG d   1      -7.896  90.248 116.529  0.00  0.00     0.382 C 
ATOM     23  O   LIG d   1      -7.257  89.553 115.702  0.00  0.00    -0.241 OA
ATOM     24  O   LIG d   1      -8.989  89.836 116.961  0.00  0.00    -0.241 OA
ENDBRANCH   3  22
TORSDOF 7
ENDMDL
MODEL 4
REMARK VINA RESULT:      -4.7      8.158     10.937
REMARK  7 active torsions:
REMARK  status: ('A' for Active; 'I' for Inactive)
REMARK    1  A    between atoms: C_2  and  C_3 
REMARK    2  A    between atoms: C_3  and  O_6 
REMARK    3  A    between atoms: C_3  and  C_4 
REMARK    4  A    between atoms: C_7  and  O_6 
REMARK    5  A    between atoms: C_9  and  C_10 
REMARK    6  A    between atoms: N_15  and  C_14 
REMARK    7  A    between atoms: N_20  and  C_19 
REMARK       I    between atoms: C_22  and  N_20 
ROOT
ATOM      1  C   LIG d   1       3.710  88.385 116.298  0.00  0.00     0.161 C 
ATOM      2  C   LIG d   1       2.415  88.914 116.425  0.00  0.00     0.016 C 
ATOM      3  C   LIG d   1       2.120  90.080 117.168  0.00  0.00     0.038 C 
ATOM      4  C   LIG d   1       3.130  90.886 117.715  0.00  0.00     0.028 C 
ATOM      5  C   LIG d   1       4.407  90.119 118.040  0.00  0.00    -0.047 C 
ATOM      6  C   LIG d   1       4.839  89.312 116.794  0.00  0.00     0.091 C 
ENDROOT
BRANCH   1   7
ATOM      7  O   LIG d   1       3.946  87.995 114.930  0.00  0.00    -0.368 OA
BRANCH   7   8
ATOM      8  C   LIG d   1       3.261  88.772 113.918  0.00  0.00     0.119 C 
BRANCH   8   9
ATOM      9  C   LIG d   1       2.860  87.807 112.786  0.00  0.00     0.028 C 
ATOM     10  C   LIG d   1       3.296  86.359 113.067  0.00  0.00     0.006 C 
ENDBRANCH   8   9
BRANCH   8  11
ATOM     11  C   LIG d   1       4.200  89.793 113.268  0.00  0.00     0.028 C 
ATOM     12  C   LIG d   1       5.648  89.288 113.164  0.00  0.00     0.006 C 
ENDBRANCH   8  11
ENDBRANCH   7   8
ENDBRANCH   1   7
BRANCH   6  13
ATOM     13  N   LIG d   1       6.034  88.467 117.052  0.00  0.00    -0.311 N 
ATOM     14  C   LIG d   1       7.280  88.864 116.802  0.00  0.00     0.210 C 
ATOM     15  C   LIG d   1       8.365  87.831 117.122  0.00  0.00     0.109 C 
ATOM     16  O   LIG d   1       7.593  89.986 116.375  0.00  0.00    -0.276 OA
ATOM     17  H   LIG d   1       5.874  87.553 117.427  0.00  0.00     0.149 HD
ENDBRANCH   6  13
BRANCH   5  18
ATOM     18  N   LIG d   1       5.419  91.102 118.471  0.00  0.00     0.381 N 
ATOM     19  H   LIG d   1       6.137  91.175 117.778  0.00  0.00    -0.090 HD
ATOM     20  H   LIG d   1       5.838  90.783 119.327  0.00  0.00    -0.090 HD
ATOM     21  H   LIG d   1       4.993  91.991 118.613  0.00  0.00    -0.090 HD
ENDBRANCH   5  18
BRANCH   3  22
ATOM     22  C   LIG d   1       0.799  90.428 117.405  0.00  0.00     0.382 C 
ATOM     23  O   LIG d   1      -0.100  89.555 117.347  0.00  0.00    -0.241 OA
ATOM     24  O   LIG d   1       0.489  91.613 117.634  0.00  0.00    -0.241 OA
ENDBRANCH   3  22
TORSDOF 7
ENDMDL
MODEL 5
REMARK VINA RESULT:      -4.5      2.737      6.807
REMARK  7 active torsions:
REMARK  status: ('A' for Active; 'I' for Inactive)
REMARK    1  A    between atoms: C_2  and  C_3 
REMARK    2  A    between atoms: C_3  and  O_6 
REMARK    3  A    between atoms: C_3  and  C_4 
REMARK    4  A    between atoms: C_7  and  O_6 
REMARK    5  A    between atoms: C_9  and  C_10 
REMARK    6  A    between atoms: N_15  and  C_14 
REMARK    7  A    between atoms: N_20  and  C_19 
REMARK       I    between atoms: C_22  and  N_20 
ROOT
ATOM      1  C   LIG d   1      -3.391  93.320 119.074  0.00  0.00     0.161 C 
ATOM      2  C   LIG d   1      -2.144  92.784 119.436  0.00  0.00     0.016 C 
ATOM      3  C   LIG d   1      -1.686  91.518 119.003  0.00  0.00     0.038 C 
ATOM      4  C   LIG d   1      -2.385  90.763 118.050  0.00  0.00     0.028 C 
ATOM      5  C   LIG d   1      -3.886  91.034 118.044  0.00  0.00    -0.047 C 
ATOM      6  C   LIG d   1      -4.119  92.559 117.946  0.00  0.00     0.091 C 
ENDROOT
BRANCH   1   7
ATOM      7  O   LIG d   1      -3.243  94.710 118.726  0.00  0.00    -0.368 OA
BRANCH   7   8
ATOM      8  C   LIG d   1      -3.402  95.659 119.809  0.00  0.00     0.119 C 
BRANCH   8   9
ATOM      9  C   LIG d   1      -4.643  96.517 119.495  0.00  0.00     0.028 C 
ATOM     10  C   LIG d   1      -5.952  95.836 119.930  0.00  0.00     0.006 C 
ENDBRANCH   8   9
BRANCH   8  11
ATOM     11  C   LIG d   1      -2.231  96.645 119.863  0.00  0.00     0.028 C 
ATOM     12  C   LIG d   1      -1.269  96.493 118.674  0.00  0.00     0.006 C 
ENDBRANCH   8  11
ENDBRANCH   7   8
ENDBRANCH   1   7
BRANCH   6  13
ATOM     13  N   LIG d   1      -5.560  92.917 118.019  0.00  0.00    -0.311 N 
ATOM     14  C   LIG d   1      -6.366  92.935 116.959  0.00  0.00     0.210 C 
ATOM     15  C   LIG d   1      -7.810  93.352 117.251  0.00  0.00     0.109 C 
ATOM     16  O   LIG d   1      -6.029  92.614 115.809  0.00  0.00    -0.276 OA
ATOM     17  H   LIG d   1      -5.924  93.161 118.919  0.00  0.00     0.149 HD
ENDBRANCH   6  13
BRANCH   5  18
ATOM     18  N   LIG d   1      -4.469  90.286 116.915  0.00  0.00     0.381 N 
ATOM     19  H   LIG d   1      -4.201  89.324 116.971  0.00  0.00    -0.090 HD
ATOM     20  H   LIG d   1      -4.111  90.663 116.055  0.00  0.00    -0.090 HD
ATOM     21  H   LIG d   1      -5.463  90.363 116.932  0.00  0.00    -0.090 HD
ENDBRANCH   5  18
BRANCH   3  22
ATOM     22  C   LIG d   1      -0.535  90.978 119.556  0.00  0.00     0.382 C 
ATOM     23  O   LIG d   1       0.451  91.716 119.796  0.00  0.00    -0.241 OA
ATOM     24  O   LIG d   1      -0.453  89.755 119.776  0.00  0.00    -0.241 OA
ENDBRANCH   3  22
TORSDOF 7
ENDMDL
MODEL 6
REMARK VINA RESULT:      -4.5      7.311     10.209
REMARK  7 active torsions:
REMARK  status: ('A' for Active; 'I' for Inactive)
REMARK    1  A    between atoms: C_2  and  C_3 
REMARK    2  A    between atoms: C_3  and  O_6 
REMARK    3  A    between atoms: C_3  and  C_4 
REMARK    4  A    between atoms: C_7  and  O_6 
REMARK    5  A    between atoms: C_9  and  C_10 
REMARK    6  A    between atoms: N_15  and  C_14 
REMARK    7  A    between atoms: N_20  and  C_19 
REMARK       I    between atoms: C_22  and  N_20 
ROOT
ATOM      1  C   LIG d   1       3.400  90.791 117.229  0.00  0.00     0.161 C 
ATOM      2  C   LIG d   1       2.011  90.601 117.146  0.00  0.00     0.016 C 
ATOM      3  C   LIG d   1       1.075  91.376 117.868  0.00  0.00     0.038 C 
ATOM      4  C   LIG d   1       1.460  92.501 118.612  0.00  0.00     0.028 C 
ATOM      5  C   LIG d   1       2.893  92.424 119.128  0.00  0.00    -0.047 C 
ATOM      6  C   LIG d   1       3.834  92.085 117.949  0.00  0.00     0.091 C 
ENDROOT
BRANCH   1   7
ATOM      7  O   LIG d   1       3.982  90.732 115.912  0.00  0.00    -0.368 OA
BRANCH   7   8
ATOM      8  C   LIG d   1       4.184  89.406 115.363  0.00  0.00     0.119 C 
BRANCH   8   9
ATOM      9  C   LIG d   1       5.372  88.771 116.113  0.00  0.00     0.028 C 
ATOM     10  C   LIG d   1       6.703  89.480 115.810  0.00  0.00     0.006 C 
ENDBRANCH   8   9
BRANCH   8  11
ATOM     11  C   LIG d   1       4.618  89.470 113.896  0.00  0.00     0.028 C 
ATOM     12  C   LIG d   1       3.946  88.395 113.028  0.00  0.00     0.006 C 
ENDBRANCH   8  11
ENDBRANCH   7   8
ENDBRANCH   1   7
BRANCH   6  13
ATOM     13  N   LIG d   1       5.244  91.908 118.382  0.00  0.00    -0.311 N 
ATOM     14  C   LIG d   1       6.112  92.913 118.484  0.00  0.00     0.210 C 
ATOM     15  C   LIG d   1       7.521  92.509 118.929  0.00  0.00     0.109 C 
ATOM     16  O   LIG d   1       5.840  94.106 118.278  0.00  0.00    -0.276 OA
ATOM     17  H   LIG d   1       5.542  90.977 118.599  0.00  0.00     0.149 HD
ENDBRANCH   6  13
BRANCH   5  18
ATOM     18  N   LIG d   1       3.208  93.717 119.765  0.00  0.00     0.381 N 
ATOM     19  H   LIG d   1       4.009  94.125 119.327  0.00  0.00    -0.090 HD
ATOM     20  H   LIG d   1       3.425  93.557 120.733  0.00  0.00    -0.090 HD
ATOM     21  H   LIG d   1       2.428  94.333 119.689  0.00  0.00    -0.090 HD
ENDBRANCH   5  18
BRANCH   3  22
ATOM     22  C   LIG d   1      -0.261  91.003 117.882  0.00  0.00     0.382 C 
ATOM     23  O   LIG d   1      -0.601  89.873 117.457  0.00  0.00    -0.241 OA
ATOM     24  O   LIG d   1      -1.135  91.800 118.274  0.00  0.00    -0.241 OA
ENDBRANCH   3  22
TORSDOF 7
ENDMDL
MODEL 7
REMARK VINA RESULT:      -4.4      2.783      4.477
REMARK  7 active torsions:
REMARK  status: ('A' for Active; 'I' for Inactive)
REMARK    1  A    between atoms: C_2  and  C_3 
REMARK    2  A    between atoms: C_3  and  O_6 
REMARK    3  A    between atoms: C_3  and  C_4 
REMARK    4  A    between atoms: C_7  and  O_6 
REMARK    5  A    between atoms: C_9  and  C_10 
REMARK    6  A    between atoms: N_15  and  C_14 
REMARK    7  A    between atoms: N_20  and  C_19 
REMARK       I    between atoms: C_22  and  N_20 
ROOT
ATOM      1  C   LIG d   1      -3.831  93.350 119.609  0.00  0.00     0.161 C 
ATOM      2  C   LIG d   1      -3.695  94.730 119.381  0.00  0.00     0.016 C 
ATOM      3  C   LIG d   1      -2.628  95.296 118.646  0.00  0.00     0.038 C 
ATOM      4  C   LIG d   1      -1.701  94.501 117.955  0.00  0.00     0.028 C 
ATOM      5  C   LIG d   1      -1.507  93.121 118.573  0.00  0.00    -0.047 C 
ATOM      6  C   LIG d   1      -2.890  92.460 118.770  0.00  0.00     0.091 C 
ENDROOT
BRANCH   1   7
ATOM      7  O   LIG d   1      -5.203  92.955 119.410  0.00  0.00    -0.368 OA
BRANCH   7   8
ATOM      8  C   LIG d   1      -6.051  93.915 118.733  0.00  0.00     0.119 C 
BRANCH   8   9
ATOM      9  C   LIG d   1      -7.031  94.485 119.777  0.00  0.00     0.028 C 
ATOM     10  C   LIG d   1      -7.505  95.905 119.423  0.00  0.00     0.006 C 
ENDBRANCH   8   9
BRANCH   8  11
ATOM     11  C   LIG d   1      -6.931  93.235 117.680  0.00  0.00     0.028 C 
ATOM     12  C   LIG d   1      -6.114  92.555 116.570  0.00  0.00     0.006 C 
ENDBRANCH   8  11
ENDBRANCH   7   8
ENDBRANCH   1   7
BRANCH   6  13
ATOM     13  N   LIG d   1      -2.797  91.141 119.447  0.00  0.00    -0.311 N 
ATOM     14  C   LIG d   1      -3.418  90.047 119.010  0.00  0.00     0.210 C 
ATOM     15  C   LIG d   1      -3.205  88.795 119.868  0.00  0.00     0.109 C 
ATOM     16  O   LIG d   1      -4.099  89.986 117.975  0.00  0.00    -0.276 OA
ATOM     17  H   LIG d   1      -2.239  91.092 120.278  0.00  0.00     0.149 HD
ENDBRANCH   6  13
BRANCH   5  18
ATOM     18  N   LIG d   1      -0.621  92.352 117.678  0.00  0.00     0.381 N 
ATOM     19  H   LIG d   1       0.262  92.815 117.597  0.00  0.00    -0.090 HD
ATOM     20  H   LIG d   1      -1.040  92.309 116.766  0.00  0.00    -0.090 HD
ATOM     21  H   LIG d   1      -0.490  91.432 118.036  0.00  0.00    -0.090 HD
ENDBRANCH   5  18
BRANCH   3  22
ATOM     22  C   LIG d   1      -2.459  96.672 118.629  0.00  0.00     0.382 C 
ATOM     23  O   LIG d   1      -1.315  97.161 118.471  0.00  0.00    -0.241 OA
ATOM     24  O   LIG d   1      -3.430  97.430 118.813  0.00  0.00    -0.241 OA
ENDBRANCH   3  22
TORSDOF 7
ENDMDL
MODEL 8
REMARK VINA RESULT:      -4.3      5.677      8.574
REMARK  7 active torsions:
REMARK  status: ('A' for Active; 'I' for Inactive)
REMARK    1  A    between atoms: C_2  and  C_3 
REMARK    2  A    between atoms: C_3  and  O_6 
REMARK    3  A    between atoms: C_3  and  C_4 
REMARK    4  A    between atoms: C_7  and  O_6 
REMARK    5  A    between atoms: C_9  and  C_10 
REMARK    6  A    between atoms: N_15  and  C_14 
REMARK    7  A    between atoms: N_20  and  C_19 
REMARK       I    between atoms: C_22  and  N_20 
ROOT
ATOM      1  C   LIG d   1       1.288  90.078 117.610  0.00  0.00     0.161 C 
ATOM      2  C   LIG d   1      -0.109  89.937 117.646  0.00  0.00     0.016 C 
ATOM      3  C   LIG d   1      -0.981  90.946 118.116  0.00  0.00     0.038 C 
ATOM      4  C   LIG d   1      -0.521  92.230 118.443  0.00  0.00     0.028 C 
ATOM      5  C   LIG d   1       0.934  92.254 118.901  0.00  0.00    -0.047 C 
ATOM      6  C   LIG d   1       1.800  91.512 117.858  0.00  0.00     0.091 C 
ENDROOT
BRANCH   1   7
ATOM      7  O   LIG d   1       1.798  89.573 116.360  0.00  0.00    -0.368 OA
BRANCH   7   8
ATOM      8  C   LIG d   1       2.930  88.673 116.450  0.00  0.00     0.119 C 
BRANCH   8   9
ATOM      9  C   LIG d   1       4.009  89.188 115.478  0.00  0.00     0.028 C 
ATOM     10  C   LIG d   1       5.418  89.157 116.095  0.00  0.00     0.006 C 
ENDBRANCH   8   9
BRANCH   8  11
ATOM     11  C   LIG d   1       2.569  87.271 115.950  0.00  0.00     0.028 C 
ATOM     12  C   LIG d   1       2.792  87.102 114.439  0.00  0.00     0.006 C 
ENDBRANCH   8  11
ENDBRANCH   7   8
ENDBRANCH   1   7
BRANCH   6  13
ATOM     13  N   LIG d   1       3.225  91.416 118.270  0.00  0.00    -0.311 N 
ATOM     14  C   LIG d   1       4.154  92.298 117.908  0.00  0.00     0.210 C 
ATOM     15  C   LIG d   1       5.565  92.002 118.426  0.00  0.00     0.109 C 
ATOM     16  O   LIG d   1       3.938  93.316 117.233  0.00  0.00    -0.276 OA
ATOM     17  H   LIG d   1       3.482  90.637 118.845  0.00  0.00     0.149 HD
ENDBRANCH   6  13
BRANCH   5  18
ATOM     18  N   LIG d   1       1.322  93.667 119.076  0.00  0.00     0.381 N 
ATOM     19  H   LIG d   1       1.806  93.780 119.944  0.00  0.00    -0.090 HD
ATOM     20  H   LIG d   1       0.492  94.232 119.101  0.00  0.00    -0.090 HD
ATOM     21  H   LIG d   1       1.907  93.955 118.322  0.00  0.00    -0.090 HD
ENDBRANCH   5  18
BRANCH   3  22
ATOM     22  C   LIG d   1      -2.325  90.661 118.301  0.00  0.00     0.382 C 
ATOM     23  O   LIG d   1      -2.708  89.469 118.382  0.00  0.00    -0.241 OA
ATOM     24  O   LIG d   1      -3.166  91.580 118.343  0.00  0.00    -0.241 OA
ENDBRANCH   3  22
TORSDOF 7
ENDMDL
MODEL 9
REMARK VINA RESULT:      -4.2      8.770     12.390
REMARK  7 active torsions:
REMARK  status: ('A' for Active; 'I' for Inactive)
REMARK    1  A    between atoms: C_2  and  C_3 
REMARK    2  A    between atoms: C_3  and  O_6 
REMARK    3  A    between atoms: C_3  and  C_4 
REMARK    4  A    between atoms: C_7  and  O_6 
REMARK    5  A    between atoms: C_9  and  C_10 
REMARK    6  A    between atoms: N_15  and  C_14 
REMARK    7  A    between atoms: N_20  and  C_19 
REMARK       I    between atoms: C_22  and  N_20 
ROOT
ATOM      1  C   LIG d   1       4.608  88.841 117.067  0.00  0.00     0.161 C 
ATOM      2  C   LIG d   1       5.655  89.159 117.948  0.00  0.00     0.016 C 
ATOM      3  C   LIG d   1       6.915  89.638 117.520  0.00  0.00     0.038 C 
ATOM      4  C   LIG d   1       7.162  89.977 116.181  0.00  0.00     0.028 C 
ATOM      5  C   LIG d   1       6.304  89.198 115.190  0.00  0.00    -0.047 C 
ATOM      6  C   LIG d   1       4.822  89.310 115.613  0.00  0.00     0.091 C 
ENDROOT
BRANCH   1   7
ATOM      7  O   LIG d   1       3.364  89.356 117.582  0.00  0.00    -0.368 OA
BRANCH   7   8
ATOM      8  C   LIG d   1       2.935  90.634 117.052  0.00  0.00     0.119 C 
BRANCH   8   9
ATOM      9  C   LIG d   1       3.137  91.686 118.159  0.00  0.00     0.028 C 
ATOM     10  C   LIG d   1       4.173  92.755 117.771  0.00  0.00     0.006 C 
ENDBRANCH   8   9
BRANCH   8  11
ATOM     11  C   LIG d   1       1.432  90.639 116.757  0.00  0.00     0.028 C 
ATOM     12  C   LIG d   1       0.625  91.444 117.789  0.00  0.00     0.006 C 
ENDBRANCH   8  11
ENDBRANCH   7   8
ENDBRANCH   1   7
BRANCH   6  13
ATOM     13  N   LIG d   1       3.922  88.507 114.745  0.00  0.00    -0.311 N 
ATOM     14  C   LIG d   1       3.350  88.984 113.641  0.00  0.00     0.210 C 
ATOM     15  C   LIG d   1       2.443  87.995 112.903  0.00  0.00     0.109 C 
ATOM     16  O   LIG d   1       3.534  90.123 113.185  0.00  0.00    -0.276 OA
ATOM     17  H   LIG d   1       3.744  87.562 115.023  0.00  0.00     0.149 HD
ENDBRANCH   6  13
BRANCH   5  18
ATOM     18  N   LIG d   1       6.566  89.747 113.846  0.00  0.00     0.381 N 
ATOM     19  H   LIG d   1       6.545  90.747 113.879  0.00  0.00    -0.090 HD
ATOM     20  H   LIG d   1       5.842  89.437 113.222  0.00  0.00    -0.090 HD
ATOM     21  H   LIG d   1       7.454  89.437 113.518  0.00  0.00    -0.090 HD
ENDBRANCH   5  18
BRANCH   3  22
ATOM     22  C   LIG d   1       7.955  89.744 118.430  0.00  0.00     0.382 C 
ATOM     23  O   LIG d   1       9.085  90.135 118.048  0.00  0.00    -0.241 OA
ATOM     24  O   LIG d   1       7.792  89.411 119.619  0.00  0.00    -0.241 OA
ENDBRANCH   3  22
TORSDOF 7
ENDMDL
