MODEL 1
REMARK VINA RESULT:      -5.0      0.000      0.000
REMARK  7 active torsions:
REMARK  status: ('A' for Active; 'I' for Inactive)
REMARK    1  A    between atoms: C_2  and  C_3 
REMARK    2  A    between atoms: C_3  and  O_6 
REMARK    3  A    between atoms: C_3  and  C_4 
REMARK    4  A    between atoms: C_7  and  O_6 
REMARK    5  A    between atoms: C_9  and  C_10 
REMARK    6  A    between atoms: N_15  and  C_14 
REMARK    7  A    between atoms: N_20  and  C_19 
REMARK       I    between atoms: C_22  and  N_20 
ROOT
ATOM      1  C   LIG d   1      -5.104  91.394 118.127  0.00  0.00     0.161 C 
ATOM      2  C   LIG d   1      -4.672  90.312 117.341  0.00  0.00     0.016 C 
ATOM      3  C   LIG d   1      -5.161  90.051 116.041  0.00  0.00     0.038 C 
ATOM      4  C   LIG d   1      -6.011  90.947 115.375  0.00  0.00     0.028 C 
ATOM      5  C   LIG d   1      -6.864  91.788 116.318  0.00  0.00    -0.047 C 
ATOM      6  C   LIG d   1      -5.947  92.444 117.375  0.00  0.00     0.091 C 
ENDROOT
BRANCH   1   7
ATOM      7  O   LIG d   1      -3.971  92.021 118.760  0.00  0.00    -0.368 OA
BRANCH   7   8
ATOM      8  C   LIG d   1      -2.822  92.266 117.912  0.00  0.00     0.119 C 
BRANCH   8   9
ATOM      9  C   LIG d   1      -1.589  91.672 118.620  0.00  0.00     0.028 C 
ATOM     10  C   LIG d   1      -0.851  90.643 117.747  0.00  0.00     0.006 C 
ENDBRANCH   8   9
BRANCH   8  11
ATOM     11  C   LIG d   1      -2.534  93.765 117.785  0.00  0.00     0.028 C 
ATOM     12  C   LIG d   1      -3.268  94.605 118.843  0.00  0.00     0.006 C 
ENDBRANCH   8  11
ENDBRANCH   7   8
ENDBRANCH   1   7
BRANCH   6  13
ATOM     13  N   LIG d   1      -6.712  93.217 118.388  0.00  0.00    -0.311 N 
ATOM     14  C   LIG d   1      -7.045  94.497 118.235  0.00  0.00     0.210 C 
ATOM     15  C   LIG d   1      -7.816  95.109 119.409  0.00  0.00     0.109 C 
ATOM     16  O   LIG d   1      -6.804  95.175 117.225  0.00  0.00    -0.276 OA
ATOM     17  H   LIG d   1      -6.975  92.735 119.225  0.00  0.00     0.149 HD
ENDBRANCH   6  13
BRANCH   5  18
ATOM     18  N   LIG d   1      -7.598  92.771 115.499  0.00  0.00     0.381 N 
ATOM     19  H   LIG d   1      -7.434  92.593 114.528  0.00  0.00    -0.090 HD
ATOM     20  H   LIG d   1      -7.257  93.692 115.713  0.00  0.00    -0.090 HD
ATOM     21  H   LIG d   1      -8.574  92.717 115.694  0.00  0.00    -0.090 HD
ENDBRANCH   5  18
BRANCH   3  22
ATOM     22  C   LIG d   1      -4.832  88.862 115.408  0.00  0.00     0.382 C 
ATOM     23  O   LIG d   1      -5.257  88.629 114.251  0.00  0.00    -0.241 OA
ATOM     24  O   LIG d   1      -4.151  88.001 115.997  0.00  0.00    -0.241 OA
ENDBRANCH   3  22
TORSDOF 7
ENDMDL
MODEL 2
REMARK VINA RESULT:      -5.0      1.752      4.962
REMARK  7 active torsions:
REMARK  status: ('A' for Active; 'I' for Inactive)
REMARK    1  A    between atoms: C_2  and  C_3 
REMARK    2  A    between atoms: C_3  and  O_6 
REMARK    3  A    between atoms: C_3  and  C_4 
REMARK    4  A    between atoms: C_7  and  O_6 
REMARK    5  A    between atoms: C_9  and  C_10 
REMARK    6  A    between atoms: N_15  and  C_14 
REMARK    7  A    between atoms: N_20  and  C_19 
REMARK       I    between atoms: C_22  and  N_20 
ROOT
ATOM      1  C   LIG d   1      -4.811  91.929 117.572  0.00  0.00     0.161 C 
ATOM      2  C   LIG d   1      -5.051  93.106 118.300  0.00  0.00     0.016 C 
ATOM      3  C   LIG d   1      -6.022  94.065 117.931  0.00  0.00     0.038 C 
ATOM      4  C   LIG d   1      -6.929  93.837 116.885  0.00  0.00     0.028 C 
ATOM      5  C   LIG d   1      -6.393  92.894 115.813  0.00  0.00    -0.047 C 
ATOM      6  C   LIG d   1      -5.866  91.610 116.493  0.00  0.00     0.091 C 
ENDROOT
BRANCH   1   7
ATOM      7  O   LIG d   1      -4.666  90.816 118.477  0.00  0.00    -0.368 OA
BRANCH   7   8
ATOM      8  C   LIG d   1      -3.308  90.444 118.818  0.00  0.00     0.119 C 
BRANCH   8   9
ATOM      9  C   LIG d   1      -2.410  90.826 117.626  0.00  0.00     0.028 C 
ATOM     10  C   LIG d   1      -1.111  91.521 118.068  0.00  0.00     0.006 C 
ENDBRANCH   8   9
BRANCH   8  11
ATOM     11  C   LIG d   1      -3.166  88.926 118.964  0.00  0.00     0.028 C 
ATOM     12  C   LIG d   1      -2.835  88.229 117.635  0.00  0.00     0.006 C 
ENDBRANCH   8  11
ENDBRANCH   7   8
ENDBRANCH   1   7
BRANCH   6  13
ATOM     13  N   LIG d   1      -5.247  90.669 115.523  0.00  0.00    -0.311 N 
ATOM     14  C   LIG d   1      -5.601  89.389 115.414  0.00  0.00     0.210 C 
ATOM     15  C   LIG d   1      -4.822  88.590 114.365  0.00  0.00     0.109 C 
ATOM     16  O   LIG d   1      -6.508  88.849 116.065  0.00  0.00    -0.276 OA
ATOM     17  H   LIG d   1      -4.523  91.032 114.934  0.00  0.00     0.149 HD
ENDBRANCH   6  13
BRANCH   5  18
ATOM     18  N   LIG d   1      -7.488  92.635 114.859  0.00  0.00     0.381 N 
ATOM     19  H   LIG d   1      -8.322  93.095 115.167  0.00  0.00    -0.090 HD
ATOM     20  H   LIG d   1      -7.665  91.647 114.827  0.00  0.00    -0.090 HD
ATOM     21  H   LIG d   1      -7.235  92.964 113.953  0.00  0.00    -0.090 HD
ENDBRANCH   5  18
BRANCH   3  22
ATOM     22  C   LIG d   1      -6.067  95.286 118.586  0.00  0.00     0.382 C 
ATOM     23  O   LIG d   1      -6.991  96.097 118.338  0.00  0.00    -0.241 OA
ATOM     24  O   LIG d   1      -5.169  95.605 119.389  0.00  0.00    -0.241 OA
ENDBRANCH   3  22
TORSDOF 7
ENDMDL
MODEL 3
REMARK VINA RESULT:      -4.9      2.480      5.988
REMARK  7 active torsions:
REMARK  status: ('A' for Active; 'I' for Inactive)
REMARK    1  A    between atoms: C_2  and  C_3 
REMARK    2  A    between atoms: C_3  and  O_6 
REMARK    3  A    between atoms: C_3  and  C_4 
REMARK    4  A    between atoms: C_7  and  O_6 
REMARK    5  A    between atoms: C_9  and  C_10 
REMARK    6  A    between atoms: N_15  and  C_14 
REMARK    7  A    between atoms: N_20  and  C_19 
REMARK       I    between atoms: C_22  and  N_20 
ROOT
ATOM      1  C   LIG d   1      -5.398  90.636 118.286  0.00  0.00     0.161 C 
ATOM      2  C   LIG d   1      -6.136  91.823 118.141  0.00  0.00     0.016 C 
ATOM      3  C   LIG d   1      -5.552  93.069 117.819  0.00  0.00     0.038 C 
ATOM      4  C   LIG d   1      -4.198  93.184 117.468  0.00  0.00     0.028 C 
ATOM      5  C   LIG d   1      -3.317  92.107 118.091  0.00  0.00    -0.047 C 
ATOM      6  C   LIG d   1      -3.936  90.721 117.798  0.00  0.00     0.091 C 
ENDROOT
BRANCH   1   7
ATOM      7  O   LIG d   1      -6.083  89.551 117.629  0.00  0.00    -0.368 OA
BRANCH   7   8
ATOM      8  C   LIG d   1      -7.031  89.926 116.600  0.00  0.00     0.119 C 
BRANCH   8   9
ATOM      9  C   LIG d   1      -8.132  88.848 116.571  0.00  0.00     0.028 C 
ATOM     10  C   LIG d   1      -9.203  89.132 115.504  0.00  0.00     0.006 C 
ENDBRANCH   8   9
BRANCH   8  11
ATOM     11  C   LIG d   1      -6.389  89.888 115.210  0.00  0.00     0.028 C 
ATOM     12  C   LIG d   1      -6.298  91.276 114.558  0.00  0.00     0.006 C 
ENDBRANCH   8  11
ENDBRANCH   7   8
ENDBRANCH   1   7
BRANCH   6  13
ATOM     13  N   LIG d   1      -3.182  89.615 118.444  0.00  0.00    -0.311 N 
ATOM     14  C   LIG d   1      -3.003  88.422 117.879  0.00  0.00     0.210 C 
ATOM     15  C   LIG d   1      -2.212  87.419 118.724  0.00  0.00     0.109 C 
ATOM     16  O   LIG d   1      -3.398  88.110 116.746  0.00  0.00    -0.276 OA
ATOM     17  H   LIG d   1      -2.800  89.793 119.352  0.00  0.00     0.149 HD
ENDBRANCH   6  13
BRANCH   5  18
ATOM     18  N   LIG d   1      -1.960  92.264 117.533  0.00  0.00     0.381 N 
ATOM     19  H   LIG d   1      -1.773  93.232 117.364  0.00  0.00    -0.090 HD
ATOM     20  H   LIG d   1      -1.911  91.775 116.657  0.00  0.00    -0.090 HD
ATOM     21  H   LIG d   1      -1.286  91.894 118.167  0.00  0.00    -0.090 HD
ENDBRANCH   5  18
BRANCH   3  22
ATOM     22  C   LIG d   1      -6.316  94.224 117.884  0.00  0.00     0.382 C 
ATOM     23  O   LIG d   1      -6.014  95.130 118.698  0.00  0.00    -0.241 OA
ATOM     24  O   LIG d   1      -7.329  94.352 117.171  0.00  0.00    -0.241 OA
ENDBRANCH   3  22
TORSDOF 7
ENDMDL
MODEL 4
REMARK VINA RESULT:      -4.9      2.295      3.963
REMARK  7 active torsions:
REMARK  status: ('A' for Active; 'I' for Inactive)
REMARK    1  A    between atoms: C_2  and  C_3 
REMARK    2  A    between atoms: C_3  and  O_6 
REMARK    3  A    between atoms: C_3  and  C_4 
REMARK    4  A    between atoms: C_7  and  O_6 
REMARK    5  A    between atoms: C_9  and  C_10 
REMARK    6  A    between atoms: N_15  and  C_14 
REMARK    7  A    between atoms: N_20  and  C_19 
REMARK       I    between atoms: C_22  and  N_20 
ROOT
ATOM      1  C   LIG d   1      -6.049  90.732 118.129  0.00  0.00     0.161 C 
ATOM      2  C   LIG d   1      -4.984  90.306 118.941  0.00  0.00     0.016 C 
ATOM      3  C   LIG d   1      -3.898  89.539 118.461  0.00  0.00     0.038 C 
ATOM      4  C   LIG d   1      -3.726  89.272 117.095  0.00  0.00     0.028 C 
ATOM      5  C   LIG d   1      -5.034  89.250 116.312  0.00  0.00    -0.047 C 
ATOM      6  C   LIG d   1      -5.822  90.545 116.615  0.00  0.00     0.091 C 
ENDROOT
BRANCH   1   7
ATOM      7  O   LIG d   1      -6.367  92.107 118.422  0.00  0.00    -0.368 OA
BRANCH   7   8
ATOM      8  C   LIG d   1      -5.759  93.100 117.560  0.00  0.00     0.119 C 
BRANCH   8   9
ATOM      9  C   LIG d   1      -4.747  93.894 118.408  0.00  0.00     0.028 C 
ATOM     10  C   LIG d   1      -3.291  93.613 118.001  0.00  0.00     0.006 C 
ENDBRANCH   8   9
BRANCH   8  11
ATOM     11  C   LIG d   1      -6.788  94.131 117.085  0.00  0.00     0.028 C 
ATOM     12  C   LIG d   1      -7.033  95.245 118.115  0.00  0.00     0.006 C 
ENDBRANCH   8  11
ENDBRANCH   7   8
ENDBRANCH   1   7
BRANCH   6  13
ATOM     13  N   LIG d   1      -7.153  90.566 115.955  0.00  0.00    -0.311 N 
ATOM     14  C   LIG d   1      -7.391  91.193 114.804  0.00  0.00     0.210 C 
ATOM     15  C   LIG d   1      -8.838  91.107 114.307  0.00  0.00     0.109 C 
ATOM     16  O   LIG d   1      -6.534  91.784 114.130  0.00  0.00    -0.276 OA
ATOM     17  H   LIG d   1      -7.899  90.085 116.417  0.00  0.00     0.149 HD
ENDBRANCH   6  13
BRANCH   5  18
ATOM     18  N   LIG d   1      -4.697  89.099 114.884  0.00  0.00     0.381 N 
ATOM     19  H   LIG d   1      -5.312  88.434 114.459  0.00  0.00    -0.090 HD
ATOM     20  H   LIG d   1      -3.757  88.752 114.807  0.00  0.00    -0.090 HD
ATOM     21  H   LIG d   1      -4.774  89.977 114.420  0.00  0.00    -0.090 HD
ENDBRANCH   5  18
BRANCH   3  22
ATOM     22  C   LIG d   1      -2.991  88.996 119.358  0.00  0.00     0.382 C 
ATOM     23  O   LIG d   1      -2.010  89.676 119.747  0.00  0.00    -0.241 OA
ATOM     24  O   LIG d   1      -3.115  87.820 119.749  0.00  0.00    -0.241 OA
ENDBRANCH   3  22
TORSDOF 7
ENDMDL
MODEL 5
REMARK VINA RESULT:      -4.9      2.457      5.802
REMARK  7 active torsions:
REMARK  status: ('A' for Active; 'I' for Inactive)
REMARK    1  A    between atoms: C_2  and  C_3 
REMARK    2  A    between atoms: C_3  and  O_6 
REMARK    3  A    between atoms: C_3  and  C_4 
REMARK    4  A    between atoms: C_7  and  O_6 
REMARK    5  A    between atoms: C_9  and  C_10 
REMARK    6  A    between atoms: N_15  and  C_14 
REMARK    7  A    between atoms: N_20  and  C_19 
REMARK       I    between atoms: C_22  and  N_20 
ROOT
ATOM      1  C   LIG d   1      -5.775  93.227 117.462  0.00  0.00     0.161 C 
ATOM      2  C   LIG d   1      -6.925  93.985 117.188  0.00  0.00     0.016 C 
ATOM      3  C   LIG d   1      -7.180  95.249 117.768  0.00  0.00     0.038 C 
ATOM      4  C   LIG d   1      -6.224  95.913 118.551  0.00  0.00     0.028 C 
ATOM      5  C   LIG d   1      -5.262  94.967 119.262  0.00  0.00    -0.047 C 
ATOM      6  C   LIG d   1      -4.669  93.984 118.227  0.00  0.00     0.091 C 
ENDROOT
BRANCH   1   7
ATOM      7  O   LIG d   1      -5.250  92.675 116.238  0.00  0.00    -0.368 OA
BRANCH   7   8
ATOM      8  C   LIG d   1      -5.257  91.230 116.136  0.00  0.00     0.119 C 
BRANCH   8   9
ATOM      9  C   LIG d   1      -6.022  90.861 114.850  0.00  0.00     0.028 C 
ATOM     10  C   LIG d   1      -6.586  92.096 114.128  0.00  0.00     0.006 C 
ENDBRANCH   8   9
BRANCH   8  11
ATOM     11  C   LIG d   1      -6.055  90.595 117.278  0.00  0.00     0.028 C 
ATOM     12  C   LIG d   1      -7.152  89.640 116.780  0.00  0.00     0.006 C 
ENDBRANCH   8  11
ENDBRANCH   7   8
ENDBRANCH   1   7
BRANCH   6  13
ATOM     13  N   LIG d   1      -3.781  92.969 118.853  0.00  0.00    -0.311 N 
ATOM     14  C   LIG d   1      -2.506  92.797 118.507  0.00  0.00     0.210 C 
ATOM     15  C   LIG d   1      -1.775  91.684 119.264  0.00  0.00     0.109 C 
ATOM     16  O   LIG d   1      -1.902  93.483 117.668  0.00  0.00    -0.276 OA
ATOM     17  H   LIG d   1      -4.181  92.390 119.565  0.00  0.00     0.149 HD
ENDBRANCH   6  13
BRANCH   5  18
ATOM     18  N   LIG d   1      -4.237  95.792 119.929  0.00  0.00     0.381 N 
ATOM     19  H   LIG d   1      -3.791  96.385 119.258  0.00  0.00    -0.090 HD
ATOM     20  H   LIG d   1      -3.541  95.187 120.327  0.00  0.00    -0.090 HD
ATOM     21  H   LIG d   1      -4.657  96.344 120.644  0.00  0.00    -0.090 HD
ENDBRANCH   5  18
BRANCH   3  22
ATOM     22  C   LIG d   1      -8.421  95.845 117.598  0.00  0.00     0.382 C 
ATOM     23  O   LIG d   1      -8.506  96.971 117.052  0.00  0.00    -0.241 OA
ATOM     24  O   LIG d   1      -9.452  95.291 118.025  0.00  0.00    -0.241 OA
ENDBRANCH   3  22
TORSDOF 7
ENDMDL
MODEL 6
REMARK VINA RESULT:      -4.9      1.876      4.892
REMARK  7 active torsions:
REMARK  status: ('A' for Active; 'I' for Inactive)
REMARK    1  A    between atoms: C_2  and  C_3 
REMARK    2  A    between atoms: C_3  and  O_6 
REMARK    3  A    between atoms: C_3  and  C_4 
REMARK    4  A    between atoms: C_7  and  O_6 
REMARK    5  A    between atoms: C_9  and  C_10 
REMARK    6  A    between atoms: N_15  and  C_14 
REMARK    7  A    between atoms: N_20  and  C_19 
REMARK       I    between atoms: C_22  and  N_20 
ROOT
ATOM      1  C   LIG d   1      -4.372  92.085 117.688  0.00  0.00     0.161 C 
ATOM      2  C   LIG d   1      -4.478  93.249 118.467  0.00  0.00     0.016 C 
ATOM      3  C   LIG d   1      -5.512  94.199 118.310  0.00  0.00     0.038 C 
ATOM      4  C   LIG d   1      -6.603  93.973 117.457  0.00  0.00     0.028 C 
ATOM      5  C   LIG d   1      -6.277  93.052 116.286  0.00  0.00    -0.047 C 
ATOM      6  C   LIG d   1      -5.614  91.766 116.829  0.00  0.00     0.091 C 
ENDROOT
BRANCH   1   7
ATOM      7  O   LIG d   1      -4.042  90.962 118.529  0.00  0.00    -0.368 OA
BRANCH   7   8
ATOM      8  C   LIG d   1      -2.782  90.304 118.249  0.00  0.00     0.119 C 
BRANCH   8   9
ATOM      9  C   LIG d   1      -2.950  88.813 118.599  0.00  0.00     0.028 C 
ATOM     10  C   LIG d   1      -2.686  87.894 117.394  0.00  0.00     0.006 C 
ENDBRANCH   8   9
BRANCH   8  11
ATOM     11  C   LIG d   1      -1.670  90.814 119.171  0.00  0.00     0.028 C 
ATOM     12  C   LIG d   1      -0.306  90.900 118.468  0.00  0.00     0.006 C 
ENDBRANCH   8  11
ENDBRANCH   7   8
ENDBRANCH   1   7
BRANCH   6  13
ATOM     13  N   LIG d   1      -5.185  90.847 115.743  0.00  0.00    -0.311 N 
ATOM     14  C   LIG d   1      -5.563  89.572 115.670  0.00  0.00     0.210 C 
ATOM     15  C   LIG d   1      -4.991  88.795 114.479  0.00  0.00     0.109 C 
ATOM     16  O   LIG d   1      -6.343  89.019 116.460  0.00  0.00    -0.276 OA
ATOM     17  H   LIG d   1      -4.577  91.222 115.042  0.00  0.00     0.149 HD
ENDBRANCH   6  13
BRANCH   5  18
ATOM     18  N   LIG d   1      -7.534  92.792 115.560  0.00  0.00     0.381 N 
ATOM     19  H   LIG d   1      -8.169  92.292 116.149  0.00  0.00    -0.090 HD
ATOM     20  H   LIG d   1      -7.333  92.222 114.757  0.00  0.00    -0.090 HD
ATOM     21  H   LIG d   1      -7.945  93.653 115.271  0.00  0.00    -0.090 HD
ENDBRANCH   5  18
BRANCH   3  22
ATOM     22  C   LIG d   1      -5.441  95.411 118.980  0.00  0.00     0.382 C 
ATOM     23  O   LIG d   1      -6.376  96.241 118.877  0.00  0.00    -0.241 OA
ATOM     24  O   LIG d   1      -4.433  95.702 119.652  0.00  0.00    -0.241 OA
ENDBRANCH   3  22
TORSDOF 7
ENDMDL
MODEL 7
REMARK VINA RESULT:      -4.8      2.225      4.320
REMARK  7 active torsions:
REMARK  status: ('A' for Active; 'I' for Inactive)
REMARK    1  A    between atoms: C_2  and  C_3 
REMARK    2  A    between atoms: C_3  and  O_6 
REMARK    3  A    between atoms: C_3  and  C_4 
REMARK    4  A    between atoms: C_7  and  O_6 
REMARK    5  A    between atoms: C_9  and  C_10 
REMARK    6  A    between atoms: N_15  and  C_14 
REMARK    7  A    between atoms: N_20  and  C_19 
REMARK       I    between atoms: C_22  and  N_20 
ROOT
ATOM      1  C   LIG d   1      -5.641  92.672 117.128  0.00  0.00     0.161 C 
ATOM      2  C   LIG d   1      -6.719  91.910 116.648  0.00  0.00     0.016 C 
ATOM      3  C   LIG d   1      -6.608  90.547 116.288  0.00  0.00     0.038 C 
ATOM      4  C   LIG d   1      -5.440  89.809 116.527  0.00  0.00     0.028 C 
ATOM      5  C   LIG d   1      -4.176  90.663 116.540  0.00  0.00    -0.047 C 
ATOM      6  C   LIG d   1      -4.386  91.855 117.500  0.00  0.00     0.091 C 
ENDROOT
BRANCH   1   7
ATOM      7  O   LIG d   1      -6.068  93.473 118.248  0.00  0.00    -0.368 OA
BRANCH   7   8
ATOM      8  C   LIG d   1      -6.142  94.901 118.019  0.00  0.00     0.119 C 
BRANCH   8   9
ATOM      9  C   LIG d   1      -5.660  95.601 119.304  0.00  0.00     0.028 C 
ATOM     10  C   LIG d   1      -4.165  95.960 119.252  0.00  0.00     0.006 C 
ENDBRANCH   8   9
BRANCH   8  11
ATOM     11  C   LIG d   1      -7.590  95.361 117.826  0.00  0.00     0.028 C 
ATOM     12  C   LIG d   1      -7.694  96.809 117.324  0.00  0.00     0.006 C 
ENDBRANCH   8  11
ENDBRANCH   7   8
ENDBRANCH   1   7
BRANCH   6  13
ATOM     13  N   LIG d   1      -3.228  92.787 117.508  0.00  0.00    -0.311 N 
ATOM     14  C   LIG d   1      -2.247  92.730 118.406  0.00  0.00     0.210 C 
ATOM     15  C   LIG d   1      -1.160  93.798 118.245  0.00  0.00     0.109 C 
ATOM     16  O   LIG d   1      -2.156  91.877 119.302  0.00  0.00    -0.276 OA
ATOM     17  H   LIG d   1      -3.205  93.492 116.797  0.00  0.00     0.149 HD
ENDBRANCH   6  13
BRANCH   5  18
ATOM     18  N   LIG d   1      -3.054  89.792 116.936  0.00  0.00     0.381 N 
ATOM     19  H   LIG d   1      -2.238  90.346 117.105  0.00  0.00    -0.090 HD
ATOM     20  H   LIG d   1      -2.853  89.158 116.182  0.00  0.00    -0.090 HD
ATOM     21  H   LIG d   1      -3.292  89.279 117.756  0.00  0.00    -0.090 HD
ENDBRANCH   5  18
BRANCH   3  22
ATOM     22  C   LIG d   1      -7.664  89.919 115.644  0.00  0.00     0.382 C 
ATOM     23  O   LIG d   1      -8.309  90.528 114.757  0.00  0.00    -0.241 OA
ATOM     24  O   LIG d   1      -8.007  88.767 115.970  0.00  0.00    -0.241 OA
ENDBRANCH   3  22
TORSDOF 7
ENDMDL
MODEL 8
REMARK VINA RESULT:      -4.6      2.380      4.803
REMARK  7 active torsions:
REMARK  status: ('A' for Active; 'I' for Inactive)
REMARK    1  A    between atoms: C_2  and  C_3 
REMARK    2  A    between atoms: C_3  and  O_6 
REMARK    3  A    between atoms: C_3  and  C_4 
REMARK    4  A    between atoms: C_7  and  O_6 
REMARK    5  A    between atoms: C_9  and  C_10 
REMARK    6  A    between atoms: N_15  and  C_14 
REMARK    7  A    between atoms: N_20  and  C_19 
REMARK       I    between atoms: C_22  and  N_20 
ROOT
ATOM      1  C   LIG d   1      -5.792  90.933 118.674  0.00  0.00     0.161 C 
ATOM      2  C   LIG d   1      -4.541  91.295 119.198  0.00  0.00     0.016 C 
ATOM      3  C   LIG d   1      -3.314  90.990 118.566  0.00  0.00     0.038 C 
ATOM      4  C   LIG d   1      -3.262  90.429 117.281  0.00  0.00     0.028 C 
ATOM      5  C   LIG d   1      -4.487  89.588 116.937  0.00  0.00    -0.047 C 
ATOM      6  C   LIG d   1      -5.760  90.418 117.219  0.00  0.00     0.091 C 
ENDROOT
BRANCH   1   7
ATOM      7  O   LIG d   1      -6.711  92.037 118.795  0.00  0.00    -0.368 OA
BRANCH   7   8
ATOM      8  C   LIG d   1      -6.117  93.339 119.017  0.00  0.00     0.119 C 
BRANCH   8   9
ATOM      9  C   LIG d   1      -7.071  94.133 119.930  0.00  0.00     0.028 C 
ATOM     10  C   LIG d   1      -6.987  95.650 119.688  0.00  0.00     0.006 C 
ENDBRANCH   8   9
BRANCH   8  11
ATOM     11  C   LIG d   1      -6.037  94.144 117.716  0.00  0.00     0.028 C 
ATOM     12  C   LIG d   1      -6.939  93.577 116.608  0.00  0.00     0.006 C 
ENDBRANCH   8  11
ENDBRANCH   7   8
ENDBRANCH   1   7
BRANCH   6  13
ATOM     13  N   LIG d   1      -7.006  89.641 116.989  0.00  0.00    -0.311 N 
ATOM     14  C   LIG d   1      -7.687  89.672 115.845  0.00  0.00     0.210 C 
ATOM     15  C   LIG d   1      -8.955  88.812 115.825  0.00  0.00     0.109 C 
ATOM     16  O   LIG d   1      -7.345  90.304 114.834  0.00  0.00    -0.276 OA
ATOM     17  H   LIG d   1      -7.338  89.077 117.746  0.00  0.00     0.149 HD
ENDBRANCH   6  13
BRANCH   5  18
ATOM     18  N   LIG d   1      -4.364  89.180 115.525  0.00  0.00     0.381 N 
ATOM     19  H   LIG d   1      -5.192  89.437 115.025  0.00  0.00    -0.090 HD
ATOM     20  H   LIG d   1      -4.268  88.181 115.483  0.00  0.00    -0.090 HD
ATOM     21  H   LIG d   1      -3.569  89.615 115.111  0.00  0.00    -0.090 HD
ENDBRANCH   5  18
BRANCH   3  22
ATOM     22  C   LIG d   1      -2.121  91.209 119.238  0.00  0.00     0.382 C 
ATOM     23  O   LIG d   1      -1.418  90.236 119.602  0.00  0.00    -0.241 OA
ATOM     24  O   LIG d   1      -1.760  92.367 119.523  0.00  0.00    -0.241 OA
ENDBRANCH   3  22
TORSDOF 7
ENDMDL
MODEL 9
REMARK VINA RESULT:      -4.5      2.473      6.029
REMARK  7 active torsions:
REMARK  status: ('A' for Active; 'I' for Inactive)
REMARK    1  A    between atoms: C_2  and  C_3 
REMARK    2  A    between atoms: C_3  and  O_6 
REMARK    3  A    between atoms: C_3  and  C_4 
REMARK    4  A    between atoms: C_7  and  O_6 
REMARK    5  A    between atoms: C_9  and  C_10 
REMARK    6  A    between atoms: N_15  and  C_14 
REMARK    7  A    between atoms: N_20  and  C_19 
REMARK       I    between atoms: C_22  and  N_20 
ROOT
ATOM      1  C   LIG d   1      -4.901  91.339 117.043  0.00  0.00     0.161 C 
ATOM      2  C   LIG d   1      -5.668  92.427 117.491  0.00  0.00     0.016 C 
ATOM      3  C   LIG d   1      -5.178  93.413 118.377  0.00  0.00     0.038 C 
ATOM      4  C   LIG d   1      -3.829  93.461 118.760  0.00  0.00     0.028 C 
ATOM      5  C   LIG d   1      -3.144  92.099 118.735  0.00  0.00    -0.047 C 
ATOM      6  C   LIG d   1      -3.394  91.436 117.362  0.00  0.00     0.091 C 
ENDROOT
BRANCH   1   7
ATOM      7  O   LIG d   1      -5.102  91.148 115.629  0.00  0.00    -0.368 OA
BRANCH   7   8
ATOM      8  C   LIG d   1      -5.962  90.045 115.251  0.00  0.00     0.119 C 
BRANCH   8   9
ATOM      9  C   LIG d   1      -7.059  90.608 114.327  0.00  0.00     0.028 C 
ATOM     10  C   LIG d   1      -6.864  92.104 114.029  0.00  0.00     0.006 C 
ENDBRANCH   8   9
BRANCH   8  11
ATOM     11  C   LIG d   1      -6.706  89.477 116.464  0.00  0.00     0.028 C 
ATOM     12  C   LIG d   1      -8.161  89.097 116.146  0.00  0.00     0.006 C 
ENDBRANCH   8  11
ENDBRANCH   7   8
ENDBRANCH   1   7
BRANCH   6  13
ATOM     13  N   LIG d   1      -2.829  90.064 117.283  0.00  0.00    -0.311 N 
ATOM     14  C   LIG d   1      -3.221  89.063 118.070  0.00  0.00     0.210 C 
ATOM     15  C   LIG d   1      -2.495  87.735 117.837  0.00  0.00     0.109 C 
ATOM     16  O   LIG d   1      -4.124  89.141 118.916  0.00  0.00    -0.276 OA
ATOM     17  H   LIG d   1      -2.112  89.904 116.602  0.00  0.00     0.149 HD
ENDBRANCH   6  13
BRANCH   5  18
ATOM     18  N   LIG d   1      -1.713  92.315 119.021  0.00  0.00     0.381 N 
ATOM     19  H   LIG d   1      -1.252  91.434 119.129  0.00  0.00    -0.090 HD
ATOM     20  H   LIG d   1      -1.626  92.824 119.883  0.00  0.00    -0.090 HD
ATOM     21  H   LIG d   1      -1.291  92.830 118.279  0.00  0.00    -0.090 HD
ENDBRANCH   5  18
BRANCH   3  22
ATOM     22  C   LIG d   1      -6.051  94.343 118.922  0.00  0.00     0.382 C 
ATOM     23  O   LIG d   1      -7.204  93.991 119.270  0.00  0.00    -0.241 OA
ATOM     24  O   LIG d   1      -5.715  95.537 119.029  0.00  0.00    -0.241 OA
ENDBRANCH   3  22
TORSDOF 7
ENDMDL
