MODEL 1
REMARK VINA RESULT:      -4.9      0.000      0.000
REMARK  7 active torsions:
REMARK  status: ('A' for Active; 'I' for Inactive)
REMARK    1  A    between atoms: C_2  and  C_3 
REMARK    2  A    between atoms: C_3  and  O_6 
REMARK    3  A    between atoms: C_3  and  C_4 
REMARK    4  A    between atoms: C_7  and  O_6 
REMARK    5  A    between atoms: C_9  and  C_10 
REMARK    6  A    between atoms: N_15  and  C_14 
REMARK    7  A    between atoms: N_20  and  C_19 
REMARK       I    between atoms: C_22  and  N_20 
ROOT
ATOM      1  C   LIG d   1      -4.514  91.609 117.569  0.00  0.00     0.161 C 
ATOM      2  C   LIG d   1      -3.712  92.529 118.265  0.00  0.00     0.016 C 
ATOM      3  C   LIG d   1      -4.237  93.581 119.050  0.00  0.00     0.038 C 
ATOM      4  C   LIG d   1      -5.610  93.694 119.315  0.00  0.00     0.028 C 
ATOM      5  C   LIG d   1      -6.489  93.091 118.225  0.00  0.00    -0.047 C 
ATOM      6  C   LIG d   1      -6.012  91.649 117.936  0.00  0.00     0.091 C 
ENDROOT
BRANCH   1   7
ATOM      7  O   LIG d   1      -3.991  90.277 117.741  0.00  0.00    -0.368 OA
BRANCH   7   8
ATOM      8  C   LIG d   1      -3.009  90.108 118.793  0.00  0.00     0.119 C 
BRANCH   8   9
ATOM      9  C   LIG d   1      -1.806  89.361 118.187  0.00  0.00     0.028 C 
ATOM     10  C   LIG d   1      -0.794  90.313 117.528  0.00  0.00     0.006 C 
ENDBRANCH   8   9
BRANCH   8  11
ATOM     11  C   LIG d   1      -3.535  89.196 119.905  0.00  0.00     0.028 C 
ATOM     12  C   LIG d   1      -2.841  87.825 119.930  0.00  0.00     0.006 C 
ENDBRANCH   8  11
ENDBRANCH   7   8
ENDBRANCH   1   7
BRANCH   6  13
ATOM     13  N   LIG d   1      -6.765  91.015 116.823  0.00  0.00    -0.311 N 
ATOM     14  C   LIG d   1      -6.854  91.544 115.603  0.00  0.00     0.210 C 
ATOM     15  C   LIG d   1      -7.696  90.738 114.609  0.00  0.00     0.109 C 
ATOM     16  O   LIG d   1      -6.289  92.587 115.242  0.00  0.00    -0.276 OA
ATOM     17  H   LIG d   1      -7.228  90.150 117.020  0.00  0.00     0.149 HD
ENDBRANCH   6  13
BRANCH   5  18
ATOM     18  N   LIG d   1      -7.886  93.154 118.694  0.00  0.00     0.381 N 
ATOM     19  H   LIG d   1      -8.127  94.100 118.916  0.00  0.00    -0.090 HD
ATOM     20  H   LIG d   1      -7.975  92.602 119.529  0.00  0.00    -0.090 HD
ATOM     21  H   LIG d   1      -8.498  92.805 117.990  0.00  0.00    -0.090 HD
ENDBRANCH   5  18
BRANCH   3  22
ATOM     22  C   LIG d   1      -3.388  94.558 119.546  0.00  0.00     0.382 C 
ATOM     23  O   LIG d   1      -3.833  95.702 119.809  0.00  0.00    -0.241 OA
ATOM     24  O   LIG d   1      -2.173  94.324 119.693  0.00  0.00    -0.241 OA
ENDBRANCH   3  22
TORSDOF 7
ENDMDL
MODEL 2
REMARK VINA RESULT:      -4.5      2.583      6.134
REMARK  7 active torsions:
REMARK  status: ('A' for Active; 'I' for Inactive)
REMARK    1  A    between atoms: C_2  and  C_3 
REMARK    2  A    between atoms: C_3  and  O_6 
REMARK    3  A    between atoms: C_3  and  C_4 
REMARK    4  A    between atoms: C_7  and  O_6 
REMARK    5  A    between atoms: C_9  and  C_10 
REMARK    6  A    between atoms: N_15  and  C_14 
REMARK    7  A    between atoms: N_20  and  C_19 
REMARK       I    between atoms: C_22  and  N_20 
ROOT
ATOM      1  C   LIG d   1      -5.875  92.940 118.389  0.00  0.00     0.161 C 
ATOM      2  C   LIG d   1      -6.651  92.477 117.314  0.00  0.00     0.016 C 
ATOM      3  C   LIG d   1      -6.226  91.459 116.429  0.00  0.00     0.038 C 
ATOM      4  C   LIG d   1      -5.051  90.726 116.651  0.00  0.00     0.028 C 
ATOM      5  C   LIG d   1      -3.994  91.499 117.433  0.00  0.00    -0.047 C 
ATOM      6  C   LIG d   1      -4.639  92.075 118.714  0.00  0.00     0.091 C 
ENDROOT
BRANCH   1   7
ATOM      7  O   LIG d   1      -6.703  93.091 119.560  0.00  0.00    -0.368 OA
BRANCH   7   8
ATOM      8  C   LIG d   1      -7.104  94.444 119.886  0.00  0.00     0.119 C 
BRANCH   8   9
ATOM      9  C   LIG d   1      -8.567  94.616 119.434  0.00  0.00     0.028 C 
ATOM     10  C   LIG d   1      -8.707  95.598 118.259  0.00  0.00     0.006 C 
ENDBRANCH   8   9
BRANCH   8  11
ATOM     11  C   LIG d   1      -6.306  95.472 119.078  0.00  0.00     0.028 C 
ATOM     12  C   LIG d   1      -5.275  96.229 119.930  0.00  0.00     0.006 C 
ENDBRANCH   8  11
ENDBRANCH   7   8
ENDBRANCH   1   7
BRANCH   6  13
ATOM     13  N   LIG d   1      -3.695  92.916 119.495  0.00  0.00    -0.311 N 
ATOM     14  C   LIG d   1      -2.697  93.604 118.942  0.00  0.00     0.210 C 
ATOM     15  C   LIG d   1      -1.829  94.391 119.930  0.00  0.00     0.109 C 
ATOM     16  O   LIG d   1      -2.468  93.664 117.725  0.00  0.00    -0.276 OA
ATOM     17  H   LIG d   1      -3.827  92.950 120.487  0.00  0.00     0.149 HD
ENDBRANCH   6  13
BRANCH   5  18
ATOM     18  N   LIG d   1      -2.881  90.572 117.713  0.00  0.00     0.381 N 
ATOM     19  H   LIG d   1      -2.102  91.080 118.080  0.00  0.00    -0.090 HD
ATOM     20  H   LIG d   1      -2.597  90.137 116.853  0.00  0.00    -0.090 HD
ATOM     21  H   LIG d   1      -3.171  89.878 118.366  0.00  0.00    -0.090 HD
ENDBRANCH   5  18
BRANCH   3  22
ATOM     22  C   LIG d   1      -6.961  91.194 115.283  0.00  0.00     0.382 C 
ATOM     23  O   LIG d   1      -7.629  90.135 115.198  0.00  0.00    -0.241 OA
ATOM     24  O   LIG d   1      -6.929  91.978 114.316  0.00  0.00    -0.241 OA
ENDBRANCH   3  22
TORSDOF 7
ENDMDL
MODEL 3
REMARK VINA RESULT:      -4.5      2.858      5.347
REMARK  7 active torsions:
REMARK  status: ('A' for Active; 'I' for Inactive)
REMARK    1  A    between atoms: C_2  and  C_3 
REMARK    2  A    between atoms: C_3  and  O_6 
REMARK    3  A    between atoms: C_3  and  C_4 
REMARK    4  A    between atoms: C_7  and  O_6 
REMARK    5  A    between atoms: C_9  and  C_10 
REMARK    6  A    between atoms: N_15  and  C_14 
REMARK    7  A    between atoms: N_20  and  C_19 
REMARK       I    between atoms: C_22  and  N_20 
ROOT
ATOM      1  C   LIG d   1      -2.835  91.755 118.190  0.00  0.00     0.161 C 
ATOM      2  C   LIG d   1      -2.779  93.150 118.040  0.00  0.00     0.016 C 
ATOM      3  C   LIG d   1      -1.571  93.885 118.039  0.00  0.00     0.038 C 
ATOM      4  C   LIG d   1      -0.318  93.252 118.035  0.00  0.00     0.028 C 
ATOM      5  C   LIG d   1      -0.333  91.877 118.693  0.00  0.00    -0.047 C 
ATOM      6  C   LIG d   1      -1.474  91.037 118.076  0.00  0.00     0.091 C 
ENDROOT
BRANCH   1   7
ATOM      7  O   LIG d   1      -3.775  91.200 117.248  0.00  0.00    -0.368 OA
BRANCH   7   8
ATOM      8  C   LIG d   1      -5.110  91.761 117.275  0.00  0.00     0.119 C 
BRANCH   8   9
ATOM      9  C   LIG d   1      -5.753  91.361 118.617  0.00  0.00     0.028 C 
ATOM     10  C   LIG d   1      -7.049  92.139 118.901  0.00  0.00     0.006 C 
ENDBRANCH   8   9
BRANCH   8  11
ATOM     11  C   LIG d   1      -5.999  91.135 116.197  0.00  0.00     0.028 C 
ATOM     12  C   LIG d   1      -6.612  92.178 115.249  0.00  0.00     0.006 C 
ENDBRANCH   8  11
ENDBRANCH   7   8
ENDBRANCH   1   7
BRANCH   6  13
ATOM     13  N   LIG d   1      -1.612  89.706 118.722  0.00  0.00    -0.311 N 
ATOM     14  C   LIG d   1      -1.058  88.595 118.239  0.00  0.00     0.210 C 
ATOM     15  C   LIG d   1      -1.341  87.326 119.049  0.00  0.00     0.109 C 
ATOM     16  O   LIG d   1      -0.334  88.546 117.233  0.00  0.00    -0.276 OA
ATOM     17  H   LIG d   1      -2.157  89.660 119.560  0.00  0.00     0.149 HD
ENDBRANCH   6  13
BRANCH   5  18
ATOM     18  N   LIG d   1       1.000  91.275 118.497  0.00  0.00     0.381 N 
ATOM     19  H   LIG d   1       1.377  90.993 119.379  0.00  0.00    -0.090 HD
ATOM     20  H   LIG d   1       1.612  91.965 118.098  0.00  0.00    -0.090 HD
ATOM     21  H   LIG d   1       0.933  90.488 117.889  0.00  0.00    -0.090 HD
ENDBRANCH   5  18
BRANCH   3  22
ATOM     22  C   LIG d   1      -1.609  95.270 118.080  0.00  0.00     0.382 C 
ATOM     23  O   LIG d   1      -0.752  95.940 117.455  0.00  0.00    -0.241 OA
ATOM     24  O   LIG d   1      -2.462  95.858 118.772  0.00  0.00    -0.241 OA
ENDBRANCH   3  22
TORSDOF 7
ENDMDL
MODEL 4
REMARK VINA RESULT:      -4.5      7.346      9.952
REMARK  7 active torsions:
REMARK  status: ('A' for Active; 'I' for Inactive)
REMARK    1  A    between atoms: C_2  and  C_3 
REMARK    2  A    between atoms: C_3  and  O_6 
REMARK    3  A    between atoms: C_3  and  C_4 
REMARK    4  A    between atoms: C_7  and  O_6 
REMARK    5  A    between atoms: C_9  and  C_10 
REMARK    6  A    between atoms: N_15  and  C_14 
REMARK    7  A    between atoms: N_20  and  C_19 
REMARK       I    between atoms: C_22  and  N_20 
ROOT
ATOM      1  C   LIG d   1       3.704  89.241 115.820  0.00  0.00     0.161 C 
ATOM      2  C   LIG d   1       2.998  88.083 115.454  0.00  0.00     0.016 C 
ATOM      3  C   LIG d   1       1.829  87.643 116.115  0.00  0.00     0.038 C 
ATOM      4  C   LIG d   1       1.197  88.418 117.099  0.00  0.00     0.028 C 
ATOM      5  C   LIG d   1       2.151  89.343 117.847  0.00  0.00    -0.047 C 
ATOM      6  C   LIG d   1       2.968  90.159 116.819  0.00  0.00     0.091 C 
ENDROOT
BRANCH   1   7
ATOM      7  O   LIG d   1       4.076  89.981 114.640  0.00  0.00    -0.368 OA
BRANCH   7   8
ATOM      8  C   LIG d   1       5.480  89.950 114.284  0.00  0.00     0.119 C 
BRANCH   8   9
ATOM      9  C   LIG d   1       5.620  89.063 113.032  0.00  0.00     0.028 C 
ATOM     10  C   LIG d   1       6.176  87.667 113.360  0.00  0.00     0.006 C 
ENDBRANCH   8   9
BRANCH   8  11
ATOM     11  C   LIG d   1       6.314  89.258 115.366  0.00  0.00     0.028 C 
ATOM     12  C   LIG d   1       7.224  90.232 116.131  0.00  0.00     0.006 C 
ENDBRANCH   8  11
ENDBRANCH   7   8
ENDBRANCH   1   7
BRANCH   6  13
ATOM     13  N   LIG d   1       3.985  91.028 117.465  0.00  0.00    -0.311 N 
ATOM     14  C   LIG d   1       3.759  92.297 117.801  0.00  0.00     0.210 C 
ATOM     15  C   LIG d   1       4.949  93.020 118.437  0.00  0.00     0.109 C 
ATOM     16  O   LIG d   1       2.674  92.883 117.661  0.00  0.00    -0.276 OA
ATOM     17  H   LIG d   1       4.884  90.624 117.643  0.00  0.00     0.149 HD
ENDBRANCH   6  13
BRANCH   5  18
ATOM     18  N   LIG d   1       1.341  90.189 118.744  0.00  0.00     0.381 N 
ATOM     19  H   LIG d   1       0.739  90.776 118.202  0.00  0.00    -0.090 HD
ATOM     20  H   LIG d   1       1.956  90.776 119.280  0.00  0.00    -0.090 HD
ATOM     21  H   LIG d   1       0.799  89.617 119.354  0.00  0.00    -0.090 HD
ENDBRANCH   5  18
BRANCH   3  22
ATOM     22  C   LIG d   1       1.302  86.394 115.821  0.00  0.00     0.382 C 
ATOM     23  O   LIG d   1       1.298  85.494 116.695  0.00  0.00    -0.241 OA
ATOM     24  O   LIG d   1       0.870  86.144 114.680  0.00  0.00    -0.241 OA
ENDBRANCH   3  22
TORSDOF 7
ENDMDL
MODEL 5
REMARK VINA RESULT:      -4.5      7.497     10.397
REMARK  7 active torsions:
REMARK  status: ('A' for Active; 'I' for Inactive)
REMARK    1  A    between atoms: C_2  and  C_3 
REMARK    2  A    between atoms: C_3  and  O_6 
REMARK    3  A    between atoms: C_3  and  C_4 
REMARK    4  A    between atoms: C_7  and  O_6 
REMARK    5  A    between atoms: C_9  and  C_10 
REMARK    6  A    between atoms: N_15  and  C_14 
REMARK    7  A    between atoms: N_20  and  C_19 
REMARK       I    between atoms: C_22  and  N_20 
ROOT
ATOM      1  C   LIG d   1       3.680  88.645 115.654  0.00  0.00     0.161 C 
ATOM      2  C   LIG d   1       2.371  89.121 115.839  0.00  0.00     0.016 C 
ATOM      3  C   LIG d   1       2.049  90.198 116.697  0.00  0.00     0.038 C 
ATOM      4  C   LIG d   1       3.039  90.975 117.315  0.00  0.00     0.028 C 
ATOM      5  C   LIG d   1       4.341  90.218 117.555  0.00  0.00    -0.047 C 
ATOM      6  C   LIG d   1       4.786  89.552 116.233  0.00  0.00     0.091 C 
ENDROOT
BRANCH   1   7
ATOM      7  O   LIG d   1       3.916  88.400 114.253  0.00  0.00    -0.368 OA
BRANCH   7   8
ATOM      8  C   LIG d   1       4.064  87.012 113.865  0.00  0.00     0.119 C 
BRANCH   8   9
ATOM      9  C   LIG d   1       5.517  86.816 113.390  0.00  0.00     0.028 C 
ATOM     10  C   LIG d   1       6.120  88.103 112.803  0.00  0.00     0.006 C 
ENDBRANCH   8   9
BRANCH   8  11
ATOM     11  C   LIG d   1       3.192  86.676 112.652  0.00  0.00     0.028 C 
ATOM     12  C   LIG d   1       2.062  87.694 112.430  0.00  0.00     0.006 C 
ENDBRANCH   8  11
ENDBRANCH   7   8
ENDBRANCH   1   7
BRANCH   6  13
ATOM     13  N   LIG d   1       6.007  88.721 116.400  0.00  0.00    -0.311 N 
ATOM     14  C   LIG d   1       7.240  89.183 116.204  0.00  0.00     0.210 C 
ATOM     15  C   LIG d   1       8.357  88.155 116.410  0.00  0.00     0.109 C 
ATOM     16  O   LIG d   1       7.518  90.356 115.910  0.00  0.00    -0.276 OA
ATOM     17  H   LIG d   1       5.875  87.765 116.668  0.00  0.00     0.149 HD
ENDBRANCH   6  13
BRANCH   5  18
ATOM     18  N   LIG d   1       5.328  91.183 118.077  0.00  0.00     0.381 N 
ATOM     19  H   LIG d   1       5.546  90.964 119.028  0.00  0.00    -0.090 HD
ATOM     20  H   LIG d   1       4.928  92.104 118.049  0.00  0.00    -0.090 HD
ATOM     21  H   LIG d   1       6.156  91.156 117.524  0.00  0.00    -0.090 HD
ENDBRANCH   5  18
BRANCH   3  22
ATOM     22  C   LIG d   1       0.720  90.482 116.975  0.00  0.00     0.382 C 
ATOM     23  O   LIG d   1       0.386  91.640 117.320  0.00  0.00    -0.241 OA
ATOM     24  O   LIG d   1      -0.141  89.583 116.927  0.00  0.00    -0.241 OA
ENDBRANCH   3  22
TORSDOF 7
ENDMDL
MODEL 6
REMARK VINA RESULT:      -4.4      2.952      5.025
REMARK  7 active torsions:
REMARK  status: ('A' for Active; 'I' for Inactive)
REMARK    1  A    between atoms: C_2  and  C_3 
REMARK    2  A    between atoms: C_3  and  O_6 
REMARK    3  A    between atoms: C_3  and  C_4 
REMARK    4  A    between atoms: C_7  and  O_6 
REMARK    5  A    between atoms: C_9  and  C_10 
REMARK    6  A    between atoms: N_15  and  C_14 
REMARK    7  A    between atoms: N_20  and  C_19 
REMARK       I    between atoms: C_22  and  N_20 
ROOT
ATOM      1  C   LIG d   1      -2.527  90.160 118.663  0.00  0.00     0.161 C 
ATOM      2  C   LIG d   1      -3.893  90.051 118.357  0.00  0.00     0.016 C 
ATOM      3  C   LIG d   1      -4.658  91.113 117.822  0.00  0.00     0.038 C 
ATOM      4  C   LIG d   1      -4.069  92.319 117.413  0.00  0.00     0.028 C 
ATOM      5  C   LIG d   1      -2.788  92.654 118.170  0.00  0.00    -0.047 C 
ATOM      6  C   LIG d   1      -1.842  91.432 118.121  0.00  0.00     0.091 C 
ENDROOT
BRANCH   1   7
ATOM      7  O   LIG d   1      -1.829  88.983 118.210  0.00  0.00    -0.368 OA
BRANCH   7   8
ATOM      8  C   LIG d   1      -1.110  88.239 119.224  0.00  0.00     0.119 C 
BRANCH   8   9
ATOM      9  C   LIG d   1       0.095  87.567 118.538  0.00  0.00     0.028 C 
ATOM     10  C   LIG d   1       1.407  88.334 118.775  0.00  0.00     0.006 C 
ENDBRANCH   8   9
BRANCH   8  11
ATOM     11  C   LIG d   1      -1.957  87.087 119.774  0.00  0.00     0.028 C 
ATOM     12  C   LIG d   1      -1.273  85.719 119.623  0.00  0.00     0.006 C 
ENDBRANCH   8  11
ENDBRANCH   7   8
ENDBRANCH   1   7
BRANCH   6  13
ATOM     13  N   LIG d   1      -0.600  91.645 118.908  0.00  0.00    -0.311 N 
ATOM     14  C   LIG d   1       0.528  92.120 118.384  0.00  0.00     0.210 C 
ATOM     15  C   LIG d   1       1.697  92.244 119.367  0.00  0.00     0.109 C 
ATOM     16  O   LIG d   1       0.663  92.481 117.205  0.00  0.00    -0.276 OA
ATOM     17  H   LIG d   1      -0.630  91.408 119.881  0.00  0.00     0.149 HD
ENDBRANCH   6  13
BRANCH   5  18
ATOM     18  N   LIG d   1      -2.207  93.860 117.550  0.00  0.00     0.381 N 
ATOM     19  H   LIG d   1      -2.913  94.563 117.451  0.00  0.00    -0.090 HD
ATOM     20  H   LIG d   1      -1.867  93.623 116.635  0.00  0.00    -0.090 HD
ATOM     21  H   LIG d   1      -1.460  94.206 118.112  0.00  0.00    -0.090 HD
ENDBRANCH   5  18
BRANCH   3  22
ATOM     22  C   LIG d   1      -6.036  90.988 117.729  0.00  0.00     0.382 C 
ATOM     23  O   LIG d   1      -6.761  91.299 118.704  0.00  0.00    -0.241 OA
ATOM     24  O   LIG d   1      -6.560  90.528 116.697  0.00  0.00    -0.241 OA
ENDBRANCH   3  22
TORSDOF 7
ENDMDL
MODEL 7
REMARK VINA RESULT:      -4.3      2.575      4.519
REMARK  7 active torsions:
REMARK  status: ('A' for Active; 'I' for Inactive)
REMARK    1  A    between atoms: C_2  and  C_3 
REMARK    2  A    between atoms: C_3  and  O_6 
REMARK    3  A    between atoms: C_3  and  C_4 
REMARK    4  A    between atoms: C_7  and  O_6 
REMARK    5  A    between atoms: C_9  and  C_10 
REMARK    6  A    between atoms: N_15  and  C_14 
REMARK    7  A    between atoms: N_20  and  C_19 
REMARK       I    between atoms: C_22  and  N_20 
ROOT
ATOM      1  C   LIG d   1      -3.245  91.662 118.626  0.00  0.00     0.161 C 
ATOM      2  C   LIG d   1      -4.578  91.326 118.339  0.00  0.00     0.016 C 
ATOM      3  C   LIG d   1      -5.640  92.258 118.372  0.00  0.00     0.038 C 
ATOM      4  C   LIG d   1      -5.416  93.632 118.547  0.00  0.00     0.028 C 
ATOM      5  C   LIG d   1      -4.150  93.943 119.340  0.00  0.00    -0.047 C 
ATOM      6  C   LIG d   1      -2.964  93.177 118.711  0.00  0.00     0.091 C 
ENDROOT
BRANCH   1   7
ATOM      7  O   LIG d   1      -2.367  91.043 117.665  0.00  0.00    -0.368 OA
BRANCH   7   8
ATOM      8  C   LIG d   1      -1.323  90.197 118.208  0.00  0.00     0.119 C 
BRANCH   8   9
ATOM      9  C   LIG d   1      -0.086  90.350 117.302  0.00  0.00     0.028 C 
ATOM     10  C   LIG d   1       1.208  90.558 118.106  0.00  0.00     0.006 C 
ENDBRANCH   8   9
BRANCH   8  11
ATOM     11  C   LIG d   1      -1.706  88.716 118.124  0.00  0.00     0.028 C 
ATOM     12  C   LIG d   1      -2.219  88.157 119.461  0.00  0.00     0.006 C 
ENDBRANCH   8  11
ENDBRANCH   7   8
ENDBRANCH   1   7
BRANCH   6  13
ATOM     13  N   LIG d   1      -1.703  93.359 119.475  0.00  0.00    -0.311 N 
ATOM     14  C   LIG d   1      -0.561  93.761 118.921  0.00  0.00     0.210 C 
ATOM     15  C   LIG d   1       0.625  93.864 119.885  0.00  0.00     0.109 C 
ATOM     16  O   LIG d   1      -0.425  94.075 117.729  0.00  0.00    -0.276 OA
ATOM     17  H   LIG d   1      -1.731  93.157 120.456  0.00  0.00     0.149 HD
ENDBRANCH   6  13
BRANCH   5  18
ATOM     18  N   LIG d   1      -3.965  95.406 119.328  0.00  0.00     0.381 N 
ATOM     19  H   LIG d   1      -4.303  95.797 120.185  0.00  0.00    -0.090 HD
ATOM     20  H   LIG d   1      -4.500  95.795 118.572  0.00  0.00    -0.090 HD
ATOM     21  H   LIG d   1      -3.001  95.627 119.212  0.00  0.00    -0.090 HD
ENDBRANCH   5  18
BRANCH   3  22
ATOM     22  C   LIG d   1      -6.949  91.813 118.268  0.00  0.00     0.382 C 
ATOM     23  O   LIG d   1      -7.886  92.504 118.736  0.00  0.00    -0.241 OA
ATOM     24  O   LIG d   1      -7.202  90.709 117.750  0.00  0.00    -0.241 OA
ENDBRANCH   3  22
TORSDOF 7
ENDMDL
MODEL 8
REMARK VINA RESULT:      -4.3      7.314      9.386
REMARK  7 active torsions:
REMARK  status: ('A' for Active; 'I' for Inactive)
REMARK    1  A    between atoms: C_2  and  C_3 
REMARK    2  A    between atoms: C_3  and  O_6 
REMARK    3  A    between atoms: C_3  and  C_4 
REMARK    4  A    between atoms: C_7  and  O_6 
REMARK    5  A    between atoms: C_9  and  C_10 
REMARK    6  A    between atoms: N_15  and  C_14 
REMARK    7  A    between atoms: N_20  and  C_19 
REMARK       I    between atoms: C_22  and  N_20 
ROOT
ATOM      1  C   LIG d   1       4.020  88.881 115.777  0.00  0.00     0.161 C 
ATOM      2  C   LIG d   1       4.226  90.172 116.291  0.00  0.00     0.016 C 
ATOM      3  C   LIG d   1       3.262  90.868 117.057  0.00  0.00     0.038 C 
ATOM      4  C   LIG d   1       2.077  90.255 117.491  0.00  0.00     0.028 C 
ATOM      5  C   LIG d   1       1.605  89.131 116.574  0.00  0.00    -0.047 C 
ATOM      6  C   LIG d   1       2.778  88.154 116.334  0.00  0.00     0.091 C 
ENDROOT
BRANCH   1   7
ATOM      7  O   LIG d   1       5.202  88.081 115.979  0.00  0.00    -0.368 OA
BRANCH   7   8
ATOM      8  C   LIG d   1       6.189  88.125 114.919  0.00  0.00     0.119 C 
BRANCH   8   9
ATOM      9  C   LIG d   1       5.797  87.060 113.877  0.00  0.00     0.028 C 
ATOM     10  C   LIG d   1       5.450  87.676 112.511  0.00  0.00     0.006 C 
ENDBRANCH   8   9
BRANCH   8  11
ATOM     11  C   LIG d   1       7.571  87.704 115.428  0.00  0.00     0.028 C 
ATOM     12  C   LIG d   1       8.100  88.620 116.544  0.00  0.00     0.006 C 
ENDBRANCH   8  11
ENDBRANCH   7   8
ENDBRANCH   1   7
BRANCH   6  13
ATOM     13  N   LIG d   1       2.427  87.070 115.380  0.00  0.00    -0.311 N 
ATOM     14  C   LIG d   1       2.080  87.292 114.113  0.00  0.00     0.210 C 
ATOM     15  C   LIG d   1       1.737  86.036 113.307  0.00  0.00     0.109 C 
ATOM     16  O   LIG d   1       2.055  88.408 113.572  0.00  0.00    -0.276 OA
ATOM     17  H   LIG d   1       2.451  86.131 115.727  0.00  0.00     0.149 HD
ENDBRANCH   6  13
BRANCH   5  18
ATOM     18  N   LIG d   1       0.442  88.491 117.217  0.00  0.00     0.381 N 
ATOM     19  H   LIG d   1       0.585  88.442 118.206  0.00  0.00    -0.090 HD
ATOM     20  H   LIG d   1       0.351  87.554 116.865  0.00  0.00    -0.090 HD
ATOM     21  H   LIG d   1      -0.386  89.010 117.018  0.00  0.00    -0.090 HD
ENDBRANCH   5  18
BRANCH   3  22
ATOM     22  C   LIG d   1       3.461  92.205 117.363  0.00  0.00     0.382 C 
ATOM     23  O   LIG d   1       2.548  92.866 117.914  0.00  0.00    -0.241 OA
ATOM     24  O   LIG d   1       4.527  92.772 117.054  0.00  0.00    -0.241 OA
ENDBRANCH   3  22
TORSDOF 7
ENDMDL
MODEL 9
REMARK VINA RESULT:      -4.3      7.438     10.163
REMARK  7 active torsions:
REMARK  status: ('A' for Active; 'I' for Inactive)
REMARK    1  A    between atoms: C_2  and  C_3 
REMARK    2  A    between atoms: C_3  and  O_6 
REMARK    3  A    between atoms: C_3  and  C_4 
REMARK    4  A    between atoms: C_7  and  O_6 
REMARK    5  A    between atoms: C_9  and  C_10 
REMARK    6  A    between atoms: N_15  and  C_14 
REMARK    7  A    between atoms: N_20  and  C_19 
REMARK       I    between atoms: C_22  and  N_20 
ROOT
ATOM      1  C   LIG d   1       3.978  89.304 116.046  0.00  0.00     0.161 C 
ATOM      2  C   LIG d   1       4.887  90.093 116.771  0.00  0.00     0.016 C 
ATOM      3  C   LIG d   1       6.237  90.273 116.390  0.00  0.00     0.038 C 
ATOM      4  C   LIG d   1       6.733  89.796 115.168  0.00  0.00     0.028 C 
ATOM      5  C   LIG d   1       5.989  88.569 114.650  0.00  0.00    -0.047 C 
ATOM      6  C   LIG d   1       4.471  88.866 114.651  0.00  0.00     0.091 C 
ENDROOT
BRANCH   1   7
ATOM      7  O   LIG d   1       2.714  89.988 115.938  0.00  0.00    -0.368 OA
BRANCH   7   8
ATOM      8  C   LIG d   1       1.797  89.812 117.046  0.00  0.00     0.119 C 
BRANCH   8   9
ATOM      9  C   LIG d   1       1.376  88.329 117.066  0.00  0.00     0.028 C 
ATOM     10  C   LIG d   1      -0.021  88.125 117.676  0.00  0.00     0.006 C 
ENDBRANCH   8   9
BRANCH   8  11
ATOM     11  C   LIG d   1       0.502  90.598 116.827  0.00  0.00     0.028 C 
ATOM     12  C   LIG d   1       0.525  91.982 117.497  0.00  0.00     0.006 C 
ENDBRANCH   8  11
ENDBRANCH   7   8
ENDBRANCH   1   7
BRANCH   6  13
ATOM     13  N   LIG d   1       3.664  87.688 114.237  0.00  0.00    -0.311 N 
ATOM     14  C   LIG d   1       2.832  87.699 113.197  0.00  0.00     0.210 C 
ATOM     15  C   LIG d   1       2.081  86.385 112.957  0.00  0.00     0.109 C 
ATOM     16  O   LIG d   1       2.669  88.661 112.432  0.00  0.00    -0.276 OA
ATOM     17  H   LIG d   1       3.758  86.855 114.785  0.00  0.00     0.149 HD
ENDBRANCH   6  13
BRANCH   5  18
ATOM     18  N   LIG d   1       6.517  88.262 113.307  0.00  0.00     0.381 N 
ATOM     19  H   LIG d   1       6.120  88.888 112.636  0.00  0.00    -0.090 HD
ATOM     20  H   LIG d   1       6.252  87.325 113.061  0.00  0.00    -0.090 HD
ATOM     21  H   LIG d   1       7.510  88.346 113.304  0.00  0.00    -0.090 HD
ENDBRANCH   5  18
BRANCH   3  22
ATOM     22  C   LIG d   1       7.116  90.905 117.256  0.00  0.00     0.382 C 
ATOM     23  O   LIG d   1       8.352  90.848 117.047  0.00  0.00    -0.241 OA
ATOM     24  O   LIG d   1       6.692  91.493 118.269  0.00  0.00    -0.241 OA
ENDBRANCH   3  22
TORSDOF 7
ENDMDL
