MODEL 1
REMARK VINA RESULT:      -4.7      0.000      0.000
REMARK  7 active torsions:
REMARK  status: ('A' for Active; 'I' for Inactive)
REMARK    1  A    between atoms: C_2  and  C_3 
REMARK    2  A    between atoms: C_3  and  O_6 
REMARK    3  A    between atoms: C_3  and  C_4 
REMARK    4  A    between atoms: C_7  and  O_6 
REMARK    5  A    between atoms: C_9  and  C_10 
REMARK    6  A    between atoms: N_15  and  C_14 
REMARK    7  A    between atoms: N_20  and  C_19 
REMARK       I    between atoms: C_22  and  N_20 
ROOT
ATOM      1  C   LIG d   1       1.755  88.085 115.788  0.00  0.00     0.161 C 
ATOM      2  C   LIG d   1       0.787  88.252 116.792  0.00  0.00     0.016 C 
ATOM      3  C   LIG d   1       0.698  89.407 117.603  0.00  0.00     0.038 C 
ATOM      4  C   LIG d   1       1.482  90.545 117.361  0.00  0.00     0.028 C 
ATOM      5  C   LIG d   1       2.813  90.231 116.685  0.00  0.00    -0.047 C 
ATOM      6  C   LIG d   1       2.548  89.361 115.435  0.00  0.00     0.091 C 
ENDROOT
BRANCH   1   7
ATOM      7  O   LIG d   1       1.142  87.533 114.606  0.00  0.00    -0.368 OA
BRANCH   7   8
ATOM      8  C   LIG d   1       1.384  86.126 114.359  0.00  0.00     0.119 C 
BRANCH   8   9
ATOM      9  C   LIG d   1       2.421  86.027 113.224  0.00  0.00     0.028 C 
ATOM     10  C   LIG d   1       3.771  85.471 113.708  0.00  0.00     0.006 C 
ENDBRANCH   8   9
BRANCH   8  11
ATOM     11  C   LIG d   1       0.129  85.430 113.825  0.00  0.00     0.028 C 
ATOM     12  C   LIG d   1      -1.140  85.810 114.603  0.00  0.00     0.006 C 
ENDBRANCH   8  11
ENDBRANCH   7   8
ENDBRANCH   1   7
BRANCH   6  13
ATOM     13  N   LIG d   1       3.804  88.938 114.762  0.00  0.00    -0.311 N 
ATOM     14  C   LIG d   1       4.318  89.569 113.708  0.00  0.00     0.210 C 
ATOM     15  C   LIG d   1       5.609  88.956 113.155  0.00  0.00     0.109 C 
ATOM     16  O   LIG d   1       3.846  90.595 113.198  0.00  0.00    -0.276 OA
ATOM     17  H   LIG d   1       4.270  88.132 115.131  0.00  0.00     0.149 HD
ENDBRANCH   6  13
BRANCH   5  18
ATOM     18  N   LIG d   1       3.466  91.515 116.368  0.00  0.00     0.381 N 
ATOM     19  H   LIG d   1       4.390  91.349 116.024  0.00  0.00    -0.090 HD
ATOM     20  H   LIG d   1       3.536  92.060 117.209  0.00  0.00    -0.090 HD
ATOM     21  H   LIG d   1       2.933  92.009 115.687  0.00  0.00    -0.090 HD
ENDBRANCH   5  18
BRANCH   3  22
ATOM     22  C   LIG d   1      -0.156  89.416 118.695  0.00  0.00     0.382 C 
ATOM     23  O   LIG d   1       0.259  89.042 119.819  0.00  0.00    -0.241 OA
ATOM     24  O   LIG d   1      -1.348  89.751 118.562  0.00  0.00    -0.241 OA
ENDBRANCH   3  22
TORSDOF 7
ENDMDL
MODEL 2
REMARK VINA RESULT:      -4.7      2.431      6.405
REMARK  7 active torsions:
REMARK  status: ('A' for Active; 'I' for Inactive)
REMARK    1  A    between atoms: C_2  and  C_3 
REMARK    2  A    between atoms: C_3  and  O_6 
REMARK    3  A    between atoms: C_3  and  C_4 
REMARK    4  A    between atoms: C_7  and  O_6 
REMARK    5  A    between atoms: C_9  and  C_10 
REMARK    6  A    between atoms: N_15  and  C_14 
REMARK    7  A    between atoms: N_20  and  C_19 
REMARK       I    between atoms: C_22  and  N_20 
ROOT
ATOM      1  C   LIG d   1       3.425  89.994 115.900  0.00  0.00     0.161 C 
ATOM      2  C   LIG d   1       4.220  89.622 114.803  0.00  0.00     0.016 C 
ATOM      3  C   LIG d   1       3.890  88.564 113.925  0.00  0.00     0.038 C 
ATOM      4  C   LIG d   1       2.657  87.899 113.997  0.00  0.00     0.028 C 
ATOM      5  C   LIG d   1       2.048  87.902 115.395  0.00  0.00    -0.047 C 
ATOM      6  C   LIG d   1       2.022  89.353 115.928  0.00  0.00     0.091 C 
ENDROOT
BRANCH   1   7
ATOM      7  O   LIG d   1       3.321  91.430 115.963  0.00  0.00    -0.368 OA
BRANCH   7   8
ATOM      8  C   LIG d   1       4.284  92.102 116.812  0.00  0.00     0.119 C 
BRANCH   8   9
ATOM      9  C   LIG d   1       4.470  91.239 118.075  0.00  0.00     0.028 C 
ATOM     10  C   LIG d   1       5.951  90.961 118.382  0.00  0.00     0.006 C 
ENDBRANCH   8   9
BRANCH   8  11
ATOM     11  C   LIG d   1       3.744  93.444 117.314  0.00  0.00     0.028 C 
ATOM     12  C   LIG d   1       2.458  93.297 118.142  0.00  0.00     0.006 C 
ENDBRANCH   8  11
ENDBRANCH   7   8
ENDBRANCH   1   7
BRANCH   6  13
ATOM     13  N   LIG d   1       1.518  89.435 117.324  0.00  0.00    -0.311 N 
ATOM     14  C   LIG d   1       0.557  90.272 117.708  0.00  0.00     0.210 C 
ATOM     15  C   LIG d   1       0.201  90.209 119.197  0.00  0.00     0.109 C 
ATOM     16  O   LIG d   1      -0.058  91.038 116.951  0.00  0.00    -0.276 OA
ATOM     17  H   LIG d   1       1.940  88.826 117.998  0.00  0.00     0.149 HD
ENDBRANCH   6  13
BRANCH   5  18
ATOM     18  N   LIG d   1       0.705  87.298 115.297  0.00  0.00     0.381 N 
ATOM     19  H   LIG d   1       0.447  86.904 116.179  0.00  0.00    -0.090 HD
ATOM     20  H   LIG d   1       0.730  86.559 114.617  0.00  0.00    -0.090 HD
ATOM     21  H   LIG d   1       0.040  87.988 115.026  0.00  0.00    -0.090 HD
ENDBRANCH   5  18
BRANCH   3  22
ATOM     22  C   LIG d   1       4.816  88.135 112.987  0.00  0.00     0.382 C 
ATOM     23  O   LIG d   1       4.674  87.020 112.430  0.00  0.00    -0.241 OA
ATOM     24  O   LIG d   1       5.816  88.830 112.722  0.00  0.00    -0.241 OA
ENDBRANCH   3  22
TORSDOF 7
ENDMDL
MODEL 3
REMARK VINA RESULT:      -4.7      2.376      4.422
REMARK  7 active torsions:
REMARK  status: ('A' for Active; 'I' for Inactive)
REMARK    1  A    between atoms: C_2  and  C_3 
REMARK    2  A    between atoms: C_3  and  O_6 
REMARK    3  A    between atoms: C_3  and  C_4 
REMARK    4  A    between atoms: C_7  and  O_6 
REMARK    5  A    between atoms: C_9  and  C_10 
REMARK    6  A    between atoms: N_15  and  C_14 
REMARK    7  A    between atoms: N_20  and  C_19 
REMARK       I    between atoms: C_22  and  N_20 
ROOT
ATOM      1  C   LIG d   1       2.781  89.072 115.150  0.00  0.00     0.161 C 
ATOM      2  C   LIG d   1       3.458  90.237 115.548  0.00  0.00     0.016 C 
ATOM      3  C   LIG d   1       3.094  90.999 116.682  0.00  0.00     0.038 C 
ATOM      4  C   LIG d   1       2.116  90.561 117.587  0.00  0.00     0.028 C 
ATOM      5  C   LIG d   1       1.067  89.655 116.953  0.00  0.00    -0.047 C 
ATOM      6  C   LIG d   1       1.782  88.518 116.187  0.00  0.00     0.091 C 
ENDROOT
BRANCH   1   7
ATOM      7  O   LIG d   1       3.733  88.056 114.779  0.00  0.00    -0.368 OA
BRANCH   7   8
ATOM      8  C   LIG d   1       3.538  87.443 113.481  0.00  0.00     0.119 C 
BRANCH   8   9
ATOM      9  C   LIG d   1       3.591  85.915 113.678  0.00  0.00     0.028 C 
ATOM     10  C   LIG d   1       4.406  85.511 114.917  0.00  0.00     0.006 C 
ENDBRANCH   8   9
BRANCH   8  11
ATOM     11  C   LIG d   1       4.694  87.770 112.531  0.00  0.00     0.028 C 
ATOM     12  C   LIG d   1       5.751  88.683 113.171  0.00  0.00     0.006 C 
ENDBRANCH   8  11
ENDBRANCH   7   8
ENDBRANCH   1   7
BRANCH   6  13
ATOM     13  N   LIG d   1       0.829  87.634 115.467  0.00  0.00    -0.311 N 
ATOM     14  C   LIG d   1       0.687  86.337 115.735  0.00  0.00     0.210 C 
ATOM     15  C   LIG d   1      -0.335  85.604 114.860  0.00  0.00     0.109 C 
ATOM     16  O   LIG d   1       1.288  85.730 116.635  0.00  0.00    -0.276 OA
ATOM     17  H   LIG d   1       0.279  88.050 114.741  0.00  0.00     0.149 HD
ENDBRANCH   6  13
BRANCH   5  18
ATOM     18  N   LIG d   1       0.192  89.162 118.034  0.00  0.00     0.381 N 
ATOM     19  H   LIG d   1       0.306  88.174 118.139  0.00  0.00    -0.090 HD
ATOM     20  H   LIG d   1      -0.765  89.344 117.786  0.00  0.00    -0.090 HD
ATOM     21  H   LIG d   1       0.414  89.622 118.889  0.00  0.00    -0.090 HD
ENDBRANCH   5  18
BRANCH   3  22
ATOM     22  C   LIG d   1       3.686  92.234 116.898  0.00  0.00     0.382 C 
ATOM     23  O   LIG d   1       3.044  93.286 116.663  0.00  0.00    -0.241 OA
ATOM     24  O   LIG d   1       4.868  92.310 117.283  0.00  0.00    -0.241 OA
ENDBRANCH   3  22
TORSDOF 7
ENDMDL
MODEL 4
REMARK VINA RESULT:      -4.5      2.758      5.598
REMARK  7 active torsions:
REMARK  status: ('A' for Active; 'I' for Inactive)
REMARK    1  A    between atoms: C_2  and  C_3 
REMARK    2  A    between atoms: C_3  and  O_6 
REMARK    3  A    between atoms: C_3  and  C_4 
REMARK    4  A    between atoms: C_7  and  O_6 
REMARK    5  A    between atoms: C_9  and  C_10 
REMARK    6  A    between atoms: N_15  and  C_14 
REMARK    7  A    between atoms: N_20  and  C_19 
REMARK       I    between atoms: C_22  and  N_20 
ROOT
ATOM      1  C   LIG d   1       2.645  90.442 116.504  0.00  0.00     0.161 C 
ATOM      2  C   LIG d   1       2.693  89.759 115.278  0.00  0.00     0.016 C 
ATOM      3  C   LIG d   1       3.894  89.502 114.577  0.00  0.00     0.038 C 
ATOM      4  C   LIG d   1       5.151  89.779 115.135  0.00  0.00     0.028 C 
ATOM      5  C   LIG d   1       5.128  90.923 116.143  0.00  0.00    -0.047 C 
ATOM      6  C   LIG d   1       4.015  90.654 117.181  0.00  0.00     0.091 C 
ENDROOT
BRANCH   1   7
ATOM      7  O   LIG d   1       1.741  89.769 117.403  0.00  0.00    -0.368 OA
BRANCH   7   8
ATOM      8  C   LIG d   1       0.364  90.221 117.379  0.00  0.00     0.119 C 
BRANCH   8   9
ATOM      9  C   LIG d   1       0.201  91.265 118.501  0.00  0.00     0.028 C 
ATOM     10  C   LIG d   1      -0.125  92.666 117.956  0.00  0.00     0.006 C 
ENDBRANCH   8   9
BRANCH   8  11
ATOM     11  C   LIG d   1      -0.601  89.087 117.737  0.00  0.00     0.028 C 
ATOM     12  C   LIG d   1      -2.015  89.590 118.067  0.00  0.00     0.006 C 
ENDBRANCH   8  11
ENDBRANCH   7   8
ENDBRANCH   1   7
BRANCH   6  13
ATOM     13  N   LIG d   1       3.868  91.766 118.156  0.00  0.00    -0.311 N 
ATOM     14  C   LIG d   1       3.484  92.994 117.814  0.00  0.00     0.210 C 
ATOM     15  C   LIG d   1       3.417  93.997 118.971  0.00  0.00     0.109 C 
ATOM     16  O   LIG d   1       3.161  93.341 116.668  0.00  0.00    -0.276 OA
ATOM     17  H   LIG d   1       4.080  91.564 119.114  0.00  0.00     0.149 HD
ENDBRANCH   6  13
BRANCH   5  18
ATOM     18  N   LIG d   1       6.472  91.013 116.746  0.00  0.00     0.381 N 
ATOM     19  H   LIG d   1       6.392  91.218 117.722  0.00  0.00    -0.090 HD
ATOM     20  H   LIG d   1       6.976  91.762 116.306  0.00  0.00    -0.090 HD
ATOM     21  H   LIG d   1       6.961  90.154 116.619  0.00  0.00    -0.090 HD
ENDBRANCH   5  18
BRANCH   3  22
ATOM     22  C   LIG d   1       3.843  88.997 113.287  0.00  0.00     0.382 C 
ATOM     23  O   LIG d   1       2.736  88.849 112.715  0.00  0.00    -0.241 OA
ATOM     24  O   LIG d   1       4.886  88.646 112.704  0.00  0.00    -0.241 OA
ENDBRANCH   3  22
TORSDOF 7
ENDMDL
MODEL 5
REMARK VINA RESULT:      -4.4      1.995      3.160
REMARK  7 active torsions:
REMARK  status: ('A' for Active; 'I' for Inactive)
REMARK    1  A    between atoms: C_2  and  C_3 
REMARK    2  A    between atoms: C_3  and  O_6 
REMARK    3  A    between atoms: C_3  and  C_4 
REMARK    4  A    between atoms: C_7  and  O_6 
REMARK    5  A    between atoms: C_9  and  C_10 
REMARK    6  A    between atoms: N_15  and  C_14 
REMARK    7  A    between atoms: N_20  and  C_19 
REMARK       I    between atoms: C_22  and  N_20 
ROOT
ATOM      1  C   LIG d   1       1.244  89.513 117.142  0.00  0.00     0.161 C 
ATOM      2  C   LIG d   1      -0.073  89.131 117.447  0.00  0.00     0.016 C 
ATOM      3  C   LIG d   1      -0.959  89.932 118.203  0.00  0.00     0.038 C 
ATOM      4  C   LIG d   1      -0.636  91.244 118.578  0.00  0.00     0.028 C 
ATOM      5  C   LIG d   1       0.863  91.480 118.727  0.00  0.00    -0.047 C 
ATOM      6  C   LIG d   1       1.578  90.988 117.448  0.00  0.00     0.091 C 
ENDROOT
BRANCH   1   7
ATOM      7  O   LIG d   1       1.533  89.209 115.762  0.00  0.00    -0.368 OA
BRANCH   7   8
ATOM      8  C   LIG d   1       2.477  88.135 115.530  0.00  0.00     0.119 C 
BRANCH   8   9
ATOM      9  C   LIG d   1       3.759  88.762 114.949  0.00  0.00     0.028 C 
ATOM     10  C   LIG d   1       3.458  89.863 113.918  0.00  0.00     0.006 C 
ENDBRANCH   8   9
BRANCH   8  11
ATOM     11  C   LIG d   1       1.971  87.173 114.451  0.00  0.00     0.028 C 
ATOM     12  C   LIG d   1       0.646  86.494 114.832  0.00  0.00     0.006 C 
ENDBRANCH   8  11
ENDBRANCH   7   8
ENDBRANCH   1   7
BRANCH   6  13
ATOM     13  N   LIG d   1       3.056  91.104 117.544  0.00  0.00    -0.311 N 
ATOM     14  C   LIG d   1       3.740  92.153 117.091  0.00  0.00     0.210 C 
ATOM     15  C   LIG d   1       5.259  92.063 117.272  0.00  0.00     0.109 C 
ATOM     16  O   LIG d   1       3.231  93.165 116.586  0.00  0.00    -0.276 OA
ATOM     17  H   LIG d   1       3.547  90.342 117.968  0.00  0.00     0.149 HD
ENDBRANCH   6  13
BRANCH   5  18
ATOM     18  N   LIG d   1       1.065  92.918 118.985  0.00  0.00     0.381 N 
ATOM     19  H   LIG d   1       0.252  93.301 119.424  0.00  0.00    -0.090 HD
ATOM     20  H   LIG d   1       1.202  93.390 118.108  0.00  0.00    -0.090 HD
ATOM     21  H   LIG d   1       1.861  93.051 119.570  0.00  0.00    -0.090 HD
ENDBRANCH   5  18
BRANCH   3  22
ATOM     22  C   LIG d   1      -2.171  89.406 118.625  0.00  0.00     0.382 C 
ATOM     23  O   LIG d   1      -3.073  89.160 117.788  0.00  0.00    -0.241 OA
ATOM     24  O   LIG d   1      -2.389  89.215 119.836  0.00  0.00    -0.241 OA
ENDBRANCH   3  22
TORSDOF 7
ENDMDL
MODEL 6
REMARK VINA RESULT:      -4.3      3.400      4.594
REMARK  7 active torsions:
REMARK  status: ('A' for Active; 'I' for Inactive)
REMARK    1  A    between atoms: C_2  and  C_3 
REMARK    2  A    between atoms: C_3  and  O_6 
REMARK    3  A    between atoms: C_3  and  C_4 
REMARK    4  A    between atoms: C_7  and  O_6 
REMARK    5  A    between atoms: C_9  and  C_10 
REMARK    6  A    between atoms: N_15  and  C_14 
REMARK    7  A    between atoms: N_20  and  C_19 
REMARK       I    between atoms: C_22  and  N_20 
ROOT
ATOM      1  C   LIG d   1       4.400  89.650 116.005  0.00  0.00     0.161 C 
ATOM      2  C   LIG d   1       3.921  90.965 116.121  0.00  0.00     0.016 C 
ATOM      3  C   LIG d   1       4.531  91.947 116.935  0.00  0.00     0.038 C 
ATOM      4  C   LIG d   1       5.758  91.721 117.576  0.00  0.00     0.028 C 
ATOM      5  C   LIG d   1       6.014  90.251 117.892  0.00  0.00    -0.047 C 
ATOM      6  C   LIG d   1       5.801  89.417 116.609  0.00  0.00     0.091 C 
ENDROOT
BRANCH   1   7
ATOM      7  O   LIG d   1       4.376  89.241 114.623  0.00  0.00    -0.368 OA
BRANCH   7   8
ATOM      8  C   LIG d   1       3.134  88.664 114.151  0.00  0.00     0.119 C 
BRANCH   8   9
ATOM      9  C   LIG d   1       2.798  87.474 115.070  0.00  0.00     0.028 C 
ATOM     10  C   LIG d   1       1.371  87.556 115.638  0.00  0.00     0.006 C 
ENDBRANCH   8   9
BRANCH   8  11
ATOM     11  C   LIG d   1       3.296  88.062 112.752  0.00  0.00     0.028 C 
ATOM     12  C   LIG d   1       4.711  87.521 112.496  0.00  0.00     0.006 C 
ENDBRANCH   8  11
ENDBRANCH   7   8
ENDBRANCH   1   7
BRANCH   6  13
ATOM     13  N   LIG d   1       5.950  87.958 116.850  0.00  0.00    -0.311 N 
ATOM     14  C   LIG d   1       7.087  87.294 116.650  0.00  0.00     0.210 C 
ATOM     15  C   LIG d   1       7.018  85.791 116.941  0.00  0.00     0.109 C 
ATOM     16  O   LIG d   1       8.154  87.812 116.290  0.00  0.00    -0.276 OA
ATOM     17  H   LIG d   1       5.141  87.464 117.173  0.00  0.00     0.149 HD
ENDBRANCH   6  13
BRANCH   5  18
ATOM     18  N   LIG d   1       7.383  90.144 118.431  0.00  0.00     0.381 N 
ATOM     19  H   LIG d   1       7.916  90.949 118.167  0.00  0.00    -0.090 HD
ATOM     20  H   LIG d   1       7.825  89.331 118.038  0.00  0.00    -0.090 HD
ATOM     21  H   LIG d   1       7.354  90.067 119.424  0.00  0.00    -0.090 HD
ENDBRANCH   5  18
BRANCH   3  22
ATOM     22  C   LIG d   1       3.891  93.159 117.147  0.00  0.00     0.382 C 
ATOM     23  O   LIG d   1       4.476  94.077 117.771  0.00  0.00    -0.241 OA
ATOM     24  O   LIG d   1       2.719  93.330 116.762  0.00  0.00    -0.241 OA
ENDBRANCH   3  22
TORSDOF 7
ENDMDL
MODEL 7
REMARK VINA RESULT:      -4.3      6.127      9.221
REMARK  7 active torsions:
REMARK  status: ('A' for Active; 'I' for Inactive)
REMARK    1  A    between atoms: C_2  and  C_3 
REMARK    2  A    between atoms: C_3  and  O_6 
REMARK    3  A    between atoms: C_3  and  C_4 
REMARK    4  A    between atoms: C_7  and  O_6 
REMARK    5  A    between atoms: C_9  and  C_10 
REMARK    6  A    between atoms: N_15  and  C_14 
REMARK    7  A    between atoms: N_20  and  C_19 
REMARK       I    between atoms: C_22  and  N_20 
ROOT
ATOM      1  C   LIG d   1      -4.703  91.913 118.032  0.00  0.00     0.161 C 
ATOM      2  C   LIG d   1      -5.778  91.806 117.135  0.00  0.00     0.016 C 
ATOM      3  C   LIG d   1      -5.871  90.799 116.147  0.00  0.00     0.038 C 
ATOM      4  C   LIG d   1      -4.961  89.732 116.088  0.00  0.00     0.028 C 
ATOM      5  C   LIG d   1      -3.586  90.078 116.648  0.00  0.00    -0.047 C 
ATOM      6  C   LIG d   1      -3.757  90.694 118.056  0.00  0.00     0.091 C 
ENDROOT
BRANCH   1   7
ATOM      7  O   LIG d   1      -5.198  92.189 119.357  0.00  0.00    -0.368 OA
BRANCH   7   8
ATOM      8  C   LIG d   1      -4.826  93.470 119.922  0.00  0.00     0.119 C 
BRANCH   8   9
ATOM      9  C   LIG d   1      -5.937  94.475 119.563  0.00  0.00     0.028 C 
ATOM     10  C   LIG d   1      -7.343  93.927 119.863  0.00  0.00     0.006 C 
ENDBRANCH   8   9
BRANCH   8  11
ATOM     11  C   LIG d   1      -3.555  94.020 119.268  0.00  0.00     0.028 C 
ATOM     12  C   LIG d   1      -3.292  95.492 119.621  0.00  0.00     0.006 C 
ENDBRANCH   8  11
ENDBRANCH   7   8
ENDBRANCH   1   7
BRANCH   6  13
ATOM     13  N   LIG d   1      -2.465  91.138 118.641  0.00  0.00    -0.311 N 
ATOM     14  C   LIG d   1      -1.706  90.364 119.414  0.00  0.00     0.210 C 
ATOM     15  C   LIG d   1      -0.424  91.024 119.930  0.00  0.00     0.109 C 
ATOM     16  O   LIG d   1      -1.957  89.182 119.696  0.00  0.00    -0.276 OA
ATOM     17  H   LIG d   1      -2.170  92.073 118.438  0.00  0.00     0.149 HD
ENDBRANCH   6  13
BRANCH   5  18
ATOM     18  N   LIG d   1      -2.782  88.841 116.652  0.00  0.00     0.381 N 
ATOM     19  H   LIG d   1      -2.036  88.919 115.991  0.00  0.00    -0.090 HD
ATOM     20  H   LIG d   1      -3.368  88.072 116.377  0.00  0.00    -0.090 HD
ATOM     21  H   LIG d   1      -2.413  88.677 117.563  0.00  0.00    -0.090 HD
ENDBRANCH   5  18
BRANCH   3  22
ATOM     22  C   LIG d   1      -6.861  90.874 115.179  0.00  0.00     0.382 C 
ATOM     23  O   LIG d   1      -6.851  91.811 114.345  0.00  0.00    -0.241 OA
ATOM     24  O   LIG d   1      -7.787  90.042 115.156  0.00  0.00    -0.241 OA
ENDBRANCH   3  22
TORSDOF 7
ENDMDL
MODEL 8
REMARK VINA RESULT:      -4.2      2.202      5.241
REMARK  7 active torsions:
REMARK  status: ('A' for Active; 'I' for Inactive)
REMARK    1  A    between atoms: C_2  and  C_3 
REMARK    2  A    between atoms: C_3  and  O_6 
REMARK    3  A    between atoms: C_3  and  C_4 
REMARK    4  A    between atoms: C_7  and  O_6 
REMARK    5  A    between atoms: C_9  and  C_10 
REMARK    6  A    between atoms: N_15  and  C_14 
REMARK    7  A    between atoms: N_20  and  C_19 
REMARK       I    between atoms: C_22  and  N_20 
ROOT
ATOM      1  C   LIG d   1       2.283  88.876 115.851  0.00  0.00     0.161 C 
ATOM      2  C   LIG d   1       2.025  87.780 115.011  0.00  0.00     0.016 C 
ATOM      3  C   LIG d   1       2.688  87.570 113.780  0.00  0.00     0.038 C 
ATOM      4  C   LIG d   1       3.770  88.367 113.376  0.00  0.00     0.028 C 
ATOM      5  C   LIG d   1       3.730  89.779 113.949  0.00  0.00    -0.047 C 
ATOM      6  C   LIG d   1       3.537  89.694 115.480  0.00  0.00     0.091 C 
ENDROOT
BRANCH   1   7
ATOM      7  O   LIG d   1       2.361  88.434 117.221  0.00  0.00    -0.368 OA
BRANCH   7   8
ATOM      8  C   LIG d   1       1.133  88.513 117.987  0.00  0.00     0.119 C 
BRANCH   8   9
ATOM      9  C   LIG d   1       0.307  89.683 117.417  0.00  0.00     0.028 C 
ATOM     10  C   LIG d   1      -1.115  89.736 118.001  0.00  0.00     0.006 C 
ENDBRANCH   8   9
BRANCH   8  11
ATOM     11  C   LIG d   1       1.411  88.886 119.446  0.00  0.00     0.028 C 
ATOM     12  C   LIG d   1       2.465  89.995 119.588  0.00  0.00     0.006 C 
ENDBRANCH   8  11
ENDBRANCH   7   8
ENDBRANCH   1   7
BRANCH   6  13
ATOM     13  N   LIG d   1       3.403  91.034 116.110  0.00  0.00    -0.311 N 
ATOM     14  C   LIG d   1       4.422  91.688 116.665  0.00  0.00     0.210 C 
ATOM     15  C   LIG d   1       4.062  93.046 117.276  0.00  0.00     0.109 C 
ATOM     16  O   LIG d   1       5.595  91.287 116.682  0.00  0.00    -0.276 OA
ATOM     17  H   LIG d   1       2.491  91.447 116.112  0.00  0.00     0.149 HD
ENDBRANCH   6  13
BRANCH   5  18
ATOM     18  N   LIG d   1       4.983  90.454 113.560  0.00  0.00     0.381 N 
ATOM     19  H   LIG d   1       5.612  90.474 114.337  0.00  0.00    -0.090 HD
ATOM     20  H   LIG d   1       4.774  91.401 113.298  0.00  0.00    -0.090 HD
ATOM     21  H   LIG d   1       5.404  89.975 112.795  0.00  0.00    -0.090 HD
ENDBRANCH   5  18
BRANCH   3  22
ATOM     22  C   LIG d   1       2.243  86.577 112.921  0.00  0.00     0.382 C 
ATOM     23  O   LIG d   1       1.091  86.643 112.430  0.00  0.00    -0.241 OA
ATOM     24  O   LIG d   1       2.964  85.594 112.665  0.00  0.00    -0.241 OA
ENDBRANCH   3  22
TORSDOF 7
ENDMDL
MODEL 9
REMARK VINA RESULT:      -4.2      3.512      5.368
REMARK  7 active torsions:
REMARK  status: ('A' for Active; 'I' for Inactive)
REMARK    1  A    between atoms: C_2  and  C_3 
REMARK    2  A    between atoms: C_3  and  O_6 
REMARK    3  A    between atoms: C_3  and  C_4 
REMARK    4  A    between atoms: C_7  and  O_6 
REMARK    5  A    between atoms: C_9  and  C_10 
REMARK    6  A    between atoms: N_15  and  C_14 
REMARK    7  A    between atoms: N_20  and  C_19 
REMARK       I    between atoms: C_22  and  N_20 
ROOT
ATOM      1  C   LIG d   1      -0.816  90.908 117.750  0.00  0.00     0.161 C 
ATOM      2  C   LIG d   1      -2.068  90.434 117.323  0.00  0.00     0.016 C 
ATOM      3  C   LIG d   1      -3.272  91.157 117.489  0.00  0.00     0.038 C 
ATOM      4  C   LIG d   1      -3.284  92.478 117.959  0.00  0.00     0.028 C 
ATOM      5  C   LIG d   1      -2.106  92.808 118.870  0.00  0.00    -0.047 C 
ATOM      6  C   LIG d   1      -0.795  92.395 118.164  0.00  0.00     0.091 C 
ENDROOT
BRANCH   1   7
ATOM      7  O   LIG d   1       0.174  90.657 116.732  0.00  0.00    -0.368 OA
BRANCH   7   8
ATOM      8  C   LIG d   1       1.265  89.781 117.107  0.00  0.00     0.119 C 
BRANCH   8   9
ATOM      9  C   LIG d   1       2.308  89.829 115.974  0.00  0.00     0.028 C 
ATOM     10  C   LIG d   1       3.498  90.744 116.310  0.00  0.00     0.006 C 
ENDBRANCH   8   9
BRANCH   8  11
ATOM     11  C   LIG d   1       0.808  88.321 117.176  0.00  0.00     0.028 C 
ATOM     12  C   LIG d   1       1.022  87.567 115.854  0.00  0.00     0.006 C 
ENDBRANCH   8  11
ENDBRANCH   7   8
ENDBRANCH   1   7
BRANCH   6  13
ATOM     13  N   LIG d   1       0.401  92.606 119.020  0.00  0.00    -0.311 N 
ATOM     14  C   LIG d   1       1.534  93.147 118.577  0.00  0.00     0.210 C 
ATOM     15  C   LIG d   1       2.651  93.255 119.620  0.00  0.00     0.109 C 
ATOM     16  O   LIG d   1       1.710  93.577 117.427  0.00  0.00    -0.276 OA
ATOM     17  H   LIG d   1       0.335  92.314 119.976  0.00  0.00     0.149 HD
ENDBRANCH   6  13
BRANCH   5  18
ATOM     18  N   LIG d   1      -2.169  94.250 119.174  0.00  0.00     0.381 N 
ATOM     19  H   LIG d   1      -1.889  94.779 118.372  0.00  0.00    -0.090 HD
ATOM     20  H   LIG d   1      -1.531  94.452 119.923  0.00  0.00    -0.090 HD
ATOM     21  H   LIG d   1      -3.095  94.503 119.440  0.00  0.00    -0.090 HD
ENDBRANCH   5  18
BRANCH   3  22
ATOM     22  C   LIG d   1      -4.485  90.542 117.219  0.00  0.00     0.382 C 
ATOM     23  O   LIG d   1      -5.544  91.006 117.705  0.00  0.00    -0.241 OA
ATOM     24  O   LIG d   1      -4.528  89.504 116.532  0.00  0.00    -0.241 OA
ENDBRANCH   3  22
TORSDOF 7
ENDMDL
