MODEL 1
REMARK VINA RESULT:      -5.0      0.000      0.000
REMARK  7 active torsions:
REMARK  status: ('A' for Active; 'I' for Inactive)
REMARK    1  A    between atoms: C_2  and  C_3 
REMARK    2  A    between atoms: C_3  and  O_6 
REMARK    3  A    between atoms: C_3  and  C_4 
REMARK    4  A    between atoms: C_7  and  O_6 
REMARK    5  A    between atoms: C_9  and  C_10 
REMARK    6  A    between atoms: N_15  and  C_14 
REMARK    7  A    between atoms: N_20  and  C_19 
REMARK       I    between atoms: C_22  and  N_20 
ROOT
ATOM      1  C   LIG d   1      -5.020  92.461 118.596  0.00  0.00     0.161 C 
ATOM      2  C   LIG d   1      -5.420  93.599 119.314  0.00  0.00     0.016 C 
ATOM      3  C   LIG d   1      -6.567  94.360 118.990  0.00  0.00     0.038 C 
ATOM      4  C   LIG d   1      -7.481  93.944 118.011  0.00  0.00     0.028 C 
ATOM      5  C   LIG d   1      -6.852  93.077 116.925  0.00  0.00    -0.047 C 
ATOM      6  C   LIG d   1      -6.065  91.927 117.594  0.00  0.00     0.091 C 
ENDROOT
BRANCH   1   7
ATOM      7  O   LIG d   1      -4.625  91.419 119.511  0.00  0.00    -0.368 OA
BRANCH   7   8
ATOM      8  C   LIG d   1      -3.230  91.032 119.473  0.00  0.00     0.119 C 
BRANCH   8   9
ATOM      9  C   LIG d   1      -2.493  92.042 118.573  0.00  0.00     0.028 C 
ATOM     10  C   LIG d   1      -1.525  92.938 119.364  0.00  0.00     0.006 C 
ENDBRANCH   8   9
BRANCH   8  11
ATOM     11  C   LIG d   1      -3.047  89.673 118.792  0.00  0.00     0.028 C 
ATOM     12  C   LIG d   1      -1.919  89.676 117.748  0.00  0.00     0.006 C 
ENDBRANCH   8  11
ENDBRANCH   7   8
ENDBRANCH   1   7
BRANCH   6  13
ATOM     13  N   LIG d   1      -5.349  91.080 116.605  0.00  0.00    -0.311 N 
ATOM     14  C   LIG d   1      -5.824  89.922 116.151  0.00  0.00     0.210 C 
ATOM     15  C   LIG d   1      -4.917  89.198 115.151  0.00  0.00     0.109 C 
ATOM     16  O   LIG d   1      -6.925  89.440 116.457  0.00  0.00    -0.276 OA
ATOM     17  H   LIG d   1      -4.461  91.410 116.279  0.00  0.00     0.149 HD
ENDBRANCH   6  13
BRANCH   5  18
ATOM     18  N   LIG d   1      -7.939  92.601 116.050  0.00  0.00     0.381 N 
ATOM     19  H   LIG d   1      -7.553  92.156 115.241  0.00  0.00    -0.090 HD
ATOM     20  H   LIG d   1      -8.482  93.390 115.746  0.00  0.00    -0.090 HD
ATOM     21  H   LIG d   1      -8.520  91.960 116.545  0.00  0.00    -0.090 HD
ENDBRANCH   5  18
BRANCH   3  22
ATOM     22  C   LIG d   1      -6.787  95.575 119.623  0.00  0.00     0.382 C 
ATOM     23  O   LIG d   1      -5.816  96.307 119.930  0.00  0.00    -0.241 OA
ATOM     24  O   LIG d   1      -7.942  95.927 119.929  0.00  0.00    -0.241 OA
ENDBRANCH   3  22
TORSDOF 7
ENDMDL
MODEL 2
REMARK VINA RESULT:      -4.8      7.150     10.531
REMARK  7 active torsions:
REMARK  status: ('A' for Active; 'I' for Inactive)
REMARK    1  A    between atoms: C_2  and  C_3 
REMARK    2  A    between atoms: C_3  and  O_6 
REMARK    3  A    between atoms: C_3  and  C_4 
REMARK    4  A    between atoms: C_7  and  O_6 
REMARK    5  A    between atoms: C_9  and  C_10 
REMARK    6  A    between atoms: N_15  and  C_14 
REMARK    7  A    between atoms: N_20  and  C_19 
REMARK       I    between atoms: C_22  and  N_20 
ROOT
ATOM      1  C   LIG d   1       2.870  90.229 116.629  0.00  0.00     0.161 C 
ATOM      2  C   LIG d   1       2.810  89.726 115.319  0.00  0.00     0.016 C 
ATOM      3  C   LIG d   1       3.956  89.426 114.547  0.00  0.00     0.038 C 
ATOM      4  C   LIG d   1       5.248  89.466 115.092  0.00  0.00     0.028 C 
ATOM      5  C   LIG d   1       5.387  90.450 116.249  0.00  0.00    -0.047 C 
ATOM      6  C   LIG d   1       4.268  90.174 117.279  0.00  0.00     0.091 C 
ENDROOT
BRANCH   1   7
ATOM      7  O   LIG d   1       1.905  89.551 117.458  0.00  0.00    -0.368 OA
BRANCH   7   8
ATOM      8  C   LIG d   1       0.753  90.329 117.862  0.00  0.00     0.119 C 
BRANCH   8   9
ATOM      9  C   LIG d   1      -0.502  89.605 117.338  0.00  0.00     0.028 C 
ATOM     10  C   LIG d   1      -1.740  89.868 118.212  0.00  0.00     0.006 C 
ENDBRANCH   8   9
BRANCH   8  11
ATOM     11  C   LIG d   1       0.742  91.702 117.183  0.00  0.00     0.028 C 
ATOM     12  C   LIG d   1       0.427  92.847 118.159  0.00  0.00     0.006 C 
ENDBRANCH   8  11
ENDBRANCH   7   8
ENDBRANCH   1   7
BRANCH   6  13
ATOM     13  N   LIG d   1       4.280  91.147 118.403  0.00  0.00    -0.311 N 
ATOM     14  C   LIG d   1       4.121  92.459 118.238  0.00  0.00     0.210 C 
ATOM     15  C   LIG d   1       4.187  93.286 119.526  0.00  0.00     0.109 C 
ATOM     16  O   LIG d   1       3.899  93.014 117.151  0.00  0.00    -0.276 OA
ATOM     17  H   LIG d   1       4.423  90.780 119.323  0.00  0.00     0.149 HD
ENDBRANCH   6  13
BRANCH   5  18
ATOM     18  N   LIG d   1       6.742  90.290 116.810  0.00  0.00     0.381 N 
ATOM     19  H   LIG d   1       7.413  90.714 116.201  0.00  0.00    -0.090 HD
ATOM     20  H   LIG d   1       6.952  89.310 116.877  0.00  0.00    -0.090 HD
ATOM     21  H   LIG d   1       6.789  90.710 117.712  0.00  0.00    -0.090 HD
ENDBRANCH   5  18
BRANCH   3  22
ATOM     22  C   LIG d   1       3.818  89.118 113.202  0.00  0.00     0.382 C 
ATOM     23  O   LIG d   1       4.833  88.865 112.509  0.00  0.00    -0.241 OA
ATOM     24  O   LIG d   1       2.695  89.134 112.663  0.00  0.00    -0.241 OA
ENDBRANCH   3  22
TORSDOF 7
ENDMDL
MODEL 3
REMARK VINA RESULT:      -4.7      8.741     11.812
REMARK  7 active torsions:
REMARK  status: ('A' for Active; 'I' for Inactive)
REMARK    1  A    between atoms: C_2  and  C_3 
REMARK    2  A    between atoms: C_3  and  O_6 
REMARK    3  A    between atoms: C_3  and  C_4 
REMARK    4  A    between atoms: C_7  and  O_6 
REMARK    5  A    between atoms: C_9  and  C_10 
REMARK    6  A    between atoms: N_15  and  C_14 
REMARK    7  A    between atoms: N_20  and  C_19 
REMARK       I    between atoms: C_22  and  N_20 
ROOT
ATOM      1  C   LIG d   1       4.357  89.991 114.994  0.00  0.00     0.161 C 
ATOM      2  C   LIG d   1       3.493  89.146 114.278  0.00  0.00     0.016 C 
ATOM      3  C   LIG d   1       3.667  87.745 114.195  0.00  0.00     0.038 C 
ATOM      4  C   LIG d   1       4.636  87.072 114.953  0.00  0.00     0.028 C 
ATOM      5  C   LIG d   1       5.845  87.936 115.294  0.00  0.00    -0.047 C 
ATOM      6  C   LIG d   1       5.355  89.262 115.919  0.00  0.00     0.091 C 
ENDROOT
BRANCH   1   7
ATOM      7  O   LIG d   1       3.588  90.951 115.745  0.00  0.00    -0.368 OA
BRANCH   7   8
ATOM      8  C   LIG d   1       2.993  90.470 116.976  0.00  0.00     0.119 C 
BRANCH   8   9
ATOM      9  C   LIG d   1       1.468  90.648 116.853  0.00  0.00     0.028 C 
ATOM     10  C   LIG d   1       0.726  89.304 116.755  0.00  0.00     0.006 C 
ENDBRANCH   8   9
BRANCH   8  11
ATOM     11  C   LIG d   1       3.408  91.334 118.170  0.00  0.00     0.028 C 
ATOM     12  C   LIG d   1       4.138  92.620 117.751  0.00  0.00     0.006 C 
ENDBRANCH   8  11
ENDBRANCH   7   8
ENDBRANCH   1   7
BRANCH   6  13
ATOM     13  N   LIG d   1       6.471  90.201 116.205  0.00  0.00    -0.311 N 
ATOM     14  C   LIG d   1       7.057  90.301 117.396  0.00  0.00     0.210 C 
ATOM     15  C   LIG d   1       8.174  91.345 117.482  0.00  0.00     0.109 C 
ATOM     16  O   LIG d   1       6.780  89.601 118.382  0.00  0.00    -0.276 OA
ATOM     17  H   LIG d   1       6.780  90.785 115.453  0.00  0.00     0.149 HD
ENDBRANCH   6  13
BRANCH   5  18
ATOM     18  N   LIG d   1       6.709  87.155 116.200  0.00  0.00     0.381 N 
ATOM     19  H   LIG d   1       7.102  86.378 115.707  0.00  0.00    -0.090 HD
ATOM     20  H   LIG d   1       6.151  86.800 116.956  0.00  0.00    -0.090 HD
ATOM     21  H   LIG d   1       7.437  87.733 116.559  0.00  0.00    -0.090 HD
ENDBRANCH   5  18
BRANCH   3  22
ATOM     22  C   LIG d   1       2.890  87.007 113.314  0.00  0.00     0.382 C 
ATOM     23  O   LIG d   1       2.218  87.591 112.430  0.00  0.00    -0.241 OA
ATOM     24  O   LIG d   1       2.817  85.768 113.421  0.00  0.00    -0.241 OA
ENDBRANCH   3  22
TORSDOF 7
ENDMDL
MODEL 4
REMARK VINA RESULT:      -4.6      4.936      7.703
REMARK  7 active torsions:
REMARK  status: ('A' for Active; 'I' for Inactive)
REMARK    1  A    between atoms: C_2  and  C_3 
REMARK    2  A    between atoms: C_3  and  O_6 
REMARK    3  A    between atoms: C_3  and  C_4 
REMARK    4  A    between atoms: C_7  and  O_6 
REMARK    5  A    between atoms: C_9  and  C_10 
REMARK    6  A    between atoms: N_15  and  C_14 
REMARK    7  A    between atoms: N_20  and  C_19 
REMARK       I    between atoms: C_22  and  N_20 
ROOT
ATOM      1  C   LIG d   1       0.633  89.944 116.541  0.00  0.00     0.161 C 
ATOM      2  C   LIG d   1       1.965  90.383 116.610  0.00  0.00     0.016 C 
ATOM      3  C   LIG d   1       2.356  91.590 117.234  0.00  0.00     0.038 C 
ATOM      4  C   LIG d   1       1.451  92.372 117.968  0.00  0.00     0.028 C 
ATOM      5  C   LIG d   1       0.007  92.229 117.498  0.00  0.00    -0.047 C 
ATOM      6  C   LIG d   1      -0.353  90.728 117.432  0.00  0.00     0.091 C 
ENDROOT
BRANCH   1   7
ATOM      7  O   LIG d   1       0.566  88.535 116.838  0.00  0.00    -0.368 OA
BRANCH   7   8
ATOM      8  C   LIG d   1       1.056  87.643 115.808  0.00  0.00     0.119 C 
BRANCH   8   9
ATOM      9  C   LIG d   1      -0.074  86.646 115.483  0.00  0.00     0.028 C 
ATOM     10  C   LIG d   1       0.293  85.698 114.329  0.00  0.00     0.006 C 
ENDBRANCH   8   9
BRANCH   8  11
ATOM     11  C   LIG d   1       2.218  86.786 116.319  0.00  0.00     0.028 C 
ATOM     12  C   LIG d   1       2.158  86.544 117.836  0.00  0.00     0.006 C 
ENDBRANCH   8  11
ENDBRANCH   7   8
ENDBRANCH   1   7
BRANCH   6  13
ATOM     13  N   LIG d   1      -1.722  90.496 116.901  0.00  0.00    -0.311 N 
ATOM     14  C   LIG d   1      -2.794  90.347 117.676  0.00  0.00     0.210 C 
ATOM     15  C   LIG d   1      -4.106  90.098 116.925  0.00  0.00     0.109 C 
ATOM     16  O   LIG d   1      -2.789  90.430 118.914  0.00  0.00    -0.276 OA
ATOM     17  H   LIG d   1      -1.822  90.446 115.906  0.00  0.00     0.149 HD
ENDBRANCH   6  13
BRANCH   5  18
ATOM     18  N   LIG d   1      -0.844  92.988 118.434  0.00  0.00     0.381 N 
ATOM     19  H   LIG d   1      -1.808  92.840 118.212  0.00  0.00    -0.090 HD
ATOM     20  H   LIG d   1      -0.644  93.968 118.334  0.00  0.00    -0.090 HD
ATOM     21  H   LIG d   1      -0.663  92.698 119.370  0.00  0.00    -0.090 HD
ENDBRANCH   5  18
BRANCH   3  22
ATOM     22  C   LIG d   1       3.657  92.048 117.093  0.00  0.00     0.382 C 
ATOM     23  O   LIG d   1       3.945  93.226 117.412  0.00  0.00    -0.241 OA
ATOM     24  O   LIG d   1       4.537  91.310 116.610  0.00  0.00    -0.241 OA
ENDBRANCH   3  22
TORSDOF 7
ENDMDL
MODEL 5
REMARK VINA RESULT:      -4.5      5.822      8.576
REMARK  7 active torsions:
REMARK  status: ('A' for Active; 'I' for Inactive)
REMARK    1  A    between atoms: C_2  and  C_3 
REMARK    2  A    between atoms: C_3  and  O_6 
REMARK    3  A    between atoms: C_3  and  C_4 
REMARK    4  A    between atoms: C_7  and  O_6 
REMARK    5  A    between atoms: C_9  and  C_10 
REMARK    6  A    between atoms: N_15  and  C_14 
REMARK    7  A    between atoms: N_20  and  C_19 
REMARK       I    between atoms: C_22  and  N_20 
ROOT
ATOM      1  C   LIG d   1       1.185  88.579 116.360  0.00  0.00     0.161 C 
ATOM      2  C   LIG d   1      -0.113  88.735 116.876  0.00  0.00     0.016 C 
ATOM      3  C   LIG d   1      -0.563  89.921 117.501  0.00  0.00     0.038 C 
ATOM      4  C   LIG d   1       0.211  91.091 117.518  0.00  0.00     0.028 C 
ATOM      5  C   LIG d   1       1.711  90.825 117.458  0.00  0.00    -0.047 C 
ATOM      6  C   LIG d   1       2.007  89.881 116.270  0.00  0.00     0.091 C 
ENDROOT
BRANCH   1   7
ATOM      7  O   LIG d   1       1.123  87.935 115.072  0.00  0.00    -0.368 OA
BRANCH   7   8
ATOM      8  C   LIG d   1       1.440  86.521 115.051  0.00  0.00     0.119 C 
BRANCH   8   9
ATOM      9  C   LIG d   1       2.790  86.360 114.324  0.00  0.00     0.028 C 
ATOM     10  C   LIG d   1       2.794  87.028 112.939  0.00  0.00     0.006 C 
ENDBRANCH   8   9
BRANCH   8  11
ATOM     11  C   LIG d   1       0.430  85.736 114.208  0.00  0.00     0.028 C 
ATOM     12  C   LIG d   1      -1.027  86.023 114.604  0.00  0.00     0.006 C 
ENDBRANCH   8  11
ENDBRANCH   7   8
ENDBRANCH   1   7
BRANCH   6  13
ATOM     13  N   LIG d   1       3.442  89.503 116.190  0.00  0.00    -0.311 N 
ATOM     14  C   LIG d   1       4.196  89.712 115.112  0.00  0.00     0.210 C 
ATOM     15  C   LIG d   1       5.644  89.228 115.233  0.00  0.00     0.109 C 
ATOM     16  O   LIG d   1       3.812  90.281 114.080  0.00  0.00    -0.276 OA
ATOM     17  H   LIG d   1       3.843  89.063 116.995  0.00  0.00     0.149 HD
ENDBRANCH   6  13
BRANCH   5  18
ATOM     18  N   LIG d   1       2.390  92.129 117.343  0.00  0.00     0.381 N 
ATOM     19  H   LIG d   1       2.120  92.720 118.104  0.00  0.00    -0.090 HD
ATOM     20  H   LIG d   1       2.107  92.569 116.486  0.00  0.00    -0.090 HD
ATOM     21  H   LIG d   1       3.378  92.001 117.349  0.00  0.00    -0.090 HD
ENDBRANCH   5  18
BRANCH   3  22
ATOM     22  C   LIG d   1      -1.787  89.931 118.154  0.00  0.00     0.382 C 
ATOM     23  O   LIG d   1      -1.835  90.132 119.391  0.00  0.00    -0.241 OA
ATOM     24  O   LIG d   1      -2.838  89.698 117.528  0.00  0.00    -0.241 OA
ENDBRANCH   3  22
TORSDOF 7
ENDMDL
MODEL 6
REMARK VINA RESULT:      -4.5      4.844      7.575
REMARK  7 active torsions:
REMARK  status: ('A' for Active; 'I' for Inactive)
REMARK    1  A    between atoms: C_2  and  C_3 
REMARK    2  A    between atoms: C_3  and  O_6 
REMARK    3  A    between atoms: C_3  and  C_4 
REMARK    4  A    between atoms: C_7  and  O_6 
REMARK    5  A    between atoms: C_9  and  C_10 
REMARK    6  A    between atoms: N_15  and  C_14 
REMARK    7  A    between atoms: N_20  and  C_19 
REMARK       I    between atoms: C_22  and  N_20 
ROOT
ATOM      1  C   LIG d   1       0.487  89.550 117.268  0.00  0.00     0.161 C 
ATOM      2  C   LIG d   1      -0.907  89.388 117.216  0.00  0.00     0.016 C 
ATOM      3  C   LIG d   1      -1.822  90.364 117.674  0.00  0.00     0.038 C 
ATOM      4  C   LIG d   1      -1.404  91.640 118.079  0.00  0.00     0.028 C 
ATOM      5  C   LIG d   1       0.021  91.667 118.622  0.00  0.00    -0.047 C 
ATOM      6  C   LIG d   1       0.959  90.981 117.603  0.00  0.00     0.091 C 
ENDROOT
BRANCH   1   7
ATOM      7  O   LIG d   1       1.077  89.105 116.031  0.00  0.00    -0.368 OA
BRANCH   7   8
ATOM      8  C   LIG d   1       1.943  87.947 116.118  0.00  0.00     0.119 C 
BRANCH   8   9
ATOM      9  C   LIG d   1       3.369  88.407 115.758  0.00  0.00     0.028 C 
ATOM     10  C   LIG d   1       3.374  89.559 114.739  0.00  0.00     0.006 C 
ENDBRANCH   8   9
BRANCH   8  11
ATOM     11  C   LIG d   1       1.578  86.896 115.065  0.00  0.00     0.028 C 
ATOM     12  C   LIG d   1       0.120  86.422 115.178  0.00  0.00     0.006 C 
ENDBRANCH   8  11
ENDBRANCH   7   8
ENDBRANCH   1   7
BRANCH   6  13
ATOM     13  N   LIG d   1       2.359  90.889 118.094  0.00  0.00    -0.311 N 
ATOM     14  C   LIG d   1       3.308  91.766 117.772  0.00  0.00     0.210 C 
ATOM     15  C   LIG d   1       4.688  91.474 118.371  0.00  0.00     0.109 C 
ATOM     16  O   LIG d   1       3.131  92.776 117.074  0.00  0.00    -0.276 OA
ATOM     17  H   LIG d   1       2.583  90.117 118.692  0.00  0.00     0.149 HD
ENDBRANCH   6  13
BRANCH   5  18
ATOM     18  N   LIG d   1       0.375  93.076 118.876  0.00  0.00     0.381 N 
ATOM     19  H   LIG d   1       0.144  93.632 118.078  0.00  0.00    -0.090 HD
ATOM     20  H   LIG d   1       1.366  93.140 119.030  0.00  0.00    -0.090 HD
ATOM     21  H   LIG d   1      -0.115  93.411 119.676  0.00  0.00    -0.090 HD
ENDBRANCH   5  18
BRANCH   3  22
ATOM     22  C   LIG d   1      -3.170  90.052 117.768  0.00  0.00     0.382 C 
ATOM     23  O   LIG d   1      -4.003  90.648 117.044  0.00  0.00    -0.241 OA
ATOM     24  O   LIG d   1      -3.568  89.214 118.599  0.00  0.00    -0.241 OA
ENDBRANCH   3  22
TORSDOF 7
ENDMDL
MODEL 7
REMARK VINA RESULT:      -4.4      8.480     10.919
REMARK  7 active torsions:
REMARK  status: ('A' for Active; 'I' for Inactive)
REMARK    1  A    between atoms: C_2  and  C_3 
REMARK    2  A    between atoms: C_3  and  O_6 
REMARK    3  A    between atoms: C_3  and  C_4 
REMARK    4  A    between atoms: C_7  and  O_6 
REMARK    5  A    between atoms: C_9  and  C_10 
REMARK    6  A    between atoms: N_15  and  C_14 
REMARK    7  A    between atoms: N_20  and  C_19 
REMARK       I    between atoms: C_22  and  N_20 
ROOT
ATOM      1  C   LIG d   1       3.098  90.426 116.551  0.00  0.00     0.161 C 
ATOM      2  C   LIG d   1       3.009  89.905 115.249  0.00  0.00     0.016 C 
ATOM      3  C   LIG d   1       4.131  89.469 114.508  0.00  0.00     0.038 C 
ATOM      4  C   LIG d   1       5.409  89.383 115.079  0.00  0.00     0.028 C 
ATOM      5  C   LIG d   1       5.631  90.370 116.219  0.00  0.00    -0.047 C 
ATOM      6  C   LIG d   1       4.470  90.237 117.231  0.00  0.00     0.091 C 
ENDROOT
BRANCH   1   7
ATOM      7  O   LIG d   1       2.051  89.872 117.371  0.00  0.00    -0.368 OA
BRANCH   7   8
ATOM      8  C   LIG d   1       1.969  88.426 117.409  0.00  0.00     0.119 C 
BRANCH   8   9
ATOM      9  C   LIG d   1       0.587  88.026 116.855  0.00  0.00     0.028 C 
ATOM     10  C   LIG d   1       0.688  87.023 115.694  0.00  0.00     0.006 C 
ENDBRANCH   8   9
BRANCH   8  11
ATOM     11  C   LIG d   1       1.995  87.903 118.848  0.00  0.00     0.028 C 
ATOM     12  C   LIG d   1       2.487  86.450 118.946  0.00  0.00     0.006 C 
ENDBRANCH   8  11
ENDBRANCH   7   8
ENDBRANCH   1   7
BRANCH   6  13
ATOM     13  N   LIG d   1       4.564  91.227 118.336  0.00  0.00    -0.311 N 
ATOM     14  C   LIG d   1       4.256  92.515 118.195  0.00  0.00     0.210 C 
ATOM     15  C   LIG d   1       4.443  93.366 119.455  0.00  0.00     0.109 C 
ATOM     16  O   LIG d   1       3.815  93.027 117.155  0.00  0.00    -0.276 OA
ATOM     17  H   LIG d   1       4.884  90.890 119.223  0.00  0.00     0.149 HD
ENDBRANCH   6  13
BRANCH   5  18
ATOM     18  N   LIG d   1       6.950  90.079 116.812  0.00  0.00     0.381 N 
ATOM     19  H   LIG d   1       7.040  90.553 117.688  0.00  0.00    -0.090 HD
ATOM     20  H   LIG d   1       7.666  90.419 116.194  0.00  0.00    -0.090 HD
ATOM     21  H   LIG d   1       7.055  89.097 116.945  0.00  0.00    -0.090 HD
ENDBRANCH   5  18
BRANCH   3  22
ATOM     22  C   LIG d   1       3.986  89.150 113.166  0.00  0.00     0.382 C 
ATOM     23  O   LIG d   1       2.844  89.129 112.646  0.00  0.00    -0.241 OA
ATOM     24  O   LIG d   1       4.978  88.839 112.480  0.00  0.00    -0.241 OA
ENDBRANCH   3  22
TORSDOF 7
ENDMDL
MODEL 8
REMARK VINA RESULT:      -4.3      8.754     11.231
REMARK  7 active torsions:
REMARK  status: ('A' for Active; 'I' for Inactive)
REMARK    1  A    between atoms: C_2  and  C_3 
REMARK    2  A    between atoms: C_3  and  O_6 
REMARK    3  A    between atoms: C_3  and  C_4 
REMARK    4  A    between atoms: C_7  and  O_6 
REMARK    5  A    between atoms: C_9  and  C_10 
REMARK    6  A    between atoms: N_15  and  C_14 
REMARK    7  A    between atoms: N_20  and  C_19 
REMARK       I    between atoms: C_22  and  N_20 
ROOT
ATOM      1  C   LIG d   1       3.953  88.059 116.981  0.00  0.00     0.161 C 
ATOM      2  C   LIG d   1       3.089  89.165 116.928  0.00  0.00     0.016 C 
ATOM      3  C   LIG d   1       3.541  90.503 116.862  0.00  0.00     0.038 C 
ATOM      4  C   LIG d   1       4.897  90.820 116.691  0.00  0.00     0.028 C 
ATOM      5  C   LIG d   1       5.842  89.760 117.246  0.00  0.00    -0.047 C 
ATOM      6  C   LIG d   1       5.433  88.379 116.683  0.00  0.00     0.091 C 
ENDROOT
BRANCH   1   7
ATOM      7  O   LIG d   1       3.477  87.024 116.097  0.00  0.00    -0.368 OA
BRANCH   7   8
ATOM      8  C   LIG d   1       2.642  87.461 114.997  0.00  0.00     0.119 C 
BRANCH   8   9
ATOM      9  C   LIG d   1       1.500  86.437 114.848  0.00  0.00     0.028 C 
ATOM     10  C   LIG d   1       0.235  86.851 115.618  0.00  0.00     0.006 C 
ENDBRANCH   8   9
BRANCH   8  11
ATOM     11  C   LIG d   1       3.403  87.416 113.668  0.00  0.00     0.028 C 
ATOM     12  C   LIG d   1       3.800  88.812 113.162  0.00  0.00     0.006 C 
ENDBRANCH   8  11
ENDBRANCH   7   8
ENDBRANCH   1   7
BRANCH   6  13
ATOM     13  N   LIG d   1       6.254  87.274 117.242  0.00  0.00    -0.311 N 
ATOM     14  C   LIG d   1       7.414  86.884 116.717  0.00  0.00     0.210 C 
ATOM     15  C   LIG d   1       8.089  85.712 117.436  0.00  0.00     0.109 C 
ATOM     16  O   LIG d   1       7.965  87.420 115.743  0.00  0.00    -0.276 OA
ATOM     17  H   LIG d   1       5.897  86.805 118.051  0.00  0.00     0.149 HD
ENDBRANCH   6  13
BRANCH   5  18
ATOM     18  N   LIG d   1       7.216  90.150 116.878  0.00  0.00     0.381 N 
ATOM     19  H   LIG d   1       7.360  91.119 117.085  0.00  0.00    -0.090 HD
ATOM     20  H   LIG d   1       7.338  90.018 115.890  0.00  0.00    -0.090 HD
ATOM     21  H   LIG d   1       7.874  89.595 117.379  0.00  0.00    -0.090 HD
ENDBRANCH   5  18
BRANCH   3  22
ATOM     22  C   LIG d   1       2.635  91.543 117.008  0.00  0.00     0.382 C 
ATOM     23  O   LIG d   1       3.048  92.714 117.186  0.00  0.00    -0.241 OA
ATOM     24  O   LIG d   1       1.410  91.318 117.008  0.00  0.00    -0.241 OA
ENDBRANCH   3  22
TORSDOF 7
ENDMDL
MODEL 9
REMARK VINA RESULT:      -4.3      8.119     10.187
REMARK  7 active torsions:
REMARK  status: ('A' for Active; 'I' for Inactive)
REMARK    1  A    between atoms: C_2  and  C_3 
REMARK    2  A    between atoms: C_3  and  O_6 
REMARK    3  A    between atoms: C_3  and  C_4 
REMARK    4  A    between atoms: C_7  and  O_6 
REMARK    5  A    between atoms: C_9  and  C_10 
REMARK    6  A    between atoms: N_15  and  C_14 
REMARK    7  A    between atoms: N_20  and  C_19 
REMARK       I    between atoms: C_22  and  N_20 
ROOT
ATOM      1  C   LIG d   1       3.521  87.924 116.678  0.00  0.00     0.161 C 
ATOM      2  C   LIG d   1       3.819  88.885 117.657  0.00  0.00     0.016 C 
ATOM      3  C   LIG d   1       4.473  90.107 117.374  0.00  0.00     0.038 C 
ATOM      4  C   LIG d   1       4.739  90.519 116.060  0.00  0.00     0.028 C 
ATOM      5  C   LIG d   1       4.911  89.359 115.085  0.00  0.00    -0.047 C 
ATOM      6  C   LIG d   1       3.703  88.404 115.222  0.00  0.00     0.091 C 
ENDROOT
BRANCH   1   7
ATOM      7  O   LIG d   1       2.184  87.423 116.876  0.00  0.00    -0.368 OA
BRANCH   7   8
ATOM      8  C   LIG d   1       1.155  88.003 116.036  0.00  0.00     0.119 C 
BRANCH   8   9
ATOM      9  C   LIG d   1       0.292  88.917 116.927  0.00  0.00     0.028 C 
ATOM     10  C   LIG d   1       0.545  90.409 116.656  0.00  0.00     0.006 C 
ENDBRANCH   8   9
BRANCH   8  11
ATOM     11  C   LIG d   1       0.198  86.930 115.507  0.00  0.00     0.028 C 
ATOM     12  C   LIG d   1       0.824  85.527 115.493  0.00  0.00     0.006 C 
ENDBRANCH   8  11
ENDBRANCH   7   8
ENDBRANCH   1   7
BRANCH   6  13
ATOM     13  N   LIG d   1       3.833  87.198 114.364  0.00  0.00    -0.311 N 
ATOM     14  C   LIG d   1       3.326  87.114 113.135  0.00  0.00     0.210 C 
ATOM     15  C   LIG d   1       3.556  85.774 112.430  0.00  0.00     0.109 C 
ATOM     16  O   LIG d   1       2.734  88.034 112.550  0.00  0.00    -0.276 OA
ATOM     17  H   LIG d   1       4.326  86.415 114.748  0.00  0.00     0.149 HD
ENDBRANCH   6  13
BRANCH   5  18
ATOM     18  N   LIG d   1       5.045  89.930 113.731  0.00  0.00     0.381 N 
ATOM     19  H   LIG d   1       5.188  89.196 113.067  0.00  0.00    -0.090 HD
ATOM     20  H   LIG d   1       5.847  90.535 113.712  0.00  0.00    -0.090 HD
ATOM     21  H   LIG d   1       4.225  90.446 113.496  0.00  0.00    -0.090 HD
ENDBRANCH   5  18
BRANCH   3  22
ATOM     22  C   LIG d   1       4.904  90.913 118.417  0.00  0.00     0.382 C 
ATOM     23  O   LIG d   1       6.025  91.472 118.355  0.00  0.00    -0.241 OA
ATOM     24  O   LIG d   1       4.204  91.054 119.437  0.00  0.00    -0.241 OA
ENDBRANCH   3  22
TORSDOF 7
ENDMDL
