MODEL 1
REMARK VINA RESULT:      -5.1      0.000      0.000
REMARK  7 active torsions:
REMARK  status: ('A' for Active; 'I' for Inactive)
REMARK    1  A    between atoms: C_2  and  C_3 
REMARK    2  A    between atoms: C_3  and  O_6 
REMARK    3  A    between atoms: C_3  and  C_4 
REMARK    4  A    between atoms: C_7  and  O_6 
REMARK    5  A    between atoms: C_9  and  C_10 
REMARK    6  A    between atoms: N_15  and  C_14 
REMARK    7  A    between atoms: N_20  and  C_19 
REMARK       I    between atoms: C_22  and  N_20 
ROOT
ATOM      1  C   LIG d   1      -6.309  93.126 119.323  0.00  0.00     0.161 C 
ATOM      2  C   LIG d   1      -7.589  93.696 119.232  0.00  0.00     0.016 C 
ATOM      3  C   LIG d   1      -7.818  95.090 119.169  0.00  0.00     0.038 C 
ATOM      4  C   LIG d   1      -6.766  96.009 119.039  0.00  0.00     0.028 C 
ATOM      5  C   LIG d   1      -5.452  95.513 119.634  0.00  0.00    -0.047 C 
ATOM      6  C   LIG d   1      -5.145  94.107 119.070  0.00  0.00     0.091 C 
ENDROOT
BRANCH   1   7
ATOM      7  O   LIG d   1      -6.213  91.995 118.434  0.00  0.00    -0.368 OA
BRANCH   7   8
ATOM      8  C   LIG d   1      -5.718  92.273 117.101  0.00  0.00     0.119 C 
BRANCH   8   9
ATOM      9  C   LIG d   1      -6.915  92.185 116.135  0.00  0.00     0.028 C 
ATOM     10  C   LIG d   1      -6.562  91.453 114.828  0.00  0.00     0.006 C 
ENDBRANCH   8   9
BRANCH   8  11
ATOM     11  C   LIG d   1      -4.739  91.191 116.634  0.00  0.00     0.028 C 
ATOM     12  C   LIG d   1      -4.081  90.439 117.802  0.00  0.00     0.006 C 
ENDBRANCH   8  11
ENDBRANCH   7   8
ENDBRANCH   1   7
BRANCH   6  13
ATOM     13  N   LIG d   1      -3.919  93.513 119.665  0.00  0.00    -0.311 N 
ATOM     14  C   LIG d   1      -2.720  93.574 119.088  0.00  0.00     0.210 C 
ATOM     15  C   LIG d   1      -1.595  92.879 119.861  0.00  0.00     0.109 C 
ATOM     16  O   LIG d   1      -2.476  94.165 118.026  0.00  0.00    -0.276 OA
ATOM     17  H   LIG d   1      -4.021  93.041 120.543  0.00  0.00     0.149 HD
ENDBRANCH   6  13
BRANCH   5  18
ATOM     18  N   LIG d   1      -4.412  96.507 119.307  0.00  0.00     0.381 N 
ATOM     19  H   LIG d   1      -4.713  97.073 118.540  0.00  0.00    -0.090 HD
ATOM     20  H   LIG d   1      -3.575  96.023 119.032  0.00  0.00    -0.090 HD
ATOM     21  H   LIG d   1      -4.227  97.080 120.101  0.00  0.00    -0.090 HD
ENDBRANCH   5  18
BRANCH   3  22
ATOM     22  C   LIG d   1      -9.110  95.580 119.276  0.00  0.00     0.382 C 
ATOM     23  O   LIG d   1     -10.088  94.802 119.161  0.00  0.00    -0.241 OA
ATOM     24  O   LIG d   1      -9.313  96.798 119.441  0.00  0.00    -0.241 OA
ENDBRANCH   3  22
TORSDOF 7
ENDMDL
MODEL 2
REMARK VINA RESULT:      -5.0      2.120      5.434
REMARK  7 active torsions:
REMARK  status: ('A' for Active; 'I' for Inactive)
REMARK    1  A    between atoms: C_2  and  C_3 
REMARK    2  A    between atoms: C_3  and  O_6 
REMARK    3  A    between atoms: C_3  and  C_4 
REMARK    4  A    between atoms: C_7  and  O_6 
REMARK    5  A    between atoms: C_9  and  C_10 
REMARK    6  A    between atoms: N_15  and  C_14 
REMARK    7  A    between atoms: N_20  and  C_19 
REMARK       I    between atoms: C_22  and  N_20 
ROOT
ATOM      1  C   LIG d   1      -5.008  91.809 117.435  0.00  0.00     0.161 C 
ATOM      2  C   LIG d   1      -3.906  90.944 117.328  0.00  0.00     0.016 C 
ATOM      3  C   LIG d   1      -2.665  91.184 117.963  0.00  0.00     0.038 C 
ATOM      4  C   LIG d   1      -2.490  92.234 118.877  0.00  0.00     0.028 C 
ATOM      5  C   LIG d   1      -3.418  93.417 118.624  0.00  0.00    -0.047 C 
ATOM      6  C   LIG d   1      -4.871  92.901 118.516  0.00  0.00     0.091 C 
ENDROOT
BRANCH   1   7
ATOM      7  O   LIG d   1      -6.211  91.043 117.646  0.00  0.00    -0.368 OA
BRANCH   7   8
ATOM      8  C   LIG d   1      -7.242  91.186 116.638  0.00  0.00     0.119 C 
BRANCH   8   9
ATOM      9  C   LIG d   1      -7.436  89.808 115.976  0.00  0.00     0.028 C 
ATOM     10  C   LIG d   1      -8.906  89.354 115.986  0.00  0.00     0.006 C 
ENDBRANCH   8   9
BRANCH   8  11
ATOM     11  C   LIG d   1      -6.793  92.119 115.509  0.00  0.00     0.028 C 
ATOM     12  C   LIG d   1      -6.635  91.393 114.164  0.00  0.00     0.006 C 
ENDBRANCH   8  11
ENDBRANCH   7   8
ENDBRANCH   1   7
BRANCH   6  13
ATOM     13  N   LIG d   1      -5.834  93.984 118.186  0.00  0.00    -0.311 N 
ATOM     14  C   LIG d   1      -6.975  94.177 118.845  0.00  0.00     0.210 C 
ATOM     15  C   LIG d   1      -7.832  95.338 118.329  0.00  0.00     0.109 C 
ATOM     16  O   LIG d   1      -7.343  93.518 119.829  0.00  0.00    -0.276 OA
ATOM     17  H   LIG d   1      -5.599  94.585 117.420  0.00  0.00     0.149 HD
ENDBRANCH   6  13
BRANCH   5  18
ATOM     18  N   LIG d   1      -3.226  94.377 119.727  0.00  0.00     0.381 N 
ATOM     19  H   LIG d   1      -2.624  93.981 120.421  0.00  0.00    -0.090 HD
ATOM     20  H   LIG d   1      -4.117  94.565 120.153  0.00  0.00    -0.090 HD
ATOM     21  H   LIG d   1      -2.831  95.223 119.379  0.00  0.00    -0.090 HD
ENDBRANCH   5  18
BRANCH   3  22
ATOM     22  C   LIG d   1      -1.571  90.389 117.655  0.00  0.00     0.382 C 
ATOM     23  O   LIG d   1      -0.591  90.881 117.047  0.00  0.00    -0.241 OA
ATOM     24  O   LIG d   1      -1.571  89.176 117.939  0.00  0.00    -0.241 OA
ENDBRANCH   3  22
TORSDOF 7
ENDMDL
MODEL 3
REMARK VINA RESULT:      -4.8      2.549      4.638
REMARK  7 active torsions:
REMARK  status: ('A' for Active; 'I' for Inactive)
REMARK    1  A    between atoms: C_2  and  C_3 
REMARK    2  A    between atoms: C_3  and  O_6 
REMARK    3  A    between atoms: C_3  and  C_4 
REMARK    4  A    between atoms: C_7  and  O_6 
REMARK    5  A    between atoms: C_9  and  C_10 
REMARK    6  A    between atoms: N_15  and  C_14 
REMARK    7  A    between atoms: N_20  and  C_19 
REMARK       I    between atoms: C_22  and  N_20 
ROOT
ATOM      1  C   LIG d   1      -4.726  92.234 117.734  0.00  0.00     0.161 C 
ATOM      2  C   LIG d   1      -4.821  93.322 118.617  0.00  0.00     0.016 C 
ATOM      3  C   LIG d   1      -5.937  94.190 118.666  0.00  0.00     0.038 C 
ATOM      4  C   LIG d   1      -7.106  93.935 117.935  0.00  0.00     0.028 C 
ATOM      5  C   LIG d   1      -6.861  93.137 116.659  0.00  0.00    -0.047 C 
ATOM      6  C   LIG d   1      -6.039  91.875 117.007  0.00  0.00     0.091 C 
ENDROOT
BRANCH   1   7
ATOM      7  O   LIG d   1      -4.209  91.083 118.430  0.00  0.00    -0.368 OA
BRANCH   7   8
ATOM      8  C   LIG d   1      -2.874  90.660 118.058  0.00  0.00     0.119 C 
BRANCH   8   9
ATOM      9  C   LIG d   1      -2.786  89.141 118.301  0.00  0.00     0.028 C 
ATOM     10  C   LIG d   1      -1.363  88.595 118.096  0.00  0.00     0.006 C 
ENDBRANCH   8   9
BRANCH   8  11
ATOM     11  C   LIG d   1      -1.817  91.279 118.976  0.00  0.00     0.028 C 
ATOM     12  C   LIG d   1      -0.981  92.363 118.276  0.00  0.00     0.006 C 
ENDBRANCH   8  11
ENDBRANCH   7   8
ENDBRANCH   1   7
BRANCH   6  13
ATOM     13  N   LIG d   1      -5.683  91.080 115.802  0.00  0.00    -0.311 N 
ATOM     14  C   LIG d   1      -6.373  90.016 115.396  0.00  0.00     0.210 C 
ATOM     15  C   LIG d   1      -5.824  89.329 114.142  0.00  0.00     0.109 C 
ATOM     16  O   LIG d   1      -7.406  89.594 115.937  0.00  0.00    -0.276 OA
ATOM     17  H   LIG d   1      -4.877  91.372 115.285  0.00  0.00     0.149 HD
ENDBRANCH   6  13
BRANCH   5  18
ATOM     18  N   LIG d   1      -8.177  92.825 116.069  0.00  0.00     0.381 N 
ATOM     19  H   LIG d   1      -8.249  93.243 115.162  0.00  0.00    -0.090 HD
ATOM     20  H   LIG d   1      -8.896  93.214 116.653  0.00  0.00    -0.090 HD
ATOM     21  H   LIG d   1      -8.294  91.838 115.997  0.00  0.00    -0.090 HD
ENDBRANCH   5  18
BRANCH   3  22
ATOM     22  C   LIG d   1      -5.873  95.349 119.424  0.00  0.00     0.382 C 
ATOM     23  O   LIG d   1      -6.919  95.998 119.666  0.00  0.00    -0.241 OA
ATOM     24  O   LIG d   1      -4.777  95.777 119.832  0.00  0.00    -0.241 OA
ENDBRANCH   3  22
TORSDOF 7
ENDMDL
MODEL 4
REMARK VINA RESULT:      -4.7      3.002      4.411
REMARK  7 active torsions:
REMARK  status: ('A' for Active; 'I' for Inactive)
REMARK    1  A    between atoms: C_2  and  C_3 
REMARK    2  A    between atoms: C_3  and  O_6 
REMARK    3  A    between atoms: C_3  and  C_4 
REMARK    4  A    between atoms: C_7  and  O_6 
REMARK    5  A    between atoms: C_9  and  C_10 
REMARK    6  A    between atoms: N_15  and  C_14 
REMARK    7  A    between atoms: N_20  and  C_19 
REMARK       I    between atoms: C_22  and  N_20 
ROOT
ATOM      1  C   LIG d   1      -4.900  91.282 117.530  0.00  0.00     0.161 C 
ATOM      2  C   LIG d   1      -5.837  90.532 116.801  0.00  0.00     0.016 C 
ATOM      3  C   LIG d   1      -7.060  91.062 116.329  0.00  0.00     0.038 C 
ATOM      4  C   LIG d   1      -7.361  92.429 116.423  0.00  0.00     0.028 C 
ATOM      5  C   LIG d   1      -6.672  93.122 117.594  0.00  0.00    -0.047 C 
ATOM      6  C   LIG d   1      -5.160  92.803 117.546  0.00  0.00     0.091 C 
ENDROOT
BRANCH   1   7
ATOM      7  O   LIG d   1      -3.571  91.006 117.045  0.00  0.00    -0.368 OA
BRANCH   7   8
ATOM      8  C   LIG d   1      -2.649  90.430 118.003  0.00  0.00     0.119 C 
BRANCH   8   9
ATOM      9  C   LIG d   1      -1.222  90.797 117.552  0.00  0.00     0.028 C 
ATOM     10  C   LIG d   1      -0.377  91.383 118.696  0.00  0.00     0.006 C 
ENDBRANCH   8   9
BRANCH   8  11
ATOM     11  C   LIG d   1      -2.702  88.900 117.976  0.00  0.00     0.028 C 
ATOM     12  C   LIG d   1      -2.318  88.266 119.323  0.00  0.00     0.006 C 
ENDBRANCH   8  11
ENDBRANCH   7   8
ENDBRANCH   1   7
BRANCH   6  13
ATOM     13  N   LIG d   1      -4.424  93.373 118.705  0.00  0.00    -0.311 N 
ATOM     14  C   LIG d   1      -3.205  93.902 118.611  0.00  0.00     0.210 C 
ATOM     15  C   LIG d   1      -2.619  94.414 119.930  0.00  0.00     0.109 C 
ATOM     16  O   LIG d   1      -2.567  94.024 117.554  0.00  0.00    -0.276 OA
ATOM     17  H   LIG d   1      -4.881  93.343 119.595  0.00  0.00     0.149 HD
ENDBRANCH   6  13
BRANCH   5  18
ATOM     18  N   LIG d   1      -6.962  94.564 117.492  0.00  0.00     0.381 N 
ATOM     19  H   LIG d   1      -6.303  95.000 116.877  0.00  0.00    -0.090 HD
ATOM     20  H   LIG d   1      -6.867  94.980 118.401  0.00  0.00    -0.090 HD
ATOM     21  H   LIG d   1      -7.887  94.703 117.150  0.00  0.00    -0.090 HD
ENDBRANCH   5  18
BRANCH   3  22
ATOM     22  C   LIG d   1      -8.014  90.213 115.789  0.00  0.00     0.382 C 
ATOM     23  O   LIG d   1      -8.199  89.078 116.290  0.00  0.00    -0.241 OA
ATOM     24  O   LIG d   1      -8.662  90.551 114.780  0.00  0.00    -0.241 OA
ENDBRANCH   3  22
TORSDOF 7
ENDMDL
MODEL 5
REMARK VINA RESULT:      -4.7      1.936      2.766
REMARK  7 active torsions:
REMARK  status: ('A' for Active; 'I' for Inactive)
REMARK    1  A    between atoms: C_2  and  C_3 
REMARK    2  A    between atoms: C_3  and  O_6 
REMARK    3  A    between atoms: C_3  and  C_4 
REMARK    4  A    between atoms: C_7  and  O_6 
REMARK    5  A    between atoms: C_9  and  C_10 
REMARK    6  A    between atoms: N_15  and  C_14 
REMARK    7  A    between atoms: N_20  and  C_19 
REMARK       I    between atoms: C_22  and  N_20 
ROOT
ATOM      1  C   LIG d   1      -6.553  91.460 118.173  0.00  0.00     0.161 C 
ATOM      2  C   LIG d   1      -7.334  92.628 118.143  0.00  0.00     0.016 C 
ATOM      3  C   LIG d   1      -6.813  93.918 118.396  0.00  0.00     0.038 C 
ATOM      4  C   LIG d   1      -5.438  94.146 118.549  0.00  0.00     0.028 C 
ATOM      5  C   LIG d   1      -4.680  92.937 119.088  0.00  0.00    -0.047 C 
ATOM      6  C   LIG d   1      -5.030  91.701 118.228  0.00  0.00     0.091 C 
ENDROOT
BRANCH   1   7
ATOM      7  O   LIG d   1      -6.887  90.621 117.050  0.00  0.00    -0.368 OA
BRANCH   7   8
ATOM      8  C   LIG d   1      -7.339  91.305 115.855  0.00  0.00     0.119 C 
BRANCH   8   9
ATOM      9  C   LIG d   1      -8.589  90.565 115.342  0.00  0.00     0.028 C 
ATOM     10  C   LIG d   1      -8.854  89.259 116.110  0.00  0.00     0.006 C 
ENDBRANCH   8   9
BRANCH   8  11
ATOM     11  C   LIG d   1      -6.310  91.192 114.726  0.00  0.00     0.028 C 
ATOM     12  C   LIG d   1      -5.703  89.785 114.611  0.00  0.00     0.006 C 
ENDBRANCH   8  11
ENDBRANCH   7   8
ENDBRANCH   1   7
BRANCH   6  13
ATOM     13  N   LIG d   1      -4.397  90.458 118.739  0.00  0.00    -0.311 N 
ATOM     14  C   LIG d   1      -3.189  90.042 118.360  0.00  0.00     0.210 C 
ATOM     15  C   LIG d   1      -2.732  88.723 118.992  0.00  0.00     0.109 C 
ATOM     16  O   LIG d   1      -2.440  90.656 117.586  0.00  0.00    -0.276 OA
ATOM     17  H   LIG d   1      -4.922  89.914 119.395  0.00  0.00     0.149 HD
ENDBRANCH   6  13
BRANCH   5  18
ATOM     18  N   LIG d   1      -3.242  93.267 119.067  0.00  0.00     0.381 N 
ATOM     19  H   LIG d   1      -2.720  92.535 119.505  0.00  0.00    -0.090 HD
ATOM     20  H   LIG d   1      -3.096  94.114 119.589  0.00  0.00    -0.090 HD
ATOM     21  H   LIG d   1      -2.934  93.389 118.128  0.00  0.00    -0.090 HD
ENDBRANCH   5  18
BRANCH   3  22
ATOM     22  C   LIG d   1      -7.679  94.992 118.539  0.00  0.00     0.382 C 
ATOM     23  O   LIG d   1      -8.919  94.804 118.529  0.00  0.00    -0.241 OA
ATOM     24  O   LIG d   1      -7.235  96.153 118.632  0.00  0.00    -0.241 OA
ENDBRANCH   3  22
TORSDOF 7
ENDMDL
MODEL 6
REMARK VINA RESULT:      -4.6      3.297      5.500
REMARK  7 active torsions:
REMARK  status: ('A' for Active; 'I' for Inactive)
REMARK    1  A    between atoms: C_2  and  C_3 
REMARK    2  A    between atoms: C_3  and  O_6 
REMARK    3  A    between atoms: C_3  and  C_4 
REMARK    4  A    between atoms: C_7  and  O_6 
REMARK    5  A    between atoms: C_9  and  C_10 
REMARK    6  A    between atoms: N_15  and  C_14 
REMARK    7  A    between atoms: N_20  and  C_19 
REMARK       I    between atoms: C_22  and  N_20 
ROOT
ATOM      1  C   LIG d   1      -1.874  91.141 118.067  0.00  0.00     0.161 C 
ATOM      2  C   LIG d   1      -3.132  90.683 117.639  0.00  0.00     0.016 C 
ATOM      3  C   LIG d   1      -4.263  91.522 117.511  0.00  0.00     0.038 C 
ATOM      4  C   LIG d   1      -4.174  92.914 117.659  0.00  0.00     0.028 C 
ATOM      5  C   LIG d   1      -3.043  93.354 118.582  0.00  0.00    -0.047 C 
ATOM      6  C   LIG d   1      -1.731  92.676 118.126  0.00  0.00     0.091 C 
ENDROOT
BRANCH   1   7
ATOM      7  O   LIG d   1      -0.840  90.572 117.239  0.00  0.00    -0.368 OA
BRANCH   7   8
ATOM      8  C   LIG d   1       0.079  89.668 117.900  0.00  0.00     0.119 C 
BRANCH   8   9
ATOM      9  C   LIG d   1       1.446  89.806 117.202  0.00  0.00     0.028 C 
ATOM     10  C   LIG d   1       2.503  90.461 118.108  0.00  0.00     0.006 C 
ENDBRANCH   8   9
BRANCH   8  11
ATOM     11  C   LIG d   1      -0.334  88.207 117.696  0.00  0.00     0.028 C 
ATOM     12  C   LIG d   1      -0.339  87.401 119.004  0.00  0.00     0.006 C 
ENDBRANCH   8  11
ENDBRANCH   7   8
ENDBRANCH   1   7
BRANCH   6  13
ATOM     13  N   LIG d   1      -0.589  92.987 119.025  0.00  0.00    -0.311 N 
ATOM     14  C   LIG d   1       0.537  93.563 118.609  0.00  0.00     0.210 C 
ATOM     15  C   LIG d   1       1.595  93.776 119.696  0.00  0.00     0.109 C 
ATOM     16  O   LIG d   1       0.748  93.946 117.448  0.00  0.00    -0.276 OA
ATOM     17  H   LIG d   1      -0.688  92.737 119.990  0.00  0.00     0.149 HD
ENDBRANCH   6  13
BRANCH   5  18
ATOM     18  N   LIG d   1      -2.978  94.827 118.537  0.00  0.00     0.381 N 
ATOM     19  H   LIG d   1      -2.578  95.175 119.385  0.00  0.00    -0.090 HD
ATOM     20  H   LIG d   1      -3.911  95.191 118.456  0.00  0.00    -0.090 HD
ATOM     21  H   LIG d   1      -2.431  95.121 117.758  0.00  0.00    -0.090 HD
ENDBRANCH   5  18
BRANCH   3  22
ATOM     22  C   LIG d   1      -5.509  90.963 117.272  0.00  0.00     0.382 C 
ATOM     23  O   LIG d   1      -5.651  90.117 116.357  0.00  0.00    -0.241 OA
ATOM     24  O   LIG d   1      -6.502  91.328 117.929  0.00  0.00    -0.241 OA
ENDBRANCH   3  22
TORSDOF 7
ENDMDL
MODEL 7
REMARK VINA RESULT:      -4.4      3.428      5.164
REMARK  7 active torsions:
REMARK  status: ('A' for Active; 'I' for Inactive)
REMARK    1  A    between atoms: C_2  and  C_3 
REMARK    2  A    between atoms: C_3  and  O_6 
REMARK    3  A    between atoms: C_3  and  C_4 
REMARK    4  A    between atoms: C_7  and  O_6 
REMARK    5  A    between atoms: C_9  and  C_10 
REMARK    6  A    between atoms: N_15  and  C_14 
REMARK    7  A    between atoms: N_20  and  C_19 
REMARK       I    between atoms: C_22  and  N_20 
ROOT
ATOM      1  C   LIG d   1      -2.632  92.919 118.343  0.00  0.00     0.161 C 
ATOM      2  C   LIG d   1      -2.794  94.311 118.441  0.00  0.00     0.016 C 
ATOM      3  C   LIG d   1      -1.714  95.223 118.425  0.00  0.00     0.038 C 
ATOM      4  C   LIG d   1      -0.400  94.812 118.158  0.00  0.00     0.028 C 
ATOM      5  C   LIG d   1      -0.125  93.366 118.555  0.00  0.00    -0.047 C 
ATOM      6  C   LIG d   1      -1.215  92.460 117.939  0.00  0.00     0.091 C 
ENDROOT
BRANCH   1   7
ATOM      7  O   LIG d   1      -3.612  92.375 117.438  0.00  0.00    -0.368 OA
BRANCH   7   8
ATOM      8  C   LIG d   1      -4.999  92.642 117.764  0.00  0.00     0.119 C 
BRANCH   8   9
ATOM      9  C   LIG d   1      -5.383  91.722 118.939  0.00  0.00     0.028 C 
ATOM     10  C   LIG d   1      -6.493  92.324 119.817  0.00  0.00     0.006 C 
ENDBRANCH   8   9
BRANCH   8  11
ATOM     11  C   LIG d   1      -5.928  92.243 116.615  0.00  0.00     0.028 C 
ATOM     12  C   LIG d   1      -5.589  90.865 116.025  0.00  0.00     0.006 C 
ENDBRANCH   8  11
ENDBRANCH   7   8
ENDBRANCH   1   7
BRANCH   6  13
ATOM     13  N   LIG d   1      -1.069  91.039 118.348  0.00  0.00    -0.311 N 
ATOM     14  C   LIG d   1      -0.339  90.152 117.673  0.00  0.00     0.210 C 
ATOM     15  C   LIG d   1      -0.340  88.736 118.256  0.00  0.00     0.109 C 
ATOM     16  O   LIG d   1       0.334  90.413 116.665  0.00  0.00    -0.276 OA
ATOM     17  H   LIG d   1      -1.558  90.749 119.173  0.00  0.00     0.149 HD
ENDBRANCH   6  13
BRANCH   5  18
ATOM     18  N   LIG d   1       1.235  93.028 118.096  0.00  0.00     0.381 N 
ATOM     19  H   LIG d   1       1.775  93.864 117.991  0.00  0.00    -0.090 HD
ATOM     20  H   LIG d   1       1.173  92.578 117.199  0.00  0.00    -0.090 HD
ATOM     21  H   LIG d   1       1.676  92.420 118.751  0.00  0.00    -0.090 HD
ENDBRANCH   5  18
BRANCH   3  22
ATOM     22  C   LIG d   1      -1.939  96.560 118.719  0.00  0.00     0.382 C 
ATOM     23  O   LIG d   1      -0.994  97.383 118.655  0.00  0.00    -0.241 OA
ATOM     24  O   LIG d   1      -3.064  96.944 119.091  0.00  0.00    -0.241 OA
ENDBRANCH   3  22
TORSDOF 7
ENDMDL
MODEL 8
REMARK VINA RESULT:      -4.4      5.393      7.840
REMARK  7 active torsions:
REMARK  status: ('A' for Active; 'I' for Inactive)
REMARK    1  A    between atoms: C_2  and  C_3 
REMARK    2  A    between atoms: C_3  and  O_6 
REMARK    3  A    between atoms: C_3  and  C_4 
REMARK    4  A    between atoms: C_7  and  O_6 
REMARK    5  A    between atoms: C_9  and  C_10 
REMARK    6  A    between atoms: N_15  and  C_14 
REMARK    7  A    between atoms: N_20  and  C_19 
REMARK       I    between atoms: C_22  and  N_20 
ROOT
ATOM      1  C   LIG d   1       0.580  90.031 117.812  0.00  0.00     0.161 C 
ATOM      2  C   LIG d   1      -0.726  89.516 117.757  0.00  0.00     0.016 C 
ATOM      3  C   LIG d   1      -1.844  90.166 118.331  0.00  0.00     0.038 C 
ATOM      4  C   LIG d   1      -1.753  91.456 118.873  0.00  0.00     0.028 C 
ATOM      5  C   LIG d   1      -0.364  91.796 119.401  0.00  0.00    -0.047 C 
ATOM      6  C   LIG d   1       0.679  91.491 118.302  0.00  0.00     0.091 C 
ENDROOT
BRANCH   1   7
ATOM      7  O   LIG d   1       1.216  89.889 116.527  0.00  0.00    -0.368 OA
BRANCH   7   8
ATOM      8  C   LIG d   1       2.409  89.068 116.494  0.00  0.00     0.119 C 
BRANCH   8   9
ATOM      9  C   LIG d   1       3.289  89.577 115.335  0.00  0.00     0.028 C 
ATOM     10  C   LIG d   1       4.706  89.957 115.798  0.00  0.00     0.006 C 
ENDBRANCH   8   9
BRANCH   8  11
ATOM     11  C   LIG d   1       2.076  87.615 116.142  0.00  0.00     0.028 C 
ATOM     12  C   LIG d   1       2.431  87.257 114.690  0.00  0.00     0.006 C 
ENDBRANCH   8  11
ENDBRANCH   7   8
ENDBRANCH   1   7
BRANCH   6  13
ATOM     13  N   LIG d   1       2.073  91.716 118.765  0.00  0.00    -0.311 N 
ATOM     14  C   LIG d   1       2.987  92.369 118.050  0.00  0.00     0.210 C 
ATOM     15  C   LIG d   1       4.369  92.471 118.705  0.00  0.00     0.109 C 
ATOM     16  O   LIG d   1       2.776  92.902 116.950  0.00  0.00    -0.276 OA
ATOM     17  H   LIG d   1       2.322  91.344 119.661  0.00  0.00     0.149 HD
ENDBRANCH   6  13
BRANCH   5  18
ATOM     18  N   LIG d   1      -0.376  93.214 119.809  0.00  0.00     0.381 N 
ATOM     19  H   LIG d   1      -0.022  93.301 120.740  0.00  0.00    -0.090 HD
ATOM     20  H   LIG d   1      -1.324  93.546 119.800  0.00  0.00    -0.090 HD
ATOM     21  H   LIG d   1       0.179  93.754 119.182  0.00  0.00    -0.090 HD
ENDBRANCH   5  18
BRANCH   3  22
ATOM     22  C   LIG d   1      -3.060  89.505 118.403  0.00  0.00     0.382 C 
ATOM     23  O   LIG d   1      -4.038  89.916 117.732  0.00  0.00    -0.241 OA
ATOM     24  O   LIG d   1      -3.206  88.529 119.163  0.00  0.00    -0.241 OA
ENDBRANCH   3  22
TORSDOF 7
ENDMDL
MODEL 9
REMARK VINA RESULT:      -4.3      9.661     12.046
REMARK  7 active torsions:
REMARK  status: ('A' for Active; 'I' for Inactive)
REMARK    1  A    between atoms: C_2  and  C_3 
REMARK    2  A    between atoms: C_3  and  O_6 
REMARK    3  A    between atoms: C_3  and  C_4 
REMARK    4  A    between atoms: C_7  and  O_6 
REMARK    5  A    between atoms: C_9  and  C_10 
REMARK    6  A    between atoms: N_15  and  C_14 
REMARK    7  A    between atoms: N_20  and  C_19 
REMARK       I    between atoms: C_22  and  N_20 
ROOT
ATOM      1  C   LIG d   1       3.980  89.902 115.087  0.00  0.00     0.161 C 
ATOM      2  C   LIG d   1       3.106  89.188 114.251  0.00  0.00     0.016 C 
ATOM      3  C   LIG d   1       3.166  87.786 114.078  0.00  0.00     0.038 C 
ATOM      4  C   LIG d   1       4.015  86.979 114.850  0.00  0.00     0.028 C 
ATOM      5  C   LIG d   1       5.263  87.706 115.338  0.00  0.00    -0.047 C 
ATOM      6  C   LIG d   1       4.840  89.026 116.022  0.00  0.00     0.091 C 
ENDROOT
BRANCH   1   7
ATOM      7  O   LIG d   1       3.241  90.875 115.851  0.00  0.00    -0.368 OA
BRANCH   7   8
ATOM      8  C   LIG d   1       2.937  90.513 117.220  0.00  0.00     0.119 C 
BRANCH   8   9
ATOM      9  C   LIG d   1       1.479  90.015 117.255  0.00  0.00     0.028 C 
ATOM     10  C   LIG d   1       1.381  88.503 117.518  0.00  0.00     0.006 C 
ENDBRANCH   8   9
BRANCH   8  11
ATOM     11  C   LIG d   1       2.969  91.736 118.140  0.00  0.00     0.028 C 
ATOM     12  C   LIG d   1       4.139  92.684 117.831  0.00  0.00     0.006 C 
ENDBRANCH   8  11
ENDBRANCH   7   8
ENDBRANCH   1   7
BRANCH   6  13
ATOM     13  N   LIG d   1       6.006  89.840 116.455  0.00  0.00    -0.311 N 
ATOM     14  C   LIG d   1       6.522  89.789 117.682  0.00  0.00     0.210 C 
ATOM     15  C   LIG d   1       7.710  90.725 117.923  0.00  0.00     0.109 C 
ATOM     16  O   LIG d   1       6.128  89.033 118.583  0.00  0.00    -0.276 OA
ATOM     17  H   LIG d   1       6.407  90.458 115.777  0.00  0.00     0.149 HD
ENDBRANCH   6  13
BRANCH   5  18
ATOM     18  N   LIG d   1       5.987  86.793 116.243  0.00  0.00     0.381 N 
ATOM     19  H   LIG d   1       5.351  86.122 116.626  0.00  0.00    -0.090 HD
ATOM     20  H   LIG d   1       6.378  87.326 116.999  0.00  0.00    -0.090 HD
ATOM     21  H   LIG d   1       6.713  86.326 115.746  0.00  0.00    -0.090 HD
ENDBRANCH   5  18
BRANCH   3  22
ATOM     22  C   LIG d   1       2.399  87.181 113.093  0.00  0.00     0.382 C 
ATOM     23  O   LIG d   1       2.564  85.966 112.828  0.00  0.00    -0.241 OA
ATOM     24  O   LIG d   1       1.576  87.846 112.436  0.00  0.00    -0.241 OA
ENDBRANCH   3  22
TORSDOF 7
ENDMDL
