MODEL 1
REMARK VINA RESULT:      -5.1      0.000      0.000
REMARK  7 active torsions:
REMARK  status: ('A' for Active; 'I' for Inactive)
REMARK    1  A    between atoms: C_2  and  C_3 
REMARK    2  A    between atoms: C_3  and  O_6 
REMARK    3  A    between atoms: C_3  and  C_4 
REMARK    4  A    between atoms: C_7  and  O_6 
REMARK    5  A    between atoms: C_9  and  C_10 
REMARK    6  A    between atoms: N_15  and  C_14 
REMARK    7  A    between atoms: N_20  and  C_19 
REMARK       I    between atoms: C_22  and  N_20 
ROOT
ATOM      1  C   LIG d   1      -2.274  89.855 117.821  0.00  0.00     0.161 C 
ATOM      2  C   LIG d   1      -3.571  89.613 117.339  0.00  0.00     0.016 C 
ATOM      3  C   LIG d   1      -4.510  90.639 117.082  0.00  0.00     0.038 C 
ATOM      4  C   LIG d   1      -4.161  91.996 117.147  0.00  0.00     0.028 C 
ATOM      5  C   LIG d   1      -3.017  92.282 118.114  0.00  0.00    -0.047 C 
ATOM      6  C   LIG d   1      -1.839  91.335 117.792  0.00  0.00     0.091 C 
ENDROOT
BRANCH   1   7
ATOM      7  O   LIG d   1      -1.327  89.040 117.103  0.00  0.00    -0.368 OA
BRANCH   7   8
ATOM      8  C   LIG d   1      -1.303  87.634 117.451  0.00  0.00     0.119 C 
BRANCH   8   9
ATOM      9  C   LIG d   1      -0.881  87.530 118.930  0.00  0.00     0.028 C 
ATOM     10  C   LIG d   1      -1.890  86.731 119.773  0.00  0.00     0.006 C 
ENDBRANCH   8   9
BRANCH   8  11
ATOM     11  C   LIG d   1      -0.222  86.884 116.667  0.00  0.00     0.028 C 
ATOM     12  C   LIG d   1       1.196  87.167 117.188  0.00  0.00     0.006 C 
ENDBRANCH   8  11
ENDBRANCH   7   8
ENDBRANCH   1   7
BRANCH   6  13
ATOM     13  N   LIG d   1      -0.709  91.491 118.745  0.00  0.00    -0.311 N 
ATOM     14  C   LIG d   1       0.365  92.236 118.493  0.00  0.00     0.210 C 
ATOM     15  C   LIG d   1       1.422  92.244 119.602  0.00  0.00     0.109 C 
ATOM     16  O   LIG d   1       0.529  92.918 117.470  0.00  0.00    -0.276 OA
ATOM     17  H   LIG d   1      -0.774  90.997 119.613  0.00  0.00     0.149 HD
ENDBRANCH   6  13
BRANCH   5  18
ATOM     18  N   LIG d   1      -2.666  93.708 117.980  0.00  0.00     0.381 N 
ATOM     19  H   LIG d   1      -1.706  93.845 118.224  0.00  0.00    -0.090 HD
ATOM     20  H   LIG d   1      -3.232  94.244 118.615  0.00  0.00    -0.090 HD
ATOM     21  H   LIG d   1      -2.825  94.012 117.044  0.00  0.00    -0.090 HD
ENDBRANCH   5  18
BRANCH   3  22
ATOM     22  C   LIG d   1      -5.826  90.310 116.795  0.00  0.00     0.382 C 
ATOM     23  O   LIG d   1      -6.691  91.214 116.698  0.00  0.00    -0.241 OA
ATOM     24  O   LIG d   1      -6.168  89.118 116.675  0.00  0.00    -0.241 OA
ENDBRANCH   3  22
TORSDOF 7
ENDMDL
MODEL 2
REMARK VINA RESULT:      -5.1      1.778      2.679
REMARK  7 active torsions:
REMARK  status: ('A' for Active; 'I' for Inactive)
REMARK    1  A    between atoms: C_2  and  C_3 
REMARK    2  A    between atoms: C_3  and  O_6 
REMARK    3  A    between atoms: C_3  and  C_4 
REMARK    4  A    between atoms: C_7  and  O_6 
REMARK    5  A    between atoms: C_9  and  C_10 
REMARK    6  A    between atoms: N_15  and  C_14 
REMARK    7  A    between atoms: N_20  and  C_19 
REMARK       I    between atoms: C_22  and  N_20 
ROOT
ATOM      1  C   LIG d   1      -4.089  90.663 117.382  0.00  0.00     0.161 C 
ATOM      2  C   LIG d   1      -5.009  89.937 116.607  0.00  0.00     0.016 C 
ATOM      3  C   LIG d   1      -6.218  90.485 116.120  0.00  0.00     0.038 C 
ATOM      4  C   LIG d   1      -6.519  91.849 116.248  0.00  0.00     0.028 C 
ATOM      5  C   LIG d   1      -5.859  92.504 117.456  0.00  0.00    -0.047 C 
ATOM      6  C   LIG d   1      -4.347  92.183 117.438  0.00  0.00     0.091 C 
ENDROOT
BRANCH   1   7
ATOM      7  O   LIG d   1      -2.748  90.399 116.923  0.00  0.00    -0.368 OA
BRANCH   7   8
ATOM      8  C   LIG d   1      -1.922  89.592 117.798  0.00  0.00     0.119 C 
BRANCH   8   9
ATOM      9  C   LIG d   1      -0.457  90.013 117.570  0.00  0.00     0.028 C 
ATOM     10  C   LIG d   1       0.199  90.567 118.846  0.00  0.00     0.006 C 
ENDBRANCH   8   9
BRANCH   8  11
ATOM     11  C   LIG d   1      -1.983  88.111 117.411  0.00  0.00     0.028 C 
ATOM     12  C   LIG d   1      -0.617  87.551 116.982  0.00  0.00     0.006 C 
ENDBRANCH   8  11
ENDBRANCH   7   8
ENDBRANCH   1   7
BRANCH   6  13
ATOM     13  N   LIG d   1      -3.640  92.716 118.632  0.00  0.00    -0.311 N 
ATOM     14  C   LIG d   1      -2.428  93.267 118.581  0.00  0.00     0.210 C 
ATOM     15  C   LIG d   1      -1.873  93.734 119.930  0.00  0.00     0.109 C 
ATOM     16  O   LIG d   1      -1.774  93.442 117.542  0.00  0.00    -0.276 OA
ATOM     17  H   LIG d   1      -4.112  92.643 119.512  0.00  0.00     0.149 HD
ENDBRANCH   6  13
BRANCH   5  18
ATOM     18  N   LIG d   1      -6.145  93.950 117.391  0.00  0.00     0.381 N 
ATOM     19  H   LIG d   1      -5.387  94.424 116.942  0.00  0.00    -0.090 HD
ATOM     20  H   LIG d   1      -6.231  94.307 118.326  0.00  0.00    -0.090 HD
ATOM     21  H   LIG d   1      -6.990  94.108 116.888  0.00  0.00    -0.090 HD
ENDBRANCH   5  18
BRANCH   3  22
ATOM     22  C   LIG d   1      -7.159  89.655 115.530  0.00  0.00     0.382 C 
ATOM     23  O   LIG d   1      -7.335  89.688 114.289  0.00  0.00    -0.241 OA
ATOM     24  O   LIG d   1      -7.866  88.904 116.230  0.00  0.00    -0.241 OA
ENDBRANCH   3  22
TORSDOF 7
ENDMDL
MODEL 3
REMARK VINA RESULT:      -5.0      3.236      5.298
REMARK  7 active torsions:
REMARK  status: ('A' for Active; 'I' for Inactive)
REMARK    1  A    between atoms: C_2  and  C_3 
REMARK    2  A    between atoms: C_3  and  O_6 
REMARK    3  A    between atoms: C_3  and  C_4 
REMARK    4  A    between atoms: C_7  and  O_6 
REMARK    5  A    between atoms: C_9  and  C_10 
REMARK    6  A    between atoms: N_15  and  C_14 
REMARK    7  A    between atoms: N_20  and  C_19 
REMARK       I    between atoms: C_22  and  N_20 
ROOT
ATOM      1  C   LIG d   1      -5.469  92.571 116.668  0.00  0.00     0.161 C 
ATOM      2  C   LIG d   1      -6.499  91.729 116.218  0.00  0.00     0.016 C 
ATOM      3  C   LIG d   1      -6.356  90.329 116.083  0.00  0.00     0.038 C 
ATOM      4  C   LIG d   1      -5.214  89.653 116.536  0.00  0.00     0.028 C 
ATOM      5  C   LIG d   1      -3.957  90.516 116.529  0.00  0.00    -0.047 C 
ATOM      6  C   LIG d   1      -4.252  91.839 117.273  0.00  0.00     0.091 C 
ENDROOT
BRANCH   1   7
ATOM      7  O   LIG d   1      -5.996  93.527 117.609  0.00  0.00    -0.368 OA
BRANCH   7   8
ATOM      8  C   LIG d   1      -5.652  93.309 119.000  0.00  0.00     0.119 C 
BRANCH   8   9
ATOM      9  C   LIG d   1      -6.836  92.575 119.660  0.00  0.00     0.028 C 
ATOM     10  C   LIG d   1      -6.535  91.090 119.919  0.00  0.00     0.006 C 
ENDBRANCH   8   9
BRANCH   8  11
ATOM     11  C   LIG d   1      -5.524  94.634 119.757  0.00  0.00     0.028 C 
ATOM     12  C   LIG d   1      -6.195  95.807 119.023  0.00  0.00     0.006 C 
ENDBRANCH   8  11
ENDBRANCH   7   8
ENDBRANCH   1   7
BRANCH   6  13
ATOM     13  N   LIG d   1      -3.101  92.777 117.240  0.00  0.00    -0.311 N 
ATOM     14  C   LIG d   1      -2.161  92.819 118.183  0.00  0.00     0.210 C 
ATOM     15  C   LIG d   1      -1.073  93.875 117.966  0.00  0.00     0.109 C 
ATOM     16  O   LIG d   1      -2.109  92.059 119.162  0.00  0.00    -0.276 OA
ATOM     17  H   LIG d   1      -3.048  93.408 116.464  0.00  0.00     0.149 HD
ENDBRANCH   6  13
BRANCH   5  18
ATOM     18  N   LIG d   1      -2.874  89.732 117.153  0.00  0.00     0.381 N 
ATOM     19  H   LIG d   1      -2.027  90.264 117.153  0.00  0.00    -0.090 HD
ATOM     20  H   LIG d   1      -2.723  88.899 116.612  0.00  0.00    -0.090 HD
ATOM     21  H   LIG d   1      -3.123  89.490 118.087  0.00  0.00    -0.090 HD
ENDBRANCH   5  18
BRANCH   3  22
ATOM     22  C   LIG d   1      -7.349  89.594 115.452  0.00  0.00     0.382 C 
ATOM     23  O   LIG d   1      -8.112  88.862 116.127  0.00  0.00    -0.241 OA
ATOM     24  O   LIG d   1      -7.462  89.620 114.211  0.00  0.00    -0.241 OA
ENDBRANCH   3  22
TORSDOF 7
ENDMDL
MODEL 4
REMARK VINA RESULT:      -4.8      1.490      4.838
REMARK  7 active torsions:
REMARK  status: ('A' for Active; 'I' for Inactive)
REMARK    1  A    between atoms: C_2  and  C_3 
REMARK    2  A    between atoms: C_3  and  O_6 
REMARK    3  A    between atoms: C_3  and  C_4 
REMARK    4  A    between atoms: C_7  and  O_6 
REMARK    5  A    between atoms: C_9  and  C_10 
REMARK    6  A    between atoms: N_15  and  C_14 
REMARK    7  A    between atoms: N_20  and  C_19 
REMARK       I    between atoms: C_22  and  N_20 
ROOT
ATOM      1  C   LIG d   1      -1.573  90.080 117.207  0.00  0.00     0.161 C 
ATOM      2  C   LIG d   1      -0.449  90.547 117.910  0.00  0.00     0.016 C 
ATOM      3  C   LIG d   1      -0.427  91.770 118.619  0.00  0.00     0.038 C 
ATOM      4  C   LIG d   1      -1.584  92.543 118.799  0.00  0.00     0.028 C 
ATOM      5  C   LIG d   1      -2.612  92.365 117.687  0.00  0.00    -0.047 C 
ATOM      6  C   LIG d   1      -2.877  90.856 117.485  0.00  0.00     0.091 C 
ENDROOT
BRANCH   1   7
ATOM      7  O   LIG d   1      -1.761  88.675 117.464  0.00  0.00    -0.368 OA
BRANCH   7   8
ATOM      8  C   LIG d   1      -0.593  87.949 117.922  0.00  0.00     0.119 C 
BRANCH   8   9
ATOM      9  C   LIG d   1      -0.108  87.069 116.753  0.00  0.00     0.028 C 
ATOM     10  C   LIG d   1       0.934  86.028 117.196  0.00  0.00     0.006 C 
ENDBRANCH   8   9
BRANCH   8  11
ATOM     11  C   LIG d   1      -0.950  86.970 119.044  0.00  0.00     0.028 C 
ATOM     12  C   LIG d   1      -2.291  87.300 119.719  0.00  0.00     0.006 C 
ENDBRANCH   8  11
ENDBRANCH   7   8
ENDBRANCH   1   7
BRANCH   6  13
ATOM     13  N   LIG d   1      -3.808  90.589 116.358  0.00  0.00    -0.311 N 
ATOM     14  C   LIG d   1      -4.954  89.924 116.494  0.00  0.00     0.210 C 
ATOM     15  C   LIG d   1      -5.754  89.743 115.201  0.00  0.00     0.109 C 
ATOM     16  O   LIG d   1      -5.399  89.495 117.569  0.00  0.00    -0.276 OA
ATOM     17  H   LIG d   1      -3.540  90.929 115.455  0.00  0.00     0.149 HD
ENDBRANCH   6  13
BRANCH   5  18
ATOM     18  N   LIG d   1      -3.820  93.119 118.071  0.00  0.00     0.381 N 
ATOM     19  H   LIG d   1      -4.635  92.571 117.882  0.00  0.00    -0.090 HD
ATOM     20  H   LIG d   1      -3.869  93.958 117.520  0.00  0.00    -0.090 HD
ATOM     21  H   LIG d   1      -3.784  93.350 119.039  0.00  0.00    -0.090 HD
ENDBRANCH   5  18
BRANCH   3  22
ATOM     22  C   LIG d   1       0.771  92.251 119.122  0.00  0.00     0.382 C 
ATOM     23  O   LIG d   1       0.775  93.240 119.895  0.00  0.00    -0.241 OA
ATOM     24  O   LIG d   1       1.853  91.737 118.778  0.00  0.00    -0.241 OA
ENDBRANCH   3  22
TORSDOF 7
ENDMDL
MODEL 5
REMARK VINA RESULT:      -4.8      2.866      5.031
REMARK  7 active torsions:
REMARK  status: ('A' for Active; 'I' for Inactive)
REMARK    1  A    between atoms: C_2  and  C_3 
REMARK    2  A    between atoms: C_3  and  O_6 
REMARK    3  A    between atoms: C_3  and  C_4 
REMARK    4  A    between atoms: C_7  and  O_6 
REMARK    5  A    between atoms: C_9  and  C_10 
REMARK    6  A    between atoms: N_15  and  C_14 
REMARK    7  A    between atoms: N_20  and  C_19 
REMARK       I    between atoms: C_22  and  N_20 
ROOT
ATOM      1  C   LIG d   1      -4.174  90.860 117.538  0.00  0.00     0.161 C 
ATOM      2  C   LIG d   1      -4.156  91.872 118.512  0.00  0.00     0.016 C 
ATOM      3  C   LIG d   1      -5.073  92.948 118.533  0.00  0.00     0.038 C 
ATOM      4  C   LIG d   1      -6.172  93.003 117.662  0.00  0.00     0.028 C 
ATOM      5  C   LIG d   1      -5.937  92.272 116.344  0.00  0.00    -0.047 C 
ATOM      6  C   LIG d   1      -5.433  90.843 116.646  0.00  0.00     0.091 C 
ENDROOT
BRANCH   1   7
ATOM      7  O   LIG d   1      -3.986  89.576 118.165  0.00  0.00    -0.368 OA
BRANCH   7   8
ATOM      8  C   LIG d   1      -2.669  89.319 118.710  0.00  0.00     0.119 C 
BRANCH   8   9
ATOM      9  C   LIG d   1      -1.829  88.658 117.600  0.00  0.00     0.028 C 
ATOM     10  C   LIG d   1      -0.670  89.554 117.130  0.00  0.00     0.006 C 
ENDBRANCH   8   9
BRANCH   8  11
ATOM     11  C   LIG d   1      -2.725  88.289 119.843  0.00  0.00     0.028 C 
ATOM     12  C   LIG d   1      -1.984  86.987 119.501  0.00  0.00     0.006 C 
ENDBRANCH   8  11
ENDBRANCH   7   8
ENDBRANCH   1   7
BRANCH   6  13
ATOM     13  N   LIG d   1      -5.098  90.087 115.411  0.00  0.00    -0.311 N 
ATOM     14  C   LIG d   1      -5.997  89.405 114.703  0.00  0.00     0.210 C 
ATOM     15  C   LIG d   1      -5.437  88.680 113.475  0.00  0.00     0.109 C 
ATOM     16  O   LIG d   1      -7.210  89.358 114.957  0.00  0.00    -0.276 OA
ATOM     17  H   LIG d   1      -4.142  90.097 115.115  0.00  0.00     0.149 HD
ENDBRANCH   6  13
BRANCH   5  18
ATOM     18  N   LIG d   1      -7.206  92.291 115.592  0.00  0.00     0.381 N 
ATOM     19  H   LIG d   1      -7.548  91.358 115.483  0.00  0.00    -0.090 HD
ATOM     20  H   LIG d   1      -7.037  92.674 114.679  0.00  0.00    -0.090 HD
ATOM     21  H   LIG d   1      -7.879  92.846 116.073  0.00  0.00    -0.090 HD
ENDBRANCH   5  18
BRANCH   3  22
ATOM     22  C   LIG d   1      -4.872  94.006 119.407  0.00  0.00     0.382 C 
ATOM     23  O   LIG d   1      -5.856  94.583 119.930  0.00  0.00    -0.241 OA
ATOM     24  O   LIG d   1      -3.721  94.419 119.645  0.00  0.00    -0.241 OA
ENDBRANCH   3  22
TORSDOF 7
ENDMDL
MODEL 6
REMARK VINA RESULT:      -4.6      2.258      5.393
REMARK  7 active torsions:
REMARK  status: ('A' for Active; 'I' for Inactive)
REMARK    1  A    between atoms: C_2  and  C_3 
REMARK    2  A    between atoms: C_3  and  O_6 
REMARK    3  A    between atoms: C_3  and  C_4 
REMARK    4  A    between atoms: C_7  and  O_6 
REMARK    5  A    between atoms: C_9  and  C_10 
REMARK    6  A    between atoms: N_15  and  C_14 
REMARK    7  A    between atoms: N_20  and  C_19 
REMARK       I    between atoms: C_22  and  N_20 
ROOT
ATOM      1  C   LIG d   1      -2.864  91.961 118.201  0.00  0.00     0.161 C 
ATOM      2  C   LIG d   1      -2.848  93.307 118.606  0.00  0.00     0.016 C 
ATOM      3  C   LIG d   1      -1.667  93.996 118.967  0.00  0.00     0.038 C 
ATOM      4  C   LIG d   1      -0.396  93.427 118.801  0.00  0.00     0.028 C 
ATOM      5  C   LIG d   1      -0.400  91.904 118.874  0.00  0.00    -0.047 C 
ATOM      6  C   LIG d   1      -1.475  91.358 117.907  0.00  0.00     0.091 C 
ENDROOT
BRANCH   1   7
ATOM      7  O   LIG d   1      -3.730  91.806 117.059  0.00  0.00    -0.368 OA
BRANCH   7   8
ATOM      8  C   LIG d   1      -5.138  92.055 117.288  0.00  0.00     0.119 C 
BRANCH   8   9
ATOM      9  C   LIG d   1      -5.716  90.822 118.008  0.00  0.00     0.028 C 
ATOM     10  C   LIG d   1      -6.151  91.133 119.450  0.00  0.00     0.006 C 
ENDBRANCH   8   9
BRANCH   8  11
ATOM     11  C   LIG d   1      -5.909  92.153 115.968  0.00  0.00     0.028 C 
ATOM     12  C   LIG d   1      -5.744  90.904 115.088  0.00  0.00     0.006 C 
ENDBRANCH   8  11
ENDBRANCH   7   8
ENDBRANCH   1   7
BRANCH   6  13
ATOM     13  N   LIG d   1      -1.603  89.879 117.979  0.00  0.00    -0.311 N 
ATOM     14  C   LIG d   1      -0.881  89.043 117.234  0.00  0.00     0.210 C 
ATOM     15  C   LIG d   1      -1.185  87.557 117.450  0.00  0.00     0.109 C 
ATOM     16  O   LIG d   1       0.003  89.391 116.437  0.00  0.00    -0.276 OA
ATOM     17  H   LIG d   1      -2.276  89.510 118.622  0.00  0.00     0.149 HD
ENDBRANCH   6  13
BRANCH   5  18
ATOM     18  N   LIG d   1       0.962  91.439 118.548  0.00  0.00     0.381 N 
ATOM     19  H   LIG d   1       0.914  90.565 118.064  0.00  0.00    -0.090 HD
ATOM     20  H   LIG d   1       1.470  91.298 119.403  0.00  0.00    -0.090 HD
ATOM     21  H   LIG d   1       1.427  92.115 117.984  0.00  0.00    -0.090 HD
ENDBRANCH   5  18
BRANCH   3  22
ATOM     22  C   LIG d   1      -1.755  95.257 119.538  0.00  0.00     0.382 C 
ATOM     23  O   LIG d   1      -0.716  95.843 119.926  0.00  0.00    -0.241 OA
ATOM     24  O   LIG d   1      -2.865  95.796 119.711  0.00  0.00    -0.241 OA
ENDBRANCH   3  22
TORSDOF 7
ENDMDL
MODEL 7
REMARK VINA RESULT:      -4.5      2.254      5.250
REMARK  7 active torsions:
REMARK  status: ('A' for Active; 'I' for Inactive)
REMARK    1  A    between atoms: C_2  and  C_3 
REMARK    2  A    between atoms: C_3  and  O_6 
REMARK    3  A    between atoms: C_3  and  C_4 
REMARK    4  A    between atoms: C_7  and  O_6 
REMARK    5  A    between atoms: C_9  and  C_10 
REMARK    6  A    between atoms: N_15  and  C_14 
REMARK    7  A    between atoms: N_20  and  C_19 
REMARK       I    between atoms: C_22  and  N_20 
ROOT
ATOM      1  C   LIG d   1      -2.876  91.838 117.638  0.00  0.00     0.161 C 
ATOM      2  C   LIG d   1      -2.711  90.454 117.466  0.00  0.00     0.016 C 
ATOM      3  C   LIG d   1      -1.461  89.801 117.571  0.00  0.00     0.038 C 
ATOM      4  C   LIG d   1      -0.309  90.471 118.007  0.00  0.00     0.028 C 
ATOM      5  C   LIG d   1      -0.325  91.965 117.703  0.00  0.00    -0.047 C 
ATOM      6  C   LIG d   1      -1.650  92.569 118.223  0.00  0.00     0.091 C 
ENDROOT
BRANCH   1   7
ATOM      7  O   LIG d   1      -4.044  92.094 118.444  0.00  0.00    -0.368 OA
BRANCH   7   8
ATOM      8  C   LIG d   1      -5.162  92.717 117.765  0.00  0.00     0.119 C 
BRANCH   8   9
ATOM      9  C   LIG d   1      -6.124  93.246 118.847  0.00  0.00     0.028 C 
ATOM     10  C   LIG d   1      -6.889  94.499 118.391  0.00  0.00     0.006 C 
ENDBRANCH   8   9
BRANCH   8  11
ATOM     11  C   LIG d   1      -5.973  91.691 116.969  0.00  0.00     0.028 C 
ATOM     12  C   LIG d   1      -6.173  92.099 115.501  0.00  0.00     0.006 C 
ENDBRANCH   8  11
ENDBRANCH   7   8
ENDBRANCH   1   7
BRANCH   6  13
ATOM     13  N   LIG d   1      -1.784  94.011 117.891  0.00  0.00    -0.311 N 
ATOM     14  C   LIG d   1      -1.346  94.989 118.682  0.00  0.00     0.210 C 
ATOM     15  C   LIG d   1      -1.603  96.406 118.161  0.00  0.00     0.109 C 
ATOM     16  O   LIG d   1      -0.741  94.817 119.751  0.00  0.00    -0.276 OA
ATOM     17  H   LIG d   1      -2.236  94.240 117.028  0.00  0.00     0.149 HD
ENDBRANCH   6  13
BRANCH   5  18
ATOM     18  N   LIG d   1       0.869  92.561 118.332  0.00  0.00     0.381 N 
ATOM     19  H   LIG d   1       1.128  93.395 117.844  0.00  0.00    -0.090 HD
ATOM     20  H   LIG d   1       1.630  91.908 118.268  0.00  0.00    -0.090 HD
ATOM     21  H   LIG d   1       0.681  92.772 119.288  0.00  0.00    -0.090 HD
ENDBRANCH   5  18
BRANCH   3  22
ATOM     22  C   LIG d   1      -1.348  88.470 117.200  0.00  0.00     0.382 C 
ATOM     23  O   LIG d   1      -2.241  87.650 117.524  0.00  0.00    -0.241 OA
ATOM     24  O   LIG d   1      -0.343  88.069 116.583  0.00  0.00    -0.241 OA
ENDBRANCH   3  22
TORSDOF 7
ENDMDL
MODEL 8
REMARK VINA RESULT:      -4.3      2.337      4.650
REMARK  7 active torsions:
REMARK  status: ('A' for Active; 'I' for Inactive)
REMARK    1  A    between atoms: C_2  and  C_3 
REMARK    2  A    between atoms: C_3  and  O_6 
REMARK    3  A    between atoms: C_3  and  C_4 
REMARK    4  A    between atoms: C_7  and  O_6 
REMARK    5  A    between atoms: C_9  and  C_10 
REMARK    6  A    between atoms: N_15  and  C_14 
REMARK    7  A    between atoms: N_20  and  C_19 
REMARK       I    between atoms: C_22  and  N_20 
ROOT
ATOM      1  C   LIG d   1      -3.015  92.086 118.183  0.00  0.00     0.161 C 
ATOM      2  C   LIG d   1      -4.039  92.161 117.224  0.00  0.00     0.016 C 
ATOM      3  C   LIG d   1      -4.567  91.030 116.559  0.00  0.00     0.038 C 
ATOM      4  C   LIG d   1      -4.209  89.723 116.921  0.00  0.00     0.028 C 
ATOM      5  C   LIG d   1      -2.814  89.623 117.530  0.00  0.00    -0.047 C 
ATOM      6  C   LIG d   1      -2.690  90.658 118.671  0.00  0.00     0.091 C 
ENDROOT
BRANCH   1   7
ATOM      7  O   LIG d   1      -3.330  92.938 119.302  0.00  0.00    -0.368 OA
BRANCH   7   8
ATOM      8  C   LIG d   1      -2.408  94.028 119.552  0.00  0.00     0.119 C 
BRANCH   8   9
ATOM      9  C   LIG d   1      -3.240  95.318 119.684  0.00  0.00     0.028 C 
ATOM     10  C   LIG d   1      -4.749  95.035 119.776  0.00  0.00     0.006 C 
ENDBRANCH   8   9
BRANCH   8  11
ATOM     11  C   LIG d   1      -1.484  94.262 118.353  0.00  0.00     0.028 C 
ATOM     12  C   LIG d   1      -1.291  95.753 118.032  0.00  0.00     0.006 C 
ENDBRANCH   8  11
ENDBRANCH   7   8
ENDBRANCH   1   7
BRANCH   6  13
ATOM     13  N   LIG d   1      -1.328  90.686 119.265  0.00  0.00    -0.311 N 
ATOM     14  C   LIG d   1      -0.219  90.868 118.550  0.00  0.00     0.210 C 
ATOM     15  C   LIG d   1       1.083  90.842 119.356  0.00  0.00     0.109 C 
ATOM     16  O   LIG d   1      -0.193  91.082 117.328  0.00  0.00    -0.276 OA
ATOM     17  H   LIG d   1      -1.259  90.552 120.255  0.00  0.00     0.149 HD
ENDBRANCH   6  13
BRANCH   5  18
ATOM     18  N   LIG d   1      -2.626  88.234 117.986  0.00  0.00     0.381 N 
ATOM     19  H   LIG d   1      -3.477  87.721 117.873  0.00  0.00    -0.090 HD
ATOM     20  H   LIG d   1      -2.390  88.241 118.963  0.00  0.00    -0.090 HD
ATOM     21  H   LIG d   1      -1.896  87.800 117.465  0.00  0.00    -0.090 HD
ENDBRANCH   5  18
BRANCH   3  22
ATOM     22  C   LIG d   1      -5.435  91.204 115.492  0.00  0.00     0.382 C 
ATOM     23  O   LIG d   1      -5.823  92.356 115.180  0.00  0.00    -0.241 OA
ATOM     24  O   LIG d   1      -5.871  90.220 114.866  0.00  0.00    -0.241 OA
ENDBRANCH   3  22
TORSDOF 7
ENDMDL
MODEL 9
REMARK VINA RESULT:      -4.0      2.520      6.142
REMARK  7 active torsions:
REMARK  status: ('A' for Active; 'I' for Inactive)
REMARK    1  A    between atoms: C_2  and  C_3 
REMARK    2  A    between atoms: C_3  and  O_6 
REMARK    3  A    between atoms: C_3  and  C_4 
REMARK    4  A    between atoms: C_7  and  O_6 
REMARK    5  A    between atoms: C_9  and  C_10 
REMARK    6  A    between atoms: N_15  and  C_14 
REMARK    7  A    between atoms: N_20  and  C_19 
REMARK       I    between atoms: C_22  and  N_20 
ROOT
ATOM      1  C   LIG d   1      -2.197  90.866 118.622  0.00  0.00     0.161 C 
ATOM      2  C   LIG d   1      -0.832  90.839 118.952  0.00  0.00     0.016 C 
ATOM      3  C   LIG d   1       0.046  89.808 118.547  0.00  0.00     0.038 C 
ATOM      4  C   LIG d   1      -0.352  88.804 117.651  0.00  0.00     0.028 C 
ATOM      5  C   LIG d   1      -1.848  88.510 117.696  0.00  0.00    -0.047 C 
ATOM      6  C   LIG d   1      -2.625  89.839 117.553  0.00  0.00     0.091 C 
ENDROOT
BRANCH   1   7
ATOM      7  O   LIG d   1      -2.576  92.197 118.218  0.00  0.00    -0.368 OA
BRANCH   7   8
ATOM      8  C   LIG d   1      -2.278  93.258 119.159  0.00  0.00     0.119 C 
BRANCH   8   9
ATOM      9  C   LIG d   1      -3.618  93.753 119.736  0.00  0.00     0.028 C 
ATOM     10  C   LIG d   1      -4.825  93.286 118.905  0.00  0.00     0.006 C 
ENDBRANCH   8   9
BRANCH   8  11
ATOM     11  C   LIG d   1      -1.667  94.472 118.454  0.00  0.00     0.028 C 
ATOM     12  C   LIG d   1      -0.815  94.087 117.234  0.00  0.00     0.006 C 
ENDBRANCH   8  11
ENDBRANCH   7   8
ENDBRANCH   1   7
BRANCH   6  13
ATOM     13  N   LIG d   1      -4.094  89.652 117.671  0.00  0.00    -0.311 N 
ATOM     14  C   LIG d   1      -4.967  90.117 116.778  0.00  0.00     0.210 C 
ATOM     15  C   LIG d   1      -6.436  89.831 117.101  0.00  0.00     0.109 C 
ATOM     16  O   LIG d   1      -4.661  90.711 115.733  0.00  0.00    -0.276 OA
ATOM     17  H   LIG d   1      -4.428  89.153 118.472  0.00  0.00     0.149 HD
ENDBRANCH   6  13
BRANCH   5  18
ATOM     18  N   LIG d   1      -2.145  87.547 116.619  0.00  0.00     0.381 N 
ATOM     19  H   LIG d   1      -1.431  87.591 115.919  0.00  0.00    -0.090 HD
ATOM     20  H   LIG d   1      -3.020  87.797 116.193  0.00  0.00    -0.090 HD
ATOM     21  H   LIG d   1      -2.199  86.625 116.992  0.00  0.00    -0.090 HD
ENDBRANCH   5  18
BRANCH   3  22
ATOM     22  C   LIG d   1       1.328  89.751 119.072  0.00  0.00     0.382 C 
ATOM     23  O   LIG d   1       2.181  90.609 118.738  0.00  0.00    -0.241 OA
ATOM     24  O   LIG d   1       1.655  88.828 119.842  0.00  0.00    -0.241 OA
ENDBRANCH   3  22
TORSDOF 7
ENDMDL
