MODEL 1
REMARK VINA RESULT:      -5.3      0.000      0.000
REMARK  7 active torsions:
REMARK  status: ('A' for Active; 'I' for Inactive)
REMARK    1  A    between atoms: C_2  and  C_3 
REMARK    2  A    between atoms: C_3  and  O_6 
REMARK    3  A    between atoms: C_3  and  C_4 
REMARK    4  A    between atoms: C_7  and  O_6 
REMARK    5  A    between atoms: C_9  and  C_10 
REMARK    6  A    between atoms: N_15  and  C_14 
REMARK    7  A    between atoms: N_20  and  C_19 
REMARK       I    between atoms: C_22  and  N_20 
ROOT
ATOM      1  C   LIG d   1      -6.195  92.971 117.629  0.00  0.00     0.161 C 
ATOM      2  C   LIG d   1      -7.096  92.174 116.903  0.00  0.00     0.016 C 
ATOM      3  C   LIG d   1      -6.725  90.976 116.251  0.00  0.00     0.038 C 
ATOM      4  C   LIG d   1      -5.451  90.410 116.409  0.00  0.00     0.028 C 
ATOM      5  C   LIG d   1      -4.366  91.437 116.718  0.00  0.00    -0.047 C 
ATOM      6  C   LIG d   1      -4.828  92.312 117.905  0.00  0.00     0.091 C 
ENDROOT
BRANCH   1   7
ATOM      7  O   LIG d   1      -6.805  93.396 118.864  0.00  0.00    -0.368 OA
BRANCH   7   8
ATOM      8  C   LIG d   1      -7.033  94.820 119.005  0.00  0.00     0.119 C 
BRANCH   8   9
ATOM      9  C   LIG d   1      -5.932  95.376 119.928  0.00  0.00     0.028 C 
ATOM     10  C   LIG d   1      -5.532  96.816 119.563  0.00  0.00     0.006 C 
ENDBRANCH   8   9
BRANCH   8  11
ATOM     11  C   LIG d   1      -8.352  95.103 119.731  0.00  0.00     0.028 C 
ATOM     12  C   LIG d   1      -9.345  95.902 118.872  0.00  0.00     0.006 C 
ENDBRANCH   8  11
ENDBRANCH   7   8
ENDBRANCH   1   7
BRANCH   6  13
ATOM     13  N   LIG d   1      -3.861  93.397 118.219  0.00  0.00    -0.311 N 
ATOM     14  C   LIG d   1      -2.903  93.282 119.136  0.00  0.00     0.210 C 
ATOM     15  C   LIG d   1      -2.027  94.527 119.316  0.00  0.00     0.109 C 
ATOM     16  O   LIG d   1      -2.674  92.257 119.796  0.00  0.00    -0.276 OA
ATOM     17  H   LIG d   1      -3.955  94.253 117.708  0.00  0.00     0.149 HD
ENDBRANCH   6  13
BRANCH   5  18
ATOM     18  N   LIG d   1      -3.120  90.699 116.993  0.00  0.00     0.381 N 
ATOM     19  H   LIG d   1      -3.200  89.760 116.656  0.00  0.00    -0.090 HD
ATOM     20  H   LIG d   1      -2.974  90.666 117.987  0.00  0.00    -0.090 HD
ATOM     21  H   LIG d   1      -2.350  91.153 116.553  0.00  0.00    -0.090 HD
ENDBRANCH   5  18
BRANCH   3  22
ATOM     22  C   LIG d   1      -7.622  90.352 115.398  0.00  0.00     0.382 C 
ATOM     23  O   LIG d   1      -8.424  89.497 115.847  0.00  0.00    -0.241 OA
ATOM     24  O   LIG d   1      -7.610  90.599 114.177  0.00  0.00    -0.241 OA
ENDBRANCH   3  22
TORSDOF 7
ENDMDL
MODEL 2
REMARK VINA RESULT:      -4.9      3.978      6.444
REMARK  7 active torsions:
REMARK  status: ('A' for Active; 'I' for Inactive)
REMARK    1  A    between atoms: C_2  and  C_3 
REMARK    2  A    between atoms: C_3  and  O_6 
REMARK    3  A    between atoms: C_3  and  C_4 
REMARK    4  A    between atoms: C_7  and  O_6 
REMARK    5  A    between atoms: C_9  and  C_10 
REMARK    6  A    between atoms: N_15  and  C_14 
REMARK    7  A    between atoms: N_20  and  C_19 
REMARK       I    between atoms: C_22  and  N_20 
ROOT
ATOM      1  C   LIG d   1      -2.666  89.876 118.283  0.00  0.00     0.161 C 
ATOM      2  C   LIG d   1      -4.061  89.903 118.117  0.00  0.00     0.016 C 
ATOM      3  C   LIG d   1      -4.777  91.060 117.734  0.00  0.00     0.038 C 
ATOM      4  C   LIG d   1      -4.126  92.239 117.341  0.00  0.00     0.028 C 
ATOM      5  C   LIG d   1      -2.750  92.412 117.977  0.00  0.00    -0.047 C 
ATOM      6  C   LIG d   1      -1.928  91.123 117.751  0.00  0.00     0.091 C 
ENDROOT
BRANCH   1   7
ATOM      7  O   LIG d   1      -2.126  88.681 117.686  0.00  0.00    -0.368 OA
BRANCH   7   8
ATOM      8  C   LIG d   1      -1.322  87.843 118.552  0.00  0.00     0.119 C 
BRANCH   8   9
ATOM      9  C   LIG d   1      -0.536  86.868 117.654  0.00  0.00     0.028 C 
ATOM     10  C   LIG d   1       0.786  87.471 117.150  0.00  0.00     0.006 C 
ENDBRANCH   8   9
BRANCH   8  11
ATOM     11  C   LIG d   1      -2.199  86.957 119.442  0.00  0.00     0.028 C 
ATOM     12  C   LIG d   1      -1.670  85.519 119.557  0.00  0.00     0.006 C 
ENDBRANCH   8  11
ENDBRANCH   7   8
ENDBRANCH   1   7
BRANCH   6  13
ATOM     13  N   LIG d   1      -0.599  91.175 118.415  0.00  0.00    -0.311 N 
ATOM     14  C   LIG d   1       0.554  91.076 117.755  0.00  0.00     0.210 C 
ATOM     15  C   LIG d   1       1.808  91.135 118.633  0.00  0.00     0.109 C 
ATOM     16  O   LIG d   1       0.658  90.977 116.524  0.00  0.00    -0.276 OA
ATOM     17  H   LIG d   1      -0.590  91.285 119.410  0.00  0.00     0.149 HD
ENDBRANCH   6  13
BRANCH   5  18
ATOM     18  N   LIG d   1      -2.129  93.607 117.376  0.00  0.00     0.381 N 
ATOM     19  H   LIG d   1      -2.838  94.210 117.009  0.00  0.00    -0.090 HD
ATOM     20  H   LIG d   1      -1.537  93.318 116.617  0.00  0.00    -0.090 HD
ATOM     21  H   LIG d   1      -1.591  94.092 118.060  0.00  0.00    -0.090 HD
ENDBRANCH   5  18
BRANCH   3  22
ATOM     22  C   LIG d   1      -6.163  91.057 117.779  0.00  0.00     0.382 C 
ATOM     23  O   LIG d   1      -6.765  91.809 118.582  0.00  0.00    -0.241 OA
ATOM     24  O   LIG d   1      -6.817  90.280 117.058  0.00  0.00    -0.241 OA
ENDBRANCH   3  22
TORSDOF 7
ENDMDL
MODEL 3
REMARK VINA RESULT:      -4.8      2.392      4.762
REMARK  7 active torsions:
REMARK  status: ('A' for Active; 'I' for Inactive)
REMARK    1  A    between atoms: C_2  and  C_3 
REMARK    2  A    between atoms: C_3  and  O_6 
REMARK    3  A    between atoms: C_3  and  C_4 
REMARK    4  A    between atoms: C_7  and  O_6 
REMARK    5  A    between atoms: C_9  and  C_10 
REMARK    6  A    between atoms: N_15  and  C_14 
REMARK    7  A    between atoms: N_20  and  C_19 
REMARK       I    between atoms: C_22  and  N_20 
ROOT
ATOM      1  C   LIG d   1      -4.590  90.905 117.439  0.00  0.00     0.161 C 
ATOM      2  C   LIG d   1      -5.564  90.209 116.704  0.00  0.00     0.016 C 
ATOM      3  C   LIG d   1      -6.801  90.777 116.319  0.00  0.00     0.038 C 
ATOM      4  C   LIG d   1      -7.086  92.136 116.514  0.00  0.00     0.028 C 
ATOM      5  C   LIG d   1      -6.342  92.747 117.697  0.00  0.00    -0.047 C 
ATOM      6  C   LIG d   1      -4.836  92.423 117.565  0.00  0.00     0.091 C 
ENDROOT
BRANCH   1   7
ATOM      7  O   LIG d   1      -3.285  90.654 116.881  0.00  0.00    -0.368 OA
BRANCH   7   8
ATOM      8  C   LIG d   1      -2.329  90.012 117.760  0.00  0.00     0.119 C 
BRANCH   8   9
ATOM      9  C   LIG d   1      -0.920  90.428 117.294  0.00  0.00     0.028 C 
ATOM     10  C   LIG d   1      -0.091  91.062 118.423  0.00  0.00     0.006 C 
ENDBRANCH   8   9
BRANCH   8  11
ATOM     11  C   LIG d   1      -2.372  88.488 117.612  0.00  0.00     0.028 C 
ATOM     12  C   LIG d   1      -2.231  87.755 118.955  0.00  0.00     0.006 C 
ENDBRANCH   8  11
ENDBRANCH   7   8
ENDBRANCH   1   7
BRANCH   6  13
ATOM     13  N   LIG d   1      -4.047  92.912 118.725  0.00  0.00    -0.311 N 
ATOM     14  C   LIG d   1      -2.870  93.524 118.606  0.00  0.00     0.210 C 
ATOM     15  C   LIG d   1      -2.215  93.929 119.930  0.00  0.00     0.109 C 
ATOM     16  O   LIG d   1      -2.321  93.797 117.528  0.00  0.00    -0.276 OA
ATOM     17  H   LIG d   1      -4.433  92.760 119.636  0.00  0.00     0.149 HD
ENDBRANCH   6  13
BRANCH   5  18
ATOM     18  N   LIG d   1      -6.624  94.195 117.701  0.00  0.00     0.381 N 
ATOM     19  H   LIG d   1      -6.771  94.509 118.640  0.00  0.00    -0.090 HD
ATOM     20  H   LIG d   1      -7.464  94.364 117.177  0.00  0.00    -0.090 HD
ATOM     21  H   LIG d   1      -5.863  94.691 117.292  0.00  0.00    -0.090 HD
ENDBRANCH   5  18
BRANCH   3  22
ATOM     22  C   LIG d   1      -7.784  89.970 115.766  0.00  0.00     0.382 C 
ATOM     23  O   LIG d   1      -8.408  89.157 116.490  0.00  0.00    -0.241 OA
ATOM     24  O   LIG d   1      -8.025  90.014 114.545  0.00  0.00    -0.241 OA
ENDBRANCH   3  22
TORSDOF 7
ENDMDL
MODEL 4
REMARK VINA RESULT:      -4.8      2.849      6.567
REMARK  7 active torsions:
REMARK  status: ('A' for Active; 'I' for Inactive)
REMARK    1  A    between atoms: C_2  and  C_3 
REMARK    2  A    between atoms: C_3  and  O_6 
REMARK    3  A    between atoms: C_3  and  C_4 
REMARK    4  A    between atoms: C_7  and  O_6 
REMARK    5  A    between atoms: C_9  and  C_10 
REMARK    6  A    between atoms: N_15  and  C_14 
REMARK    7  A    between atoms: N_20  and  C_19 
REMARK       I    between atoms: C_22  and  N_20 
ROOT
ATOM      1  C   LIG d   1      -4.352  90.911 117.252  0.00  0.00     0.161 C 
ATOM      2  C   LIG d   1      -3.281  91.710 117.687  0.00  0.00     0.016 C 
ATOM      3  C   LIG d   1      -3.450  92.896 118.437  0.00  0.00     0.038 C 
ATOM      4  C   LIG d   1      -4.702  93.287 118.935  0.00  0.00     0.028 C 
ATOM      5  C   LIG d   1      -5.871  92.785 118.095  0.00  0.00    -0.047 C 
ATOM      6  C   LIG d   1      -5.717  91.262 117.880  0.00  0.00     0.091 C 
ENDROOT
BRANCH   1   7
ATOM      7  O   LIG d   1      -4.043  89.520 117.468  0.00  0.00    -0.368 OA
BRANCH   7   8
ATOM      8  C   LIG d   1      -2.919  89.244 118.339  0.00  0.00     0.119 C 
BRANCH   8   9
ATOM      9  C   LIG d   1      -2.073  88.145 117.669  0.00  0.00     0.028 C 
ATOM     10  C   LIG d   1      -0.619  88.587 117.430  0.00  0.00     0.006 C 
ENDBRANCH   8   9
BRANCH   8  11
ATOM     11  C   LIG d   1      -3.380  88.645 119.671  0.00  0.00     0.028 C 
ATOM     12  C   LIG d   1      -2.798  87.246 119.929  0.00  0.00     0.006 C 
ENDBRANCH   8  11
ENDBRANCH   7   8
ENDBRANCH   1   7
BRANCH   6  13
ATOM     13  N   LIG d   1      -6.774  90.704 116.997  0.00  0.00    -0.311 N 
ATOM     14  C   LIG d   1      -7.060  91.197 115.793  0.00  0.00     0.210 C 
ATOM     15  C   LIG d   1      -8.199  90.486 115.057  0.00  0.00     0.109 C 
ATOM     16  O   LIG d   1      -6.456  92.135 115.252  0.00  0.00    -0.276 OA
ATOM     17  H   LIG d   1      -7.293  89.921 117.345  0.00  0.00     0.149 HD
ENDBRANCH   6  13
BRANCH   5  18
ATOM     18  N   LIG d   1      -7.115  93.146 118.801  0.00  0.00     0.381 N 
ATOM     19  H   LIG d   1      -6.894  93.583 119.673  0.00  0.00    -0.090 HD
ATOM     20  H   LIG d   1      -7.636  92.308 118.990  0.00  0.00    -0.090 HD
ATOM     21  H   LIG d   1      -7.658  93.764 118.240  0.00  0.00    -0.090 HD
ENDBRANCH   5  18
BRANCH   3  22
ATOM     22  C   LIG d   1      -2.363  93.727 118.662  0.00  0.00     0.382 C 
ATOM     23  O   LIG d   1      -2.176  94.221 119.800  0.00  0.00    -0.241 OA
ATOM     24  O   LIG d   1      -1.592  94.025 117.730  0.00  0.00    -0.241 OA
ENDBRANCH   3  22
TORSDOF 7
ENDMDL
MODEL 5
REMARK VINA RESULT:      -4.5      2.690      4.611
REMARK  7 active torsions:
REMARK  status: ('A' for Active; 'I' for Inactive)
REMARK    1  A    between atoms: C_2  and  C_3 
REMARK    2  A    between atoms: C_3  and  O_6 
REMARK    3  A    between atoms: C_3  and  C_4 
REMARK    4  A    between atoms: C_7  and  O_6 
REMARK    5  A    between atoms: C_9  and  C_10 
REMARK    6  A    between atoms: N_15  and  C_14 
REMARK    7  A    between atoms: N_20  and  C_19 
REMARK       I    between atoms: C_22  and  N_20 
ROOT
ATOM      1  C   LIG d   1      -2.744  92.912 118.011  0.00  0.00     0.161 C 
ATOM      2  C   LIG d   1      -4.116  93.107 118.239  0.00  0.00     0.016 C 
ATOM      3  C   LIG d   1      -5.068  92.063 118.195  0.00  0.00     0.038 C 
ATOM      4  C   LIG d   1      -4.689  90.719 118.068  0.00  0.00     0.028 C 
ATOM      5  C   LIG d   1      -3.368  90.529 117.331  0.00  0.00    -0.047 C 
ATOM      6  C   LIG d   1      -2.297  91.435 117.980  0.00  0.00     0.091 C 
ENDROOT
BRANCH   1   7
ATOM      7  O   LIG d   1      -1.977  93.647 118.985  0.00  0.00    -0.368 OA
BRANCH   7   8
ATOM      8  C   LIG d   1      -1.000  94.577 118.456  0.00  0.00     0.119 C 
BRANCH   8   9
ATOM      9  C   LIG d   1       0.169  94.641 119.459  0.00  0.00     0.028 C 
ATOM     10  C   LIG d   1       1.374  93.797 119.011  0.00  0.00     0.006 C 
ENDBRANCH   8   9
BRANCH   8  11
ATOM     11  C   LIG d   1      -1.561  96.001 118.396  0.00  0.00     0.028 C 
ATOM     12  C   LIG d   1      -2.500  96.321 119.570  0.00  0.00     0.006 C 
ENDBRANCH   8  11
ENDBRANCH   7   8
ENDBRANCH   1   7
BRANCH   6  13
ATOM     13  N   LIG d   1      -0.994  91.374 117.267  0.00  0.00    -0.311 N 
ATOM     14  C   LIG d   1       0.003  90.569 117.630  0.00  0.00     0.210 C 
ATOM     15  C   LIG d   1       1.267  90.677 116.771  0.00  0.00     0.109 C 
ATOM     16  O   LIG d   1      -0.051  89.752 118.562  0.00  0.00    -0.276 OA
ATOM     17  H   LIG d   1      -0.876  91.981 116.480  0.00  0.00     0.149 HD
ENDBRANCH   6  13
BRANCH   5  18
ATOM     18  N   LIG d   1      -3.026  89.095 117.391  0.00  0.00     0.381 N 
ATOM     19  H   LIG d   1      -3.764  88.589 117.837  0.00  0.00    -0.090 HD
ATOM     20  H   LIG d   1      -2.191  88.983 117.939  0.00  0.00    -0.090 HD
ATOM     21  H   LIG d   1      -2.879  88.741 116.472  0.00  0.00    -0.090 HD
ENDBRANCH   5  18
BRANCH   3  22
ATOM     22  C   LIG d   1      -6.421  92.365 118.239  0.00  0.00     0.382 C 
ATOM     23  O   LIG d   1      -7.079  92.142 119.283  0.00  0.00    -0.241 OA
ATOM     24  O   LIG d   1      -7.001  92.815 117.233  0.00  0.00    -0.241 OA
ENDBRANCH   3  22
TORSDOF 7
ENDMDL
MODEL 6
REMARK VINA RESULT:      -4.4      3.125      5.763
REMARK  7 active torsions:
REMARK  status: ('A' for Active; 'I' for Inactive)
REMARK    1  A    between atoms: C_2  and  C_3 
REMARK    2  A    between atoms: C_3  and  O_6 
REMARK    3  A    between atoms: C_3  and  C_4 
REMARK    4  A    between atoms: C_7  and  O_6 
REMARK    5  A    between atoms: C_9  and  C_10 
REMARK    6  A    between atoms: N_15  and  C_14 
REMARK    7  A    between atoms: N_20  and  C_19 
REMARK       I    between atoms: C_22  and  N_20 
ROOT
ATOM      1  C   LIG d   1      -3.039  91.371 118.032  0.00  0.00     0.161 C 
ATOM      2  C   LIG d   1      -2.936  92.771 117.988  0.00  0.00     0.016 C 
ATOM      3  C   LIG d   1      -1.710  93.466 118.100  0.00  0.00     0.038 C 
ATOM      4  C   LIG d   1      -0.477  92.796 118.111  0.00  0.00     0.028 C 
ATOM      5  C   LIG d   1      -0.563  91.378 118.665  0.00  0.00    -0.047 C 
ATOM      6  C   LIG d   1      -1.694  90.621 117.932  0.00  0.00     0.091 C 
ENDROOT
BRANCH   1   7
ATOM      7  O   LIG d   1      -3.944  90.915 117.008  0.00  0.00    -0.368 OA
BRANCH   7   8
ATOM      8  C   LIG d   1      -5.180  91.657 116.873  0.00  0.00     0.119 C 
BRANCH   8   9
ATOM      9  C   LIG d   1      -6.197  91.046 117.856  0.00  0.00     0.028 C 
ATOM     10  C   LIG d   1      -6.499  91.976 119.043  0.00  0.00     0.006 C 
ENDBRANCH   8   9
BRANCH   8  11
ATOM     11  C   LIG d   1      -5.795  91.468 115.483  0.00  0.00     0.028 C 
ATOM     12  C   LIG d   1      -7.266  91.911 115.417  0.00  0.00     0.006 C 
ENDBRANCH   8  11
ENDBRANCH   7   8
ENDBRANCH   1   7
BRANCH   6  13
ATOM     13  N   LIG d   1      -1.901  89.251 118.472  0.00  0.00    -0.311 N 
ATOM     14  C   LIG d   1      -1.305  88.169 117.974  0.00  0.00     0.210 C 
ATOM     15  C   LIG d   1      -1.673  86.853 118.666  0.00  0.00     0.109 C 
ATOM     16  O   LIG d   1      -0.482  88.179 117.046  0.00  0.00    -0.276 OA
ATOM     17  H   LIG d   1      -2.530  89.156 119.246  0.00  0.00     0.149 HD
ENDBRANCH   6  13
BRANCH   5  18
ATOM     18  N   LIG d   1       0.761  90.751 118.491  0.00  0.00     0.381 N 
ATOM     19  H   LIG d   1       1.458  91.458 118.376  0.00  0.00    -0.090 HD
ATOM     20  H   LIG d   1       0.746  90.185 117.660  0.00  0.00    -0.090 HD
ATOM     21  H   LIG d   1       0.977  90.186 119.282  0.00  0.00    -0.090 HD
ENDBRANCH   5  18
BRANCH   3  22
ATOM     22  C   LIG d   1      -1.712  94.845 118.242  0.00  0.00     0.382 C 
ATOM     23  O   LIG d   1      -2.484  95.389 119.067  0.00  0.00    -0.241 OA
ATOM     24  O   LIG d   1      -0.983  95.555 117.523  0.00  0.00    -0.241 OA
ENDBRANCH   3  22
TORSDOF 7
ENDMDL
MODEL 7
REMARK VINA RESULT:      -4.4      3.553      6.241
REMARK  7 active torsions:
REMARK  status: ('A' for Active; 'I' for Inactive)
REMARK    1  A    between atoms: C_2  and  C_3 
REMARK    2  A    between atoms: C_3  and  O_6 
REMARK    3  A    between atoms: C_3  and  C_4 
REMARK    4  A    between atoms: C_7  and  O_6 
REMARK    5  A    between atoms: C_9  and  C_10 
REMARK    6  A    between atoms: N_15  and  C_14 
REMARK    7  A    between atoms: N_20  and  C_19 
REMARK       I    between atoms: C_22  and  N_20 
ROOT
ATOM      1  C   LIG d   1      -2.282  90.702 119.509  0.00  0.00     0.161 C 
ATOM      2  C   LIG d   1      -3.610  90.436 119.135  0.00  0.00     0.016 C 
ATOM      3  C   LIG d   1      -4.347  91.253 118.248  0.00  0.00     0.038 C 
ATOM      4  C   LIG d   1      -3.753  92.316 117.551  0.00  0.00     0.028 C 
ATOM      5  C   LIG d   1      -2.559  92.925 118.279  0.00  0.00    -0.047 C 
ATOM      6  C   LIG d   1      -1.582  91.794 118.674  0.00  0.00     0.091 C 
ENDROOT
BRANCH   1   7
ATOM      7  O   LIG d   1      -1.514  89.482 119.485  0.00  0.00    -0.368 OA
BRANCH   7   8
ATOM      8  C   LIG d   1      -1.119  89.004 118.176  0.00  0.00     0.119 C 
BRANCH   8   9
ATOM      9  C   LIG d   1      -1.649  87.564 118.030  0.00  0.00     0.028 C 
ATOM     10  C   LIG d   1      -2.050  86.947 119.380  0.00  0.00     0.006 C 
ENDBRANCH   8   9
BRANCH   8  11
ATOM     11  C   LIG d   1       0.404  88.889 118.061  0.00  0.00     0.028 C 
ATOM     12  C   LIG d   1       1.107  88.895 119.427  0.00  0.00     0.006 C 
ENDBRANCH   8  11
ENDBRANCH   7   8
ENDBRANCH   1   7
BRANCH   6  13
ATOM     13  N   LIG d   1      -0.427  92.293 119.464  0.00  0.00    -0.311 N 
ATOM     14  C   LIG d   1       0.767  92.553 118.934  0.00  0.00     0.210 C 
ATOM     15  C   LIG d   1       1.825  93.040 119.930  0.00  0.00     0.109 C 
ATOM     16  O   LIG d   1       1.042  92.457 117.729  0.00  0.00    -0.276 OA
ATOM     17  H   LIG d   1      -0.570  92.429 120.446  0.00  0.00     0.149 HD
ENDBRANCH   6  13
BRANCH   5  18
ATOM     18  N   LIG d   1      -1.953  93.926 117.382  0.00  0.00     0.381 N 
ATOM     19  H   LIG d   1      -1.089  94.250 117.770  0.00  0.00    -0.090 HD
ATOM     20  H   LIG d   1      -2.576  94.710 117.301  0.00  0.00    -0.090 HD
ATOM     21  H   LIG d   1      -1.792  93.526 116.484  0.00  0.00    -0.090 HD
ENDBRANCH   5  18
BRANCH   3  22
ATOM     22  C   LIG d   1      -5.706  91.034 118.080  0.00  0.00     0.382 C 
ATOM     23  O   LIG d   1      -6.528  91.554 118.873  0.00  0.00    -0.241 OA
ATOM     24  O   LIG d   1      -6.118  90.287 117.172  0.00  0.00    -0.241 OA
ENDBRANCH   3  22
TORSDOF 7
ENDMDL
MODEL 8
REMARK VINA RESULT:      -4.3      2.175      5.115
REMARK  7 active torsions:
REMARK  status: ('A' for Active; 'I' for Inactive)
REMARK    1  A    between atoms: C_2  and  C_3 
REMARK    2  A    between atoms: C_3  and  O_6 
REMARK    3  A    between atoms: C_3  and  C_4 
REMARK    4  A    between atoms: C_7  and  O_6 
REMARK    5  A    between atoms: C_9  and  C_10 
REMARK    6  A    between atoms: N_15  and  C_14 
REMARK    7  A    between atoms: N_20  and  C_19 
REMARK       I    between atoms: C_22  and  N_20 
ROOT
ATOM      1  C   LIG d   1      -5.782  90.903 118.577  0.00  0.00     0.161 C 
ATOM      2  C   LIG d   1      -6.517  92.087 118.752  0.00  0.00     0.016 C 
ATOM      3  C   LIG d   1      -5.936  93.311 119.155  0.00  0.00     0.038 C 
ATOM      4  C   LIG d   1      -4.547  93.472 119.266  0.00  0.00     0.028 C 
ATOM      5  C   LIG d   1      -3.811  92.176 119.590  0.00  0.00    -0.047 C 
ATOM      6  C   LIG d   1      -4.250  91.085 118.586  0.00  0.00     0.091 C 
ENDROOT
BRANCH   1   7
ATOM      7  O   LIG d   1      -6.201  90.241 117.367  0.00  0.00    -0.368 OA
BRANCH   7   8
ATOM      8  C   LIG d   1      -7.140  90.967 116.536  0.00  0.00     0.119 C 
BRANCH   8   9
ATOM      9  C   LIG d   1      -7.788  89.952 115.575  0.00  0.00     0.028 C 
ATOM     10  C   LIG d   1      -9.074  89.336 116.152  0.00  0.00     0.006 C 
ENDBRANCH   8   9
BRANCH   8  11
ATOM     11  C   LIG d   1      -6.422  91.977 115.636  0.00  0.00     0.028 C 
ATOM     12  C   LIG d   1      -6.801  91.828 114.154  0.00  0.00     0.006 C 
ENDBRANCH   8  11
ENDBRANCH   7   8
ENDBRANCH   1   7
BRANCH   6  13
ATOM     13  N   LIG d   1      -3.641  89.762 118.884  0.00  0.00    -0.311 N 
ATOM     14  C   LIG d   1      -2.522  89.324 118.309  0.00  0.00     0.210 C 
ATOM     15  C   LIG d   1      -2.078  87.924 118.744  0.00  0.00     0.109 C 
ATOM     16  O   LIG d   1      -1.838  89.976 117.505  0.00  0.00    -0.276 OA
ATOM     17  H   LIG d   1      -4.114  89.182 119.548  0.00  0.00     0.149 HD
ENDBRANCH   6  13
BRANCH   5  18
ATOM     18  N   LIG d   1      -2.365  92.459 119.540  0.00  0.00     0.381 N 
ATOM     19  H   LIG d   1      -1.955  91.994 118.755  0.00  0.00    -0.090 HD
ATOM     20  H   LIG d   1      -1.935  92.106 120.377  0.00  0.00    -0.090 HD
ATOM     21  H   LIG d   1      -2.212  93.441 119.470  0.00  0.00    -0.090 HD
ENDBRANCH   5  18
BRANCH   3  22
ATOM     22  C   LIG d   1      -6.751  94.381 119.491  0.00  0.00     0.382 C 
ATOM     23  O   LIG d   1      -6.317  95.554 119.395  0.00  0.00    -0.241 OA
ATOM     24  O   LIG d   1      -7.901  94.186 119.930  0.00  0.00    -0.241 OA
ENDBRANCH   3  22
TORSDOF 7
ENDMDL
MODEL 9
REMARK VINA RESULT:      -4.2      8.762     11.594
REMARK  7 active torsions:
REMARK  status: ('A' for Active; 'I' for Inactive)
REMARK    1  A    between atoms: C_2  and  C_3 
REMARK    2  A    between atoms: C_3  and  O_6 
REMARK    3  A    between atoms: C_3  and  C_4 
REMARK    4  A    between atoms: C_7  and  O_6 
REMARK    5  A    between atoms: C_9  and  C_10 
REMARK    6  A    between atoms: N_15  and  C_14 
REMARK    7  A    between atoms: N_20  and  C_19 
REMARK       I    between atoms: C_22  and  N_20 
ROOT
ATOM      1  C   LIG d   1       3.867  88.580 116.331  0.00  0.00     0.161 C 
ATOM      2  C   LIG d   1       2.553  89.077 116.327  0.00  0.00     0.016 C 
ATOM      3  C   LIG d   1       2.164  90.254 117.005  0.00  0.00     0.038 C 
ATOM      4  C   LIG d   1       3.100  91.104 117.613  0.00  0.00     0.028 C 
ATOM      5  C   LIG d   1       4.363  90.383 118.073  0.00  0.00    -0.047 C 
ATOM      6  C   LIG d   1       4.924  89.553 116.896  0.00  0.00     0.091 C 
ENDROOT
BRANCH   1   7
ATOM      7  O   LIG d   1       4.234  88.158 115.002  0.00  0.00    -0.368 OA
BRANCH   7   8
ATOM      8  C   LIG d   1       3.602  88.870 113.910  0.00  0.00     0.119 C 
BRANCH   8   9
ATOM      9  C   LIG d   1       3.267  87.837 112.817  0.00  0.00     0.028 C 
ATOM     10  C   LIG d   1       3.417  86.389 113.313  0.00  0.00     0.006 C 
ENDBRANCH   8   9
BRANCH   8  11
ATOM     11  C   LIG d   1       4.572  89.856 113.252  0.00  0.00     0.028 C 
ATOM     12  C   LIG d   1       6.041  89.421 113.378  0.00  0.00     0.006 C 
ENDBRANCH   8  11
ENDBRANCH   7   8
ENDBRANCH   1   7
BRANCH   6  13
ATOM     13  N   LIG d   1       6.112  88.750 117.284  0.00  0.00    -0.311 N 
ATOM     14  C   LIG d   1       7.364  89.190 117.170  0.00  0.00     0.210 C 
ATOM     15  C   LIG d   1       8.442  88.194 117.609  0.00  0.00     0.109 C 
ATOM     16  O   LIG d   1       7.682  90.322 116.777  0.00  0.00    -0.276 OA
ATOM     17  H   LIG d   1       5.944  87.830 117.643  0.00  0.00     0.149 HD
ENDBRANCH   6  13
BRANCH   5  18
ATOM     18  N   LIG d   1       5.307  91.406 118.561  0.00  0.00     0.381 N 
ATOM     19  H   LIG d   1       6.108  90.962 118.964  0.00  0.00    -0.090 HD
ATOM     20  H   LIG d   1       4.856  91.950 119.275  0.00  0.00    -0.090 HD
ATOM     21  H   LIG d   1       5.588  91.996 117.810  0.00  0.00    -0.090 HD
ENDBRANCH   5  18
BRANCH   3  22
ATOM     22  C   LIG d   1       0.818  90.572 117.114  0.00  0.00     0.382 C 
ATOM     23  O   LIG d   1       0.471  91.750 117.369  0.00  0.00    -0.241 OA
ATOM     24  O   LIG d   1      -0.051  89.686 117.004  0.00  0.00    -0.241 OA
ENDBRANCH   3  22
TORSDOF 7
ENDMDL
