MODEL 1
REMARK VINA RESULT:      -5.2      0.000      0.000
REMARK  7 active torsions:
REMARK  status: ('A' for Active; 'I' for Inactive)
REMARK    1  A    between atoms: C_2  and  C_3 
REMARK    2  A    between atoms: C_3  and  O_6 
REMARK    3  A    between atoms: C_3  and  C_4 
REMARK    4  A    between atoms: C_7  and  O_6 
REMARK    5  A    between atoms: C_9  and  C_10 
REMARK    6  A    between atoms: N_15  and  C_14 
REMARK    7  A    between atoms: N_20  and  C_19 
REMARK       I    between atoms: C_22  and  N_20 
ROOT
ATOM      1  C   LIG d   1      -5.365  92.947 118.025  0.00  0.00     0.161 C 
ATOM      2  C   LIG d   1      -5.401  91.741 117.306  0.00  0.00     0.016 C 
ATOM      3  C   LIG d   1      -6.368  91.454 116.316  0.00  0.00     0.038 C 
ATOM      4  C   LIG d   1      -7.280  92.421 115.868  0.00  0.00     0.028 C 
ATOM      5  C   LIG d   1      -7.604  93.479 116.916  0.00  0.00    -0.047 C 
ATOM      6  C   LIG d   1      -6.283  94.057 117.472  0.00  0.00     0.091 C 
ENDROOT
BRANCH   1   7
ATOM      7  O   LIG d   1      -4.006  93.420 118.118  0.00  0.00    -0.368 OA
BRANCH   7   8
ATOM      8  C   LIG d   1      -3.244  92.950 119.256  0.00  0.00     0.119 C 
BRANCH   8   9
ATOM      9  C   LIG d   1      -2.601  94.181 119.924  0.00  0.00     0.028 C 
ATOM     10  C   LIG d   1      -1.065  94.111 119.929  0.00  0.00     0.006 C 
ENDBRANCH   8   9
BRANCH   8  11
ATOM     11  C   LIG d   1      -2.070  92.069 118.816  0.00  0.00     0.028 C 
ATOM     12  C   LIG d   1      -2.152  90.642 119.380  0.00  0.00     0.006 C 
ENDBRANCH   8  11
ENDBRANCH   7   8
ENDBRANCH   1   7
BRANCH   6  13
ATOM     13  N   LIG d   1      -6.509  95.039 118.564  0.00  0.00    -0.311 N 
ATOM     14  C   LIG d   1      -6.819  96.317 118.349  0.00  0.00     0.210 C 
ATOM     15  C   LIG d   1      -6.989  97.163 119.614  0.00  0.00     0.109 C 
ATOM     16  O   LIG d   1      -7.000  96.821 117.231  0.00  0.00    -0.276 OA
ATOM     17  H   LIG d   1      -6.412  94.707 119.504  0.00  0.00     0.149 HD
ENDBRANCH   6  13
BRANCH   5  18
ATOM     18  N   LIG d   1      -8.456  94.498 116.273  0.00  0.00     0.381 N 
ATOM     19  H   LIG d   1      -9.109  94.054 115.659  0.00  0.00    -0.090 HD
ATOM     20  H   LIG d   1      -7.874  95.109 115.728  0.00  0.00    -0.090 HD
ATOM     21  H   LIG d   1      -8.943  95.022 116.966  0.00  0.00    -0.090 HD
ENDBRANCH   5  18
BRANCH   3  22
ATOM     22  C   LIG d   1      -6.455  90.173 115.791  0.00  0.00     0.382 C 
ATOM     23  O   LIG d   1      -5.507  89.708 115.113  0.00  0.00    -0.241 OA
ATOM     24  O   LIG d   1      -7.487  89.494 115.949  0.00  0.00    -0.241 OA
ENDBRANCH   3  22
TORSDOF 7
ENDMDL
MODEL 2
REMARK VINA RESULT:      -5.2      1.836      4.945
REMARK  7 active torsions:
REMARK  status: ('A' for Active; 'I' for Inactive)
REMARK    1  A    between atoms: C_2  and  C_3 
REMARK    2  A    between atoms: C_3  and  O_6 
REMARK    3  A    between atoms: C_3  and  C_4 
REMARK    4  A    between atoms: C_7  and  O_6 
REMARK    5  A    between atoms: C_9  and  C_10 
REMARK    6  A    between atoms: N_15  and  C_14 
REMARK    7  A    between atoms: N_20  and  C_19 
REMARK       I    between atoms: C_22  and  N_20 
ROOT
ATOM      1  C   LIG d   1      -4.601  93.252 117.774  0.00  0.00     0.161 C 
ATOM      2  C   LIG d   1      -4.361  94.425 118.509  0.00  0.00     0.016 C 
ATOM      3  C   LIG d   1      -5.263  95.513 118.555  0.00  0.00     0.038 C 
ATOM      4  C   LIG d   1      -6.543  95.439 117.987  0.00  0.00     0.028 C 
ATOM      5  C   LIG d   1      -6.629  94.472 116.811  0.00  0.00    -0.047 C 
ATOM      6  C   LIG d   1      -6.040  93.108 117.238  0.00  0.00     0.091 C 
ENDROOT
BRANCH   1   7
ATOM      7  O   LIG d   1      -4.241  92.100 118.562  0.00  0.00    -0.368 OA
BRANCH   7   8
ATOM      8  C   LIG d   1      -3.022  91.419 118.177  0.00  0.00     0.119 C 
BRANCH   8   9
ATOM      9  C   LIG d   1      -3.327  89.909 118.137  0.00  0.00     0.028 C 
ATOM     10  C   LIG d   1      -2.053  89.057 118.009  0.00  0.00     0.006 C 
ENDBRANCH   8   9
BRANCH   8  11
ATOM     11  C   LIG d   1      -1.932  91.585 119.240  0.00  0.00     0.028 C 
ATOM     12  C   LIG d   1      -0.856  92.606 118.836  0.00  0.00     0.006 C 
ENDBRANCH   8  11
ENDBRANCH   7   8
ENDBRANCH   1   7
BRANCH   6  13
ATOM     13  N   LIG d   1      -6.009  92.129 116.121  0.00  0.00    -0.311 N 
ATOM     14  C   LIG d   1      -6.351  90.849 116.257  0.00  0.00     0.210 C 
ATOM     15  C   LIG d   1      -6.227  90.007 114.983  0.00  0.00     0.109 C 
ATOM     16  O   LIG d   1      -6.776  90.339 117.304  0.00  0.00    -0.276 OA
ATOM     17  H   LIG d   1      -5.705  92.466 115.228  0.00  0.00     0.149 HD
ENDBRANCH   6  13
BRANCH   5  18
ATOM     18  N   LIG d   1      -8.044  94.390 116.404  0.00  0.00     0.381 N 
ATOM     19  H   LIG d   1      -8.574  93.924 117.114  0.00  0.00    -0.090 HD
ATOM     20  H   LIG d   1      -8.108  93.851 115.558  0.00  0.00    -0.090 HD
ATOM     21  H   LIG d   1      -8.409  95.304 116.253  0.00  0.00    -0.090 HD
ENDBRANCH   5  18
BRANCH   3  22
ATOM     22  C   LIG d   1      -4.870  96.706 119.142  0.00  0.00     0.382 C 
ATOM     23  O   LIG d   1      -3.698  97.125 118.988  0.00  0.00    -0.241 OA
ATOM     24  O   LIG d   1      -5.661  97.347 119.861  0.00  0.00    -0.241 OA
ENDBRANCH   3  22
TORSDOF 7
ENDMDL
MODEL 3
REMARK VINA RESULT:      -4.8      1.651      4.728
REMARK  7 active torsions:
REMARK  status: ('A' for Active; 'I' for Inactive)
REMARK    1  A    between atoms: C_2  and  C_3 
REMARK    2  A    between atoms: C_3  and  O_6 
REMARK    3  A    between atoms: C_3  and  C_4 
REMARK    4  A    between atoms: C_7  and  O_6 
REMARK    5  A    between atoms: C_9  and  C_10 
REMARK    6  A    between atoms: N_15  and  C_14 
REMARK    7  A    between atoms: N_20  and  C_19 
REMARK       I    between atoms: C_22  and  N_20 
ROOT
ATOM      1  C   LIG d   1      -5.147  93.356 118.309  0.00  0.00     0.161 C 
ATOM      2  C   LIG d   1      -5.264  94.598 118.955  0.00  0.00     0.016 C 
ATOM      3  C   LIG d   1      -6.223  95.574 118.599  0.00  0.00     0.038 C 
ATOM      4  C   LIG d   1      -7.237  95.311 117.666  0.00  0.00     0.028 C 
ATOM      5  C   LIG d   1      -6.850  94.259 116.632  0.00  0.00    -0.047 C 
ATOM      6  C   LIG d   1      -6.316  93.007 117.364  0.00  0.00     0.091 C 
ENDROOT
BRANCH   1   7
ATOM      7  O   LIG d   1      -4.965  92.313 119.286  0.00  0.00    -0.368 OA
BRANCH   7   8
ATOM      8  C   LIG d   1      -3.694  91.617 119.245  0.00  0.00     0.119 C 
BRANCH   8   9
ATOM      9  C   LIG d   1      -2.717  92.485 118.430  0.00  0.00     0.028 C 
ATOM     10  C   LIG d   1      -1.602  93.089 119.301  0.00  0.00     0.006 C 
ENDBRANCH   8   9
BRANCH   8  11
ATOM     11  C   LIG d   1      -3.806  90.298 118.474  0.00  0.00     0.028 C 
ATOM     12  C   LIG d   1      -2.439  89.652 118.199  0.00  0.00     0.006 C 
ENDBRANCH   8  11
ENDBRANCH   7   8
ENDBRANCH   1   7
BRANCH   6  13
ATOM     13  N   LIG d   1      -5.837  91.962 116.423  0.00  0.00    -0.311 N 
ATOM     14  C   LIG d   1      -6.595  90.951 116.002  0.00  0.00     0.210 C 
ATOM     15  C   LIG d   1      -5.899  89.973 115.050  0.00  0.00     0.109 C 
ATOM     16  O   LIG d   1      -7.787  90.789 116.301  0.00  0.00    -0.276 OA
ATOM     17  H   LIG d   1      -4.890  92.034 116.105  0.00  0.00     0.149 HD
ENDBRANCH   6  13
BRANCH   5  18
ATOM     18  N   LIG d   1      -8.043  93.983 115.809  0.00  0.00     0.381 N 
ATOM     19  H   LIG d   1      -8.578  93.247 116.225  0.00  0.00    -0.090 HD
ATOM     20  H   LIG d   1      -7.747  93.682 114.898  0.00  0.00    -0.090 HD
ATOM     21  H   LIG d   1      -8.601  94.805 115.731  0.00  0.00    -0.090 HD
ENDBRANCH   5  18
BRANCH   3  22
ATOM     22  C   LIG d   1      -6.150  96.844 119.151  0.00  0.00     0.382 C 
ATOM     23  O   LIG d   1      -7.197  97.430 119.517  0.00  0.00    -0.241 OA
ATOM     24  O   LIG d   1      -5.054  97.428 119.247  0.00  0.00    -0.241 OA
ENDBRANCH   3  22
TORSDOF 7
ENDMDL
MODEL 4
REMARK VINA RESULT:      -4.7      2.132      4.997
REMARK  7 active torsions:
REMARK  status: ('A' for Active; 'I' for Inactive)
REMARK    1  A    between atoms: C_2  and  C_3 
REMARK    2  A    between atoms: C_3  and  O_6 
REMARK    3  A    between atoms: C_3  and  C_4 
REMARK    4  A    between atoms: C_7  and  O_6 
REMARK    5  A    between atoms: C_9  and  C_10 
REMARK    6  A    between atoms: N_15  and  C_14 
REMARK    7  A    between atoms: N_20  and  C_19 
REMARK       I    between atoms: C_22  and  N_20 
ROOT
ATOM      1  C   LIG d   1      -5.314  91.912 117.509  0.00  0.00     0.161 C 
ATOM      2  C   LIG d   1      -4.425  90.850 117.741  0.00  0.00     0.016 C 
ATOM      3  C   LIG d   1      -3.236  90.980 118.496  0.00  0.00     0.038 C 
ATOM      4  C   LIG d   1      -2.931  92.154 119.201  0.00  0.00     0.028 C 
ATOM      5  C   LIG d   1      -3.543  93.408 118.584  0.00  0.00    -0.047 C 
ATOM      6  C   LIG d   1      -5.054  93.171 118.362  0.00  0.00     0.091 C 
ENDROOT
BRANCH   1   7
ATOM      7  O   LIG d   1      -6.671  91.460 117.682  0.00  0.00    -0.368 OA
BRANCH   7   8
ATOM      8  C   LIG d   1      -7.467  91.355 116.476  0.00  0.00     0.119 C 
BRANCH   8   9
ATOM      9  C   LIG d   1      -7.405  89.888 116.007  0.00  0.00     0.028 C 
ATOM     10  C   LIG d   1      -8.719  89.133 116.265  0.00  0.00     0.006 C 
ENDBRANCH   8   9
BRANCH   8  11
ATOM     11  C   LIG d   1      -6.858  92.172 115.333  0.00  0.00     0.028 C 
ATOM     12  C   LIG d   1      -7.308  91.685 113.947  0.00  0.00     0.006 C 
ENDBRANCH   8  11
ENDBRANCH   7   8
ENDBRANCH   1   7
BRANCH   6  13
ATOM     13  N   LIG d   1      -5.713  94.318 117.684  0.00  0.00    -0.311 N 
ATOM     14  C   LIG d   1      -6.791  94.934 118.166  0.00  0.00     0.210 C 
ATOM     15  C   LIG d   1      -7.323  96.080 117.300  0.00  0.00     0.109 C 
ATOM     16  O   LIG d   1      -7.338  94.661 119.246  0.00  0.00    -0.276 OA
ATOM     17  H   LIG d   1      -5.316  94.625 116.817  0.00  0.00     0.149 HD
ENDBRANCH   6  13
BRANCH   5  18
ATOM     18  N   LIG d   1      -3.261  94.535 119.493  0.00  0.00     0.381 N 
ATOM     19  H   LIG d   1      -3.694  94.371 120.380  0.00  0.00    -0.090 HD
ATOM     20  H   LIG d   1      -3.652  95.374 119.102  0.00  0.00    -0.090 HD
ATOM     21  H   LIG d   1      -2.278  94.641 119.610  0.00  0.00    -0.090 HD
ENDBRANCH   5  18
BRANCH   3  22
ATOM     22  C   LIG d   1      -2.319  89.941 118.519  0.00  0.00     0.382 C 
ATOM     23  O   LIG d   1      -1.158  90.139 118.953  0.00  0.00    -0.241 OA
ATOM     24  O   LIG d   1      -2.623  88.820 118.069  0.00  0.00    -0.241 OA
ENDBRANCH   3  22
TORSDOF 7
ENDMDL
MODEL 5
REMARK VINA RESULT:      -4.7      7.005      9.558
REMARK  7 active torsions:
REMARK  status: ('A' for Active; 'I' for Inactive)
REMARK    1  A    between atoms: C_2  and  C_3 
REMARK    2  A    between atoms: C_3  and  O_6 
REMARK    3  A    between atoms: C_3  and  C_4 
REMARK    4  A    between atoms: C_7  and  O_6 
REMARK    5  A    between atoms: C_9  and  C_10 
REMARK    6  A    between atoms: N_15  and  C_14 
REMARK    7  A    between atoms: N_20  and  C_19 
REMARK       I    between atoms: C_22  and  N_20 
ROOT
ATOM      1  C   LIG d   1       1.515  88.421 116.399  0.00  0.00     0.161 C 
ATOM      2  C   LIG d   1       0.177  88.282 116.807  0.00  0.00     0.016 C 
ATOM      3  C   LIG d   1      -0.582  89.339 117.359  0.00  0.00     0.038 C 
ATOM      4  C   LIG d   1      -0.099  90.656 117.400  0.00  0.00     0.028 C 
ATOM      5  C   LIG d   1       1.422  90.741 117.466  0.00  0.00    -0.047 C 
ATOM      6  C   LIG d   1       2.023  89.877 116.334  0.00  0.00     0.091 C 
ENDROOT
BRANCH   1   7
ATOM      7  O   LIG d   1       1.709  87.766 115.130  0.00  0.00    -0.368 OA
BRANCH   7   8
ATOM      8  C   LIG d   1       2.303  86.445 115.180  0.00  0.00     0.119 C 
BRANCH   8   9
ATOM      9  C   LIG d   1       3.170  86.375 116.452  0.00  0.00     0.028 C 
ATOM     10  C   LIG d   1       4.675  86.350 116.136  0.00  0.00     0.006 C 
ENDBRANCH   8   9
BRANCH   8  11
ATOM     11  C   LIG d   1       3.274  86.227 114.015  0.00  0.00     0.028 C 
ATOM     12  C   LIG d   1       3.037  87.202 112.851  0.00  0.00     0.006 C 
ENDBRANCH   8  11
ENDBRANCH   7   8
ENDBRANCH   1   7
BRANCH   6  13
ATOM     13  N   LIG d   1       3.508  89.837 116.378  0.00  0.00    -0.311 N 
ATOM     14  C   LIG d   1       4.278  90.047 115.312  0.00  0.00     0.210 C 
ATOM     15  C   LIG d   1       5.784  89.940 115.572  0.00  0.00     0.109 C 
ATOM     16  O   LIG d   1       3.859  90.343 114.183  0.00  0.00    -0.276 OA
ATOM     17  H   LIG d   1       3.933  89.634 117.262  0.00  0.00     0.149 HD
ENDBRANCH   6  13
BRANCH   5  18
ATOM     18  N   LIG d   1       1.793  92.165 117.366  0.00  0.00     0.381 N 
ATOM     19  H   LIG d   1       2.787  92.251 117.284  0.00  0.00    -0.090 HD
ATOM     20  H   LIG d   1       1.504  92.637 118.204  0.00  0.00    -0.090 HD
ATOM     21  H   LIG d   1       1.351  92.578 116.574  0.00  0.00    -0.090 HD
ENDBRANCH   5  18
BRANCH   3  22
ATOM     22  C   LIG d   1      -1.825  89.076 117.913  0.00  0.00     0.382 C 
ATOM     23  O   LIG d   1      -2.028  87.992 118.511  0.00  0.00    -0.241 OA
ATOM     24  O   LIG d   1      -2.760  89.889 117.783  0.00  0.00    -0.241 OA
ENDBRANCH   3  22
TORSDOF 7
ENDMDL
MODEL 6
REMARK VINA RESULT:      -4.7      5.998      8.439
REMARK  7 active torsions:
REMARK  status: ('A' for Active; 'I' for Inactive)
REMARK    1  A    between atoms: C_2  and  C_3 
REMARK    2  A    between atoms: C_3  and  O_6 
REMARK    3  A    between atoms: C_3  and  C_4 
REMARK    4  A    between atoms: C_7  and  O_6 
REMARK    5  A    between atoms: C_9  and  C_10 
REMARK    6  A    between atoms: N_15  and  C_14 
REMARK    7  A    between atoms: N_20  and  C_19 
REMARK       I    between atoms: C_22  and  N_20 
ROOT
ATOM      1  C   LIG d   1       0.881  89.150 117.076  0.00  0.00     0.161 C 
ATOM      2  C   LIG d   1      -0.486  88.857 117.205  0.00  0.00     0.016 C 
ATOM      3  C   LIG d   1      -1.406  89.705 117.864  0.00  0.00     0.038 C 
ATOM      4  C   LIG d   1      -1.045  90.985 118.311  0.00  0.00     0.028 C 
ATOM      5  C   LIG d   1       0.436  91.112 118.651  0.00  0.00    -0.047 C 
ATOM      6  C   LIG d   1       1.272  90.593 117.459  0.00  0.00     0.091 C 
ENDROOT
BRANCH   1   7
ATOM      7  O   LIG d   1       1.321  88.851 115.736  0.00  0.00    -0.368 OA
BRANCH   7   8
ATOM      8  C   LIG d   1       2.436  87.933 115.622  0.00  0.00     0.119 C 
BRANCH   8   9
ATOM      9  C   LIG d   1       3.195  88.285 114.328  0.00  0.00     0.028 C 
ATOM     10  C   LIG d   1       4.083  89.530 114.489  0.00  0.00     0.006 C 
ENDBRANCH   8   9
BRANCH   8  11
ATOM     11  C   LIG d   1       1.954  86.492 115.430  0.00  0.00     0.028 C 
ATOM     12  C   LIG d   1       1.759  86.121 113.951  0.00  0.00     0.006 C 
ENDBRANCH   8  11
ENDBRANCH   7   8
ENDBRANCH   1   7
BRANCH   6  13
ATOM     13  N   LIG d   1       2.731  90.604 117.742  0.00  0.00    -0.311 N 
ATOM     14  C   LIG d   1       3.529  91.627 117.442  0.00  0.00     0.210 C 
ATOM     15  C   LIG d   1       5.004  91.424 117.801  0.00  0.00     0.109 C 
ATOM     16  O   LIG d   1       3.149  92.696 116.941  0.00  0.00    -0.276 OA
ATOM     17  H   LIG d   1       3.118  89.788 118.176  0.00  0.00     0.149 HD
ENDBRANCH   6  13
BRANCH   5  18
ATOM     18  N   LIG d   1       0.700  92.528 118.969  0.00  0.00     0.381 N 
ATOM     19  H   LIG d   1       0.424  93.105 118.201  0.00  0.00    -0.090 HD
ATOM     20  H   LIG d   1       1.687  92.650 119.116  0.00  0.00    -0.090 HD
ATOM     21  H   LIG d   1       0.200  92.792 119.790  0.00  0.00    -0.090 HD
ENDBRANCH   5  18
BRANCH   3  22
ATOM     22  C   LIG d   1      -2.693  89.258 118.118  0.00  0.00     0.382 C 
ATOM     23  O   LIG d   1      -2.889  88.366 118.979  0.00  0.00    -0.241 OA
ATOM     24  O   LIG d   1      -3.657  89.703 117.466  0.00  0.00    -0.241 OA
ENDBRANCH   3  22
TORSDOF 7
ENDMDL
MODEL 7
REMARK VINA RESULT:      -4.6      7.721     10.198
REMARK  7 active torsions:
REMARK  status: ('A' for Active; 'I' for Inactive)
REMARK    1  A    between atoms: C_2  and  C_3 
REMARK    2  A    between atoms: C_3  and  O_6 
REMARK    3  A    between atoms: C_3  and  C_4 
REMARK    4  A    between atoms: C_7  and  O_6 
REMARK    5  A    between atoms: C_9  and  C_10 
REMARK    6  A    between atoms: N_15  and  C_14 
REMARK    7  A    between atoms: N_20  and  C_19 
REMARK       I    between atoms: C_22  and  N_20 
ROOT
ATOM      1  C   LIG d   1       3.054  90.011 116.562  0.00  0.00     0.161 C 
ATOM      2  C   LIG d   1       2.856  89.443 115.293  0.00  0.00     0.016 C 
ATOM      3  C   LIG d   1       3.914  89.003 114.464  0.00  0.00     0.038 C 
ATOM      4  C   LIG d   1       5.241  88.962 114.915  0.00  0.00     0.028 C 
ATOM      5  C   LIG d   1       5.546  89.993 115.997  0.00  0.00    -0.047 C 
ATOM      6  C   LIG d   1       4.487  89.873 117.117  0.00  0.00     0.091 C 
ENDROOT
BRANCH   1   7
ATOM      7  O   LIG d   1       2.101  89.466 117.496  0.00  0.00    -0.368 OA
BRANCH   7   8
ATOM      8  C   LIG d   1       0.712  89.507 117.085  0.00  0.00     0.119 C 
BRANCH   8   9
ATOM      9  C   LIG d   1       0.008  90.579 117.940  0.00  0.00     0.028 C 
ATOM     10  C   LIG d   1       0.010  91.961 117.266  0.00  0.00     0.006 C 
ENDBRANCH   8   9
BRANCH   8  11
ATOM     11  C   LIG d   1      -0.005  88.193 117.412  0.00  0.00     0.028 C 
ATOM     12  C   LIG d   1      -1.415  88.410 117.982  0.00  0.00     0.006 C 
ENDBRANCH   8  11
ENDBRANCH   7   8
ENDBRANCH   1   7
BRANCH   6  13
ATOM     13  N   LIG d   1       4.662  90.902 118.175  0.00  0.00    -0.311 N 
ATOM     14  C   LIG d   1       4.373  92.190 117.999  0.00  0.00     0.210 C 
ATOM     15  C   LIG d   1       4.646  93.085 119.212  0.00  0.00     0.109 C 
ATOM     16  O   LIG d   1       3.886  92.671 116.965  0.00  0.00    -0.276 OA
ATOM     17  H   LIG d   1       5.023  90.593 119.056  0.00  0.00     0.149 HD
ENDBRANCH   6  13
BRANCH   5  18
ATOM     18  N   LIG d   1       6.921  89.748 116.472  0.00  0.00     0.381 N 
ATOM     19  H   LIG d   1       6.921  89.640 117.467  0.00  0.00    -0.090 HD
ATOM     20  H   LIG d   1       7.491  90.542 116.240  0.00  0.00    -0.090 HD
ATOM     21  H   LIG d   1       7.289  88.928 116.042  0.00  0.00    -0.090 HD
ENDBRANCH   5  18
BRANCH   3  22
ATOM     22  C   LIG d   1       3.652  88.634 113.153  0.00  0.00     0.382 C 
ATOM     23  O   LIG d   1       4.561  88.132 112.450  0.00  0.00    -0.241 OA
ATOM     24  O   LIG d   1       2.530  88.839 112.652  0.00  0.00    -0.241 OA
ENDBRANCH   3  22
TORSDOF 7
ENDMDL
MODEL 8
REMARK VINA RESULT:      -4.6      2.090      4.669
REMARK  7 active torsions:
REMARK  status: ('A' for Active; 'I' for Inactive)
REMARK    1  A    between atoms: C_2  and  C_3 
REMARK    2  A    between atoms: C_3  and  O_6 
REMARK    3  A    between atoms: C_3  and  C_4 
REMARK    4  A    between atoms: C_7  and  O_6 
REMARK    5  A    between atoms: C_9  and  C_10 
REMARK    6  A    between atoms: N_15  and  C_14 
REMARK    7  A    between atoms: N_20  and  C_19 
REMARK       I    between atoms: C_22  and  N_20 
ROOT
ATOM      1  C   LIG d   1      -4.997  93.637 117.708  0.00  0.00     0.161 C 
ATOM      2  C   LIG d   1      -5.778  92.940 116.771  0.00  0.00     0.016 C 
ATOM      3  C   LIG d   1      -5.939  91.535 116.784  0.00  0.00     0.038 C 
ATOM      4  C   LIG d   1      -5.449  90.742 117.833  0.00  0.00     0.028 C 
ATOM      5  C   LIG d   1      -4.230  91.342 118.526  0.00  0.00    -0.047 C 
ATOM      6  C   LIG d   1      -4.546  92.802 118.924  0.00  0.00     0.091 C 
ENDROOT
BRANCH   1   7
ATOM      7  O   LIG d   1      -5.698  94.819 118.144  0.00  0.00    -0.368 OA
BRANCH   7   8
ATOM      8  C   LIG d   1      -7.115  94.865 117.848  0.00  0.00     0.119 C 
BRANCH   8   9
ATOM      9  C   LIG d   1      -7.441  96.293 117.367  0.00  0.00     0.028 C 
ATOM     10  C   LIG d   1      -7.298  97.336 118.487  0.00  0.00     0.006 C 
ENDBRANCH   8   9
BRANCH   8  11
ATOM     11  C   LIG d   1      -7.956  94.661 119.112  0.00  0.00     0.028 C 
ATOM     12  C   LIG d   1      -8.706  93.320 119.119  0.00  0.00     0.006 C 
ENDBRANCH   8  11
ENDBRANCH   7   8
ENDBRANCH   1   7
BRANCH   6  13
ATOM     13  N   LIG d   1      -3.377  93.489 119.533  0.00  0.00    -0.311 N 
ATOM     14  C   LIG d   1      -2.119  93.267 119.158  0.00  0.00     0.210 C 
ATOM     15  C   LIG d   1      -1.064  94.066 119.930  0.00  0.00     0.109 C 
ATOM     16  O   LIG d   1      -1.778  92.508 118.239  0.00  0.00    -0.276 OA
ATOM     17  H   LIG d   1      -3.565  94.145 120.266  0.00  0.00     0.149 HD
ENDBRANCH   6  13
BRANCH   5  18
ATOM     18  N   LIG d   1      -3.909  90.484 119.683  0.00  0.00     0.381 N 
ATOM     19  H   LIG d   1      -3.828  91.044 120.508  0.00  0.00    -0.090 HD
ATOM     20  H   LIG d   1      -3.025  90.035 119.519  0.00  0.00    -0.090 HD
ATOM     21  H   LIG d   1      -4.620  89.798 119.807  0.00  0.00    -0.090 HD
ENDBRANCH   5  18
BRANCH   3  22
ATOM     22  C   LIG d   1      -6.563  90.905 115.719  0.00  0.00     0.382 C 
ATOM     23  O   LIG d   1      -6.952  89.717 115.833  0.00  0.00    -0.241 OA
ATOM     24  O   LIG d   1      -6.702  91.494 114.630  0.00  0.00    -0.241 OA
ENDBRANCH   3  22
TORSDOF 7
ENDMDL
MODEL 9
REMARK VINA RESULT:      -4.5      6.558      9.112
REMARK  7 active torsions:
REMARK  status: ('A' for Active; 'I' for Inactive)
REMARK    1  A    between atoms: C_2  and  C_3 
REMARK    2  A    between atoms: C_3  and  O_6 
REMARK    3  A    between atoms: C_3  and  C_4 
REMARK    4  A    between atoms: C_7  and  O_6 
REMARK    5  A    between atoms: C_9  and  C_10 
REMARK    6  A    between atoms: N_15  and  C_14 
REMARK    7  A    between atoms: N_20  and  C_19 
REMARK       I    between atoms: C_22  and  N_20 
ROOT
ATOM      1  C   LIG d   1       1.920  90.199 117.192  0.00  0.00     0.161 C 
ATOM      2  C   LIG d   1       2.559  89.694 116.048  0.00  0.00     0.016 C 
ATOM      3  C   LIG d   1       3.857  90.084 115.646  0.00  0.00     0.038 C 
ATOM      4  C   LIG d   1       4.669  90.898 116.450  0.00  0.00     0.028 C 
ATOM      5  C   LIG d   1       3.879  91.831 117.360  0.00  0.00    -0.047 C 
ATOM      6  C   LIG d   1       2.833  91.004 118.141  0.00  0.00     0.091 C 
ENDROOT
BRANCH   1   7
ATOM      7  O   LIG d   1       1.276  89.126 117.907  0.00  0.00    -0.368 OA
BRANCH   7   8
ATOM      8  C   LIG d   1       0.001  88.684 117.380  0.00  0.00     0.119 C 
BRANCH   8   9
ATOM      9  C   LIG d   1      -1.033  89.784 117.687  0.00  0.00     0.028 C 
ATOM     10  C   LIG d   1      -2.427  89.210 117.992  0.00  0.00     0.006 C 
ENDBRANCH   8   9
BRANCH   8  11
ATOM     11  C   LIG d   1      -0.503  87.437 118.113  0.00  0.00     0.028 C 
ATOM     12  C   LIG d   1       0.505  86.277 118.079  0.00  0.00     0.006 C 
ENDBRANCH   8  11
ENDBRANCH   7   8
ENDBRANCH   1   7
BRANCH   6  13
ATOM     13  N   LIG d   1       1.959  91.852 118.993  0.00  0.00    -0.311 N 
ATOM     14  C   LIG d   1       1.205  92.841 118.515  0.00  0.00     0.210 C 
ATOM     15  C   LIG d   1       0.396  93.604 119.567  0.00  0.00     0.109 C 
ATOM     16  O   LIG d   1       1.105  93.136 117.314  0.00  0.00    -0.276 OA
ATOM     17  H   LIG d   1       1.956  91.661 119.976  0.00  0.00     0.149 HD
ENDBRANCH   6  13
BRANCH   5  18
ATOM     18  N   LIG d   1       4.843  92.521 118.238  0.00  0.00     0.381 N 
ATOM     19  H   LIG d   1       4.966  91.999 119.082  0.00  0.00    -0.090 HD
ATOM     20  H   LIG d   1       4.477  93.425 118.476  0.00  0.00    -0.090 HD
ATOM     21  H   LIG d   1       5.718  92.621 117.771  0.00  0.00    -0.090 HD
ENDBRANCH   5  18
BRANCH   3  22
ATOM     22  C   LIG d   1       4.341  89.689 114.408  0.00  0.00     0.382 C 
ATOM     23  O   LIG d   1       5.123  88.712 114.322  0.00  0.00    -0.241 OA
ATOM     24  O   LIG d   1       4.039  90.325 113.380  0.00  0.00    -0.241 OA
ENDBRANCH   3  22
TORSDOF 7
ENDMDL
