MODEL 1
REMARK VINA RESULT:      -5.1      0.000      0.000
REMARK  7 active torsions:
REMARK  status: ('A' for Active; 'I' for Inactive)
REMARK    1  A    between atoms: C_2  and  C_3 
REMARK    2  A    between atoms: C_3  and  O_6 
REMARK    3  A    between atoms: C_3  and  C_4 
REMARK    4  A    between atoms: C_7  and  O_6 
REMARK    5  A    between atoms: C_9  and  C_10 
REMARK    6  A    between atoms: N_15  and  C_14 
REMARK    7  A    between atoms: N_20  and  C_19 
REMARK       I    between atoms: C_22  and  N_20 
ROOT
ATOM      1  C   LIG d   1      -5.096  92.529 117.361  0.00  0.00     0.161 C 
ATOM      2  C   LIG d   1      -4.464  93.400 118.264  0.00  0.00     0.016 C 
ATOM      3  C   LIG d   1      -5.095  94.538 118.817  0.00  0.00     0.038 C 
ATOM      4  C   LIG d   1      -6.459  94.800 118.620  0.00  0.00     0.028 C 
ATOM      5  C   LIG d   1      -7.003  94.230 117.314  0.00  0.00    -0.047 C 
ATOM      6  C   LIG d   1      -6.619  92.735 117.221  0.00  0.00     0.091 C 
ENDROOT
BRANCH   1   7
ATOM      7  O   LIG d   1      -4.807  91.162 117.717  0.00  0.00    -0.368 OA
BRANCH   7   8
ATOM      8  C   LIG d   1      -3.657  90.957 118.574  0.00  0.00     0.119 C 
BRANCH   8   9
ATOM      9  C   LIG d   1      -2.494  90.478 117.683  0.00  0.00     0.028 C 
ATOM     10  C   LIG d   1      -1.310  91.459 117.687  0.00  0.00     0.006 C 
ENDBRANCH   8   9
BRANCH   8  11
ATOM     11  C   LIG d   1      -3.900  89.819 119.570  0.00  0.00     0.028 C 
ATOM     12  C   LIG d   1      -2.733  88.821 119.631  0.00  0.00     0.006 C 
ENDBRANCH   8  11
ENDBRANCH   7   8
ENDBRANCH   1   7
BRANCH   6  13
ATOM     13  N   LIG d   1      -7.040  92.121 115.935  0.00  0.00    -0.311 N 
ATOM     14  C   LIG d   1      -7.693  90.963 115.854  0.00  0.00     0.210 C 
ATOM     15  C   LIG d   1      -8.015  90.500 114.430  0.00  0.00     0.109 C 
ATOM     16  O   LIG d   1      -8.066  90.292 116.828  0.00  0.00    -0.276 OA
ATOM     17  H   LIG d   1      -6.806  92.614 115.096  0.00  0.00     0.149 HD
ENDBRANCH   6  13
BRANCH   5  18
ATOM     18  N   LIG d   1      -8.460  94.454 117.303  0.00  0.00     0.381 N 
ATOM     19  H   LIG d   1      -8.770  94.716 118.217  0.00  0.00    -0.090 HD
ATOM     20  H   LIG d   1      -8.919  93.597 117.048  0.00  0.00    -0.090 HD
ATOM     21  H   LIG d   1      -8.690  95.170 116.649  0.00  0.00    -0.090 HD
ENDBRANCH   5  18
BRANCH   3  22
ATOM     22  C   LIG d   1      -4.347  95.452 119.545  0.00  0.00     0.382 C 
ATOM     23  O   LIG d   1      -3.162  95.184 119.858  0.00  0.00    -0.241 OA
ATOM     24  O   LIG d   1      -4.857  96.521 119.930  0.00  0.00    -0.241 OA
ENDBRANCH   3  22
TORSDOF 7
ENDMDL
MODEL 2
REMARK VINA RESULT:      -4.9      2.313      4.497
REMARK  7 active torsions:
REMARK  status: ('A' for Active; 'I' for Inactive)
REMARK    1  A    between atoms: C_2  and  C_3 
REMARK    2  A    between atoms: C_3  and  O_6 
REMARK    3  A    between atoms: C_3  and  C_4 
REMARK    4  A    between atoms: C_7  and  O_6 
REMARK    5  A    between atoms: C_9  and  C_10 
REMARK    6  A    between atoms: N_15  and  C_14 
REMARK    7  A    between atoms: N_20  and  C_19 
REMARK       I    between atoms: C_22  and  N_20 
ROOT
ATOM      1  C   LIG d   1      -6.369  92.015 118.722  0.00  0.00     0.161 C 
ATOM      2  C   LIG d   1      -6.999  93.268 118.639  0.00  0.00     0.016 C 
ATOM      3  C   LIG d   1      -6.314  94.495 118.800  0.00  0.00     0.038 C 
ATOM      4  C   LIG d   1      -4.917  94.556 118.905  0.00  0.00     0.028 C 
ATOM      5  C   LIG d   1      -4.298  93.294 119.498  0.00  0.00    -0.047 C 
ATOM      6  C   LIG d   1      -4.827  92.065 118.724  0.00  0.00     0.091 C 
ENDROOT
BRANCH   1   7
ATOM      7  O   LIG d   1      -6.841  91.161 117.661  0.00  0.00    -0.368 OA
BRANCH   7   8
ATOM      8  C   LIG d   1      -6.883  91.751 116.338  0.00  0.00     0.119 C 
BRANCH   8   9
ATOM      9  C   LIG d   1      -7.884  90.934 115.498  0.00  0.00     0.028 C 
ATOM     10  C   LIG d   1      -8.300  91.663 114.209  0.00  0.00     0.006 C 
ENDBRANCH   8   9
BRANCH   8  11
ATOM     11  C   LIG d   1      -5.538  91.606 115.620  0.00  0.00     0.028 C 
ATOM     12  C   LIG d   1      -5.137  90.139 115.396  0.00  0.00     0.006 C 
ENDBRANCH   8  11
ENDBRANCH   7   8
ENDBRANCH   1   7
BRANCH   6  13
ATOM     13  N   LIG d   1      -4.337  90.783 119.294  0.00  0.00    -0.311 N 
ATOM     14  C   LIG d   1      -3.259  90.145 118.843  0.00  0.00     0.210 C 
ATOM     15  C   LIG d   1      -2.939  88.828 119.558  0.00  0.00     0.109 C 
ATOM     16  O   LIG d   1      -2.518  90.560 117.939  0.00  0.00    -0.276 OA
ATOM     17  H   LIG d   1      -4.861  90.391 120.052  0.00  0.00     0.149 HD
ENDBRANCH   6  13
BRANCH   5  18
ATOM     18  N   LIG d   1      -2.832  93.439 119.421  0.00  0.00     0.381 N 
ATOM     19  H   LIG d   1      -2.421  93.184 120.297  0.00  0.00    -0.090 HD
ATOM     20  H   LIG d   1      -2.609  94.401 119.236  0.00  0.00    -0.090 HD
ATOM     21  H   LIG d   1      -2.470  92.861 118.695  0.00  0.00    -0.090 HD
ENDBRANCH   5  18
BRANCH   3  22
ATOM     22  C   LIG d   1      -7.034  95.676 118.897  0.00  0.00     0.382 C 
ATOM     23  O   LIG d   1      -6.642  96.701 118.289  0.00  0.00    -0.241 OA
ATOM     24  O   LIG d   1      -8.045  95.742 119.621  0.00  0.00    -0.241 OA
ENDBRANCH   3  22
TORSDOF 7
ENDMDL
MODEL 3
REMARK VINA RESULT:      -4.5      2.604      5.823
REMARK  7 active torsions:
REMARK  status: ('A' for Active; 'I' for Inactive)
REMARK    1  A    between atoms: C_2  and  C_3 
REMARK    2  A    between atoms: C_3  and  O_6 
REMARK    3  A    between atoms: C_3  and  C_4 
REMARK    4  A    between atoms: C_7  and  O_6 
REMARK    5  A    between atoms: C_9  and  C_10 
REMARK    6  A    between atoms: N_15  and  C_14 
REMARK    7  A    between atoms: N_20  and  C_19 
REMARK       I    between atoms: C_22  and  N_20 
ROOT
ATOM      1  C   LIG d   1      -5.425  92.999 118.104  0.00  0.00     0.161 C 
ATOM      2  C   LIG d   1      -6.242  92.952 116.963  0.00  0.00     0.016 C 
ATOM      3  C   LIG d   1      -6.202  91.899 116.020  0.00  0.00     0.038 C 
ATOM      4  C   LIG d   1      -5.443  90.738 116.237  0.00  0.00     0.028 C 
ATOM      5  C   LIG d   1      -4.224  90.969 117.122  0.00  0.00    -0.047 C 
ATOM      6  C   LIG d   1      -4.671  91.689 118.415  0.00  0.00     0.091 C 
ENDROOT
BRANCH   1   7
ATOM      7  O   LIG d   1      -6.202  93.412 119.245  0.00  0.00    -0.368 OA
BRANCH   7   8
ATOM      8  C   LIG d   1      -5.790  94.645 119.885  0.00  0.00     0.119 C 
BRANCH   8   9
ATOM      9  C   LIG d   1      -7.006  95.592 119.890  0.00  0.00     0.028 C 
ATOM     10  C   LIG d   1      -6.994  96.568 118.702  0.00  0.00     0.006 C 
ENDBRANCH   8   9
BRANCH   8  11
ATOM     11  C   LIG d   1      -4.717  95.367 119.065  0.00  0.00     0.028 C 
ATOM     12  C   LIG d   1      -3.489  95.757 119.902  0.00  0.00     0.006 C 
ENDBRANCH   8  11
ENDBRANCH   7   8
ENDBRANCH   1   7
BRANCH   6  13
ATOM     13  N   LIG d   1      -3.526  92.028 119.300  0.00  0.00    -0.311 N 
ATOM     14  C   LIG d   1      -2.345  92.443 118.844  0.00  0.00     0.210 C 
ATOM     15  C   LIG d   1      -1.296  92.719 119.926  0.00  0.00     0.109 C 
ATOM     16  O   LIG d   1      -2.077  92.639 117.650  0.00  0.00    -0.276 OA
ATOM     17  H   LIG d   1      -3.666  91.927 120.286  0.00  0.00     0.149 HD
ENDBRANCH   6  13
BRANCH   5  18
ATOM     18  N   LIG d   1      -3.604  89.655 117.377  0.00  0.00     0.381 N 
ATOM     19  H   LIG d   1      -4.209  88.926 117.055  0.00  0.00    -0.090 HD
ATOM     20  H   LIG d   1      -3.476  89.543 118.368  0.00  0.00    -0.090 HD
ATOM     21  H   LIG d   1      -2.724  89.597 116.913  0.00  0.00    -0.090 HD
ENDBRANCH   5  18
BRANCH   3  22
ATOM     22  C   LIG d   1      -6.897  92.018 114.826  0.00  0.00     0.382 C 
ATOM     23  O   LIG d   1      -6.379  92.625 113.858  0.00  0.00    -0.241 OA
ATOM     24  O   LIG d   1      -8.052  91.565 114.720  0.00  0.00    -0.241 OA
ENDBRANCH   3  22
TORSDOF 7
ENDMDL
MODEL 4
REMARK VINA RESULT:      -4.4      9.710     12.200
REMARK  7 active torsions:
REMARK  status: ('A' for Active; 'I' for Inactive)
REMARK    1  A    between atoms: C_2  and  C_3 
REMARK    2  A    between atoms: C_3  and  O_6 
REMARK    3  A    between atoms: C_3  and  C_4 
REMARK    4  A    between atoms: C_7  and  O_6 
REMARK    5  A    between atoms: C_9  and  C_10 
REMARK    6  A    between atoms: N_15  and  C_14 
REMARK    7  A    between atoms: N_20  and  C_19 
REMARK       I    between atoms: C_22  and  N_20 
ROOT
ATOM      1  C   LIG d   1       4.667  87.906 116.969  0.00  0.00     0.161 C 
ATOM      2  C   LIG d   1       3.772  88.961 116.722  0.00  0.00     0.016 C 
ATOM      3  C   LIG d   1       4.171  90.314 116.631  0.00  0.00     0.038 C 
ATOM      4  C   LIG d   1       5.522  90.691 116.631  0.00  0.00     0.028 C 
ATOM      5  C   LIG d   1       6.422  89.716 117.382  0.00  0.00    -0.047 C 
ATOM      6  C   LIG d   1       6.159  88.285 116.860  0.00  0.00     0.091 C 
ENDROOT
BRANCH   1   7
ATOM      7  O   LIG d   1       4.367  86.797 116.098  0.00  0.00    -0.368 OA
BRANCH   7   8
ATOM      8  C   LIG d   1       3.689  87.124 114.860  0.00  0.00     0.119 C 
BRANCH   8   9
ATOM      9  C   LIG d   1       2.603  86.055 114.631  0.00  0.00     0.028 C 
ATOM     10  C   LIG d   1       2.010  86.116 113.213  0.00  0.00     0.006 C 
ENDBRANCH   8   9
BRANCH   8  11
ATOM     11  C   LIG d   1       4.633  87.006 113.660  0.00  0.00     0.028 C 
ATOM     12  C   LIG d   1       5.171  88.367 113.189  0.00  0.00     0.006 C 
ENDBRANCH   8  11
ENDBRANCH   7   8
ENDBRANCH   1   7
BRANCH   6  13
ATOM     13  N   LIG d   1       6.938  87.259 117.601  0.00  0.00    -0.311 N 
ATOM     14  C   LIG d   1       7.804  86.433 117.017  0.00  0.00     0.210 C 
ATOM     15  C   LIG d   1       8.487  85.438 117.960  0.00  0.00     0.109 C 
ATOM     16  O   LIG d   1       8.096  86.452 115.811  0.00  0.00    -0.276 OA
ATOM     17  H   LIG d   1       6.786  87.196 118.589  0.00  0.00     0.149 HD
ENDBRANCH   6  13
BRANCH   5  18
ATOM     18  N   LIG d   1       7.817  90.155 117.185  0.00  0.00     0.381 N 
ATOM     19  H   LIG d   1       8.075  90.043 116.225  0.00  0.00    -0.090 HD
ATOM     20  H   LIG d   1       8.421  89.579 117.743  0.00  0.00    -0.090 HD
ATOM     21  H   LIG d   1       7.915  91.110 117.454  0.00  0.00    -0.090 HD
ENDBRANCH   5  18
BRANCH   3  22
ATOM     22  C   LIG d   1       3.209  91.312 116.579  0.00  0.00     0.382 C 
ATOM     23  O   LIG d   1       1.992  91.008 116.537  0.00  0.00    -0.241 OA
ATOM     24  O   LIG d   1       3.544  92.510 116.528  0.00  0.00    -0.241 OA
ENDBRANCH   3  22
TORSDOF 7
ENDMDL
MODEL 5
REMARK VINA RESULT:      -4.4      6.719      9.002
REMARK  7 active torsions:
REMARK  status: ('A' for Active; 'I' for Inactive)
REMARK    1  A    between atoms: C_2  and  C_3 
REMARK    2  A    between atoms: C_3  and  O_6 
REMARK    3  A    between atoms: C_3  and  C_4 
REMARK    4  A    between atoms: C_7  and  O_6 
REMARK    5  A    between atoms: C_9  and  C_10 
REMARK    6  A    between atoms: N_15  and  C_14 
REMARK    7  A    between atoms: N_20  and  C_19 
REMARK       I    between atoms: C_22  and  N_20 
ROOT
ATOM      1  C   LIG d   1       1.985  89.586 117.213  0.00  0.00     0.161 C 
ATOM      2  C   LIG d   1       2.205  90.884 117.704  0.00  0.00     0.016 C 
ATOM      3  C   LIG d   1       3.368  91.636 117.420  0.00  0.00     0.038 C 
ATOM      4  C   LIG d   1       4.328  91.197 116.496  0.00  0.00     0.028 C 
ATOM      5  C   LIG d   1       4.395  89.679 116.367  0.00  0.00    -0.047 C 
ATOM      6  C   LIG d   1       2.970  89.134 116.115  0.00  0.00     0.091 C 
ENDROOT
BRANCH   1   7
ATOM      7  O   LIG d   1       0.626  89.463 116.749  0.00  0.00    -0.368 OA
BRANCH   7   8
ATOM      8  C   LIG d   1      -0.267  88.692 117.591  0.00  0.00     0.119 C 
BRANCH   8   9
ATOM      9  C   LIG d   1      -1.227  89.684 118.276  0.00  0.00     0.028 C 
ATOM     10  C   LIG d   1      -2.438  88.982 118.915  0.00  0.00     0.006 C 
ENDBRANCH   8   9
BRANCH   8  11
ATOM     11  C   LIG d   1       0.493  88.010 118.732  0.00  0.00     0.028 C 
ATOM     12  C   LIG d   1       0.525  86.479 118.594  0.00  0.00     0.006 C 
ENDBRANCH   8  11
ENDBRANCH   7   8
ENDBRANCH   1   7
BRANCH   6  13
ATOM     13  N   LIG d   1       2.933  87.649 116.060  0.00  0.00    -0.311 N 
ATOM     14  C   LIG d   1       2.544  86.965 114.986  0.00  0.00     0.210 C 
ATOM     15  C   LIG d   1       2.561  85.441 115.149  0.00  0.00     0.109 C 
ATOM     16  O   LIG d   1       2.217  87.473 113.903  0.00  0.00    -0.276 OA
ATOM     17  H   LIG d   1       3.212  87.155 116.886  0.00  0.00     0.149 HD
ENDBRANCH   6  13
BRANCH   5  18
ATOM     18  N   LIG d   1       5.336  89.365 115.276  0.00  0.00     0.381 N 
ATOM     19  H   LIG d   1       5.541  88.386 115.277  0.00  0.00    -0.090 HD
ATOM     20  H   LIG d   1       6.192  89.867 115.431  0.00  0.00    -0.090 HD
ATOM     21  H   LIG d   1       4.942  89.628 114.399  0.00  0.00    -0.090 HD
ENDBRANCH   5  18
BRANCH   3  22
ATOM     22  C   LIG d   1       3.599  92.826 118.094  0.00  0.00     0.382 C 
ATOM     23  O   LIG d   1       3.151  92.985 119.255  0.00  0.00    -0.241 OA
ATOM     24  O   LIG d   1       4.210  93.758 117.538  0.00  0.00    -0.241 OA
ENDBRANCH   3  22
TORSDOF 7
ENDMDL
MODEL 6
REMARK VINA RESULT:      -4.4      7.738     10.729
REMARK  7 active torsions:
REMARK  status: ('A' for Active; 'I' for Inactive)
REMARK    1  A    between atoms: C_2  and  C_3 
REMARK    2  A    between atoms: C_3  and  O_6 
REMARK    3  A    between atoms: C_3  and  C_4 
REMARK    4  A    between atoms: C_7  and  O_6 
REMARK    5  A    between atoms: C_9  and  C_10 
REMARK    6  A    between atoms: N_15  and  C_14 
REMARK    7  A    between atoms: N_20  and  C_19 
REMARK       I    between atoms: C_22  and  N_20 
ROOT
ATOM      1  C   LIG d   1       4.026  88.226 116.645  0.00  0.00     0.161 C 
ATOM      2  C   LIG d   1       4.609  88.663 115.444  0.00  0.00     0.016 C 
ATOM      3  C   LIG d   1       4.282  88.123 114.178  0.00  0.00     0.038 C 
ATOM      4  C   LIG d   1       3.233  87.208 114.011  0.00  0.00     0.028 C 
ATOM      5  C   LIG d   1       2.960  86.366 115.254  0.00  0.00    -0.047 C 
ATOM      6  C   LIG d   1       2.799  87.306 116.470  0.00  0.00     0.091 C 
ENDROOT
BRANCH   1   7
ATOM      7  O   LIG d   1       3.688  89.362 117.465  0.00  0.00    -0.368 OA
BRANCH   7   8
ATOM      8  C   LIG d   1       2.840  90.363 116.850  0.00  0.00     0.119 C 
BRANCH   8   9
ATOM      9  C   LIG d   1       3.611  91.697 116.868  0.00  0.00     0.028 C 
ATOM     10  C   LIG d   1       4.810  91.669 117.831  0.00  0.00     0.006 C 
ENDBRANCH   8   9
BRANCH   8  11
ATOM     11  C   LIG d   1       1.578  90.612 117.682  0.00  0.00     0.028 C 
ATOM     12  C   LIG d   1       0.304  90.683 116.826  0.00  0.00     0.006 C 
ENDBRANCH   8  11
ENDBRANCH   7   8
ENDBRANCH   1   7
BRANCH   6  13
ATOM     13  N   LIG d   1       2.613  86.560 117.742  0.00  0.00    -0.311 N 
ATOM     14  C   LIG d   1       1.500  86.620 118.471  0.00  0.00     0.210 C 
ATOM     15  C   LIG d   1       1.524  85.789 119.758  0.00  0.00     0.109 C 
ATOM     16  O   LIG d   1       0.484  87.258 118.159  0.00  0.00    -0.276 OA
ATOM     17  H   LIG d   1       3.376  85.992 118.054  0.00  0.00     0.149 HD
ENDBRANCH   6  13
BRANCH   5  18
ATOM     18  N   LIG d   1       1.757  85.555 114.987  0.00  0.00     0.381 N 
ATOM     19  H   LIG d   1       1.526  85.016 115.797  0.00  0.00    -0.090 HD
ATOM     20  H   LIG d   1       1.953  84.922 114.232  0.00  0.00    -0.090 HD
ATOM     21  H   LIG d   1       0.993  86.147 114.744  0.00  0.00    -0.090 HD
ENDBRANCH   5  18
BRANCH   3  22
ATOM     22  C   LIG d   1       5.037  88.470 113.068  0.00  0.00     0.382 C 
ATOM     23  O   LIG d   1       5.059  89.661 112.672  0.00  0.00    -0.241 OA
ATOM     24  O   LIG d   1       5.659  87.600 112.430  0.00  0.00    -0.241 OA
ENDBRANCH   3  22
TORSDOF 7
ENDMDL
MODEL 7
REMARK VINA RESULT:      -4.2      7.146     10.617
REMARK  7 active torsions:
REMARK  status: ('A' for Active; 'I' for Inactive)
REMARK    1  A    between atoms: C_2  and  C_3 
REMARK    2  A    between atoms: C_3  and  O_6 
REMARK    3  A    between atoms: C_3  and  C_4 
REMARK    4  A    between atoms: C_7  and  O_6 
REMARK    5  A    between atoms: C_9  and  C_10 
REMARK    6  A    between atoms: N_15  and  C_14 
REMARK    7  A    between atoms: N_20  and  C_19 
REMARK       I    between atoms: C_22  and  N_20 
ROOT
ATOM      1  C   LIG d   1       2.661  89.128 116.860  0.00  0.00     0.161 C 
ATOM      2  C   LIG d   1       2.494  88.204 115.815  0.00  0.00     0.016 C 
ATOM      3  C   LIG d   1       3.556  87.756 114.995  0.00  0.00     0.038 C 
ATOM      4  C   LIG d   1       4.892  88.091 115.264  0.00  0.00     0.028 C 
ATOM      5  C   LIG d   1       5.048  89.419 115.996  0.00  0.00    -0.047 C 
ATOM      6  C   LIG d   1       4.128  89.418 117.239  0.00  0.00     0.091 C 
ENDROOT
BRANCH   1   7
ATOM      7  O   LIG d   1       1.921  88.695 118.018  0.00  0.00    -0.368 OA
BRANCH   7   8
ATOM      8  C   LIG d   1       0.828  89.550 118.433  0.00  0.00     0.119 C 
BRANCH   8   9
ATOM      9  C   LIG d   1      -0.381  88.643 118.735  0.00  0.00     0.028 C 
ATOM     10  C   LIG d   1       0.014  87.162 118.862  0.00  0.00     0.006 C 
ENDBRANCH   8   9
BRANCH   8  11
ATOM     11  C   LIG d   1       0.372  90.465 117.292  0.00  0.00     0.028 C 
ATOM     12  C   LIG d   1      -1.013  91.083 117.540  0.00  0.00     0.006 C 
ENDBRANCH   8  11
ENDBRANCH   7   8
ENDBRANCH   1   7
BRANCH   6  13
ATOM     13  N   LIG d   1       4.157  90.714 117.966  0.00  0.00    -0.311 N 
ATOM     14  C   LIG d   1       3.827  91.877 117.406  0.00  0.00     0.210 C 
ATOM     15  C   LIG d   1       3.945  93.095 118.327  0.00  0.00     0.109 C 
ATOM     16  O   LIG d   1       3.416  92.010 116.243  0.00  0.00    -0.276 OA
ATOM     17  H   LIG d   1       4.449  90.694 118.923  0.00  0.00     0.149 HD
ENDBRANCH   6  13
BRANCH   5  18
ATOM     18  N   LIG d   1       6.476  89.576 116.334  0.00  0.00     0.381 N 
ATOM     19  H   LIG d   1       6.568  90.101 117.181  0.00  0.00    -0.090 HD
ATOM     20  H   LIG d   1       6.930  90.086 115.597  0.00  0.00    -0.090 HD
ATOM     21  H   LIG d   1       6.901  88.682 116.440  0.00  0.00    -0.090 HD
ENDBRANCH   5  18
BRANCH   3  22
ATOM     22  C   LIG d   1       3.281  86.997 113.869  0.00  0.00     0.382 C 
ATOM     23  O   LIG d   1       2.216  87.183 113.232  0.00  0.00    -0.241 OA
ATOM     24  O   LIG d   1       4.063  86.098 113.506  0.00  0.00    -0.241 OA
ENDBRANCH   3  22
TORSDOF 7
ENDMDL
MODEL 8
REMARK VINA RESULT:      -4.2      2.400      5.647
REMARK  7 active torsions:
REMARK  status: ('A' for Active; 'I' for Inactive)
REMARK    1  A    between atoms: C_2  and  C_3 
REMARK    2  A    between atoms: C_3  and  O_6 
REMARK    3  A    between atoms: C_3  and  C_4 
REMARK    4  A    between atoms: C_7  and  O_6 
REMARK    5  A    between atoms: C_9  and  C_10 
REMARK    6  A    between atoms: N_15  and  C_14 
REMARK    7  A    between atoms: N_20  and  C_19 
REMARK       I    between atoms: C_22  and  N_20 
ROOT
ATOM      1  C   LIG d   1      -5.965  92.730 117.007  0.00  0.00     0.161 C 
ATOM      2  C   LIG d   1      -7.043  92.756 116.106  0.00  0.00     0.016 C 
ATOM      3  C   LIG d   1      -7.307  91.722 115.179  0.00  0.00     0.038 C 
ATOM      4  C   LIG d   1      -6.595  90.514 115.193  0.00  0.00     0.028 C 
ATOM      5  C   LIG d   1      -5.180  90.651 115.746  0.00  0.00    -0.047 C 
ATOM      6  C   LIG d   1      -5.244  91.370 117.113  0.00  0.00     0.091 C 
ENDROOT
BRANCH   1   7
ATOM      7  O   LIG d   1      -6.406  93.166 118.308  0.00  0.00    -0.368 OA
BRANCH   7   8
ATOM      8  C   LIG d   1      -6.032  94.513 118.690  0.00  0.00     0.119 C 
BRANCH   8   9
ATOM      9  C   LIG d   1      -4.733  94.417 119.512  0.00  0.00     0.028 C 
ATOM     10  C   LIG d   1      -3.532  95.049 118.789  0.00  0.00     0.006 C 
ENDBRANCH   8   9
BRANCH   8  11
ATOM     11  C   LIG d   1      -7.066  95.131 119.635  0.00  0.00     0.028 C 
ATOM     12  C   LIG d   1      -8.341  94.282 119.762  0.00  0.00     0.006 C 
ENDBRANCH   8  11
ENDBRANCH   7   8
ENDBRANCH   1   7
BRANCH   6  13
ATOM     13  N   LIG d   1      -3.895  91.620 117.685  0.00  0.00    -0.311 N 
ATOM     14  C   LIG d   1      -3.409  90.957 118.733  0.00  0.00     0.210 C 
ATOM     15  C   LIG d   1      -2.005  91.385 119.174  0.00  0.00     0.109 C 
ATOM     16  O   LIG d   1      -3.994  90.034 119.319  0.00  0.00    -0.276 OA
ATOM     17  H   LIG d   1      -3.340  92.331 117.250  0.00  0.00     0.149 HD
ENDBRANCH   6  13
BRANCH   5  18
ATOM     18  N   LIG d   1      -4.602  89.296 115.831  0.00  0.00     0.381 N 
ATOM     19  H   LIG d   1      -3.677  89.298 115.450  0.00  0.00    -0.090 HD
ATOM     20  H   LIG d   1      -5.166  88.667 115.288  0.00  0.00    -0.090 HD
ATOM     21  H   LIG d   1      -4.577  88.996 116.781  0.00  0.00    -0.090 HD
ENDBRANCH   5  18
BRANCH   3  22
ATOM     22  C   LIG d   1      -8.269  91.908 114.197  0.00  0.00     0.382 C 
ATOM     23  O   LIG d   1      -9.485  91.788 114.480  0.00  0.00    -0.241 OA
ATOM     24  O   LIG d   1      -7.933  92.152 113.022  0.00  0.00    -0.241 OA
ENDBRANCH   3  22
TORSDOF 7
ENDMDL
MODEL 9
REMARK VINA RESULT:      -4.1      8.081     10.993
REMARK  7 active torsions:
REMARK  status: ('A' for Active; 'I' for Inactive)
REMARK    1  A    between atoms: C_2  and  C_3 
REMARK    2  A    between atoms: C_3  and  O_6 
REMARK    3  A    between atoms: C_3  and  C_4 
REMARK    4  A    between atoms: C_7  and  O_6 
REMARK    5  A    between atoms: C_9  and  C_10 
REMARK    6  A    between atoms: N_15  and  C_14 
REMARK    7  A    between atoms: N_20  and  C_19 
REMARK       I    between atoms: C_22  and  N_20 
ROOT
ATOM      1  C   LIG d   1       4.121  89.384 115.875  0.00  0.00     0.161 C 
ATOM      2  C   LIG d   1       2.725  89.352 116.029  0.00  0.00     0.016 C 
ATOM      3  C   LIG d   1       2.006  90.295 116.799  0.00  0.00     0.038 C 
ATOM      4  C   LIG d   1       2.623  91.430 117.348  0.00  0.00     0.028 C 
ATOM      5  C   LIG d   1       4.106  91.230 117.641  0.00  0.00    -0.047 C 
ATOM      6  C   LIG d   1       4.798  90.677 116.375  0.00  0.00     0.091 C 
ENDROOT
BRANCH   1   7
ATOM      7  O   LIG d   1       4.466  89.137 114.498  0.00  0.00    -0.368 OA
BRANCH   7   8
ATOM      8  C   LIG d   1       5.431  88.083 114.261  0.00  0.00     0.119 C 
BRANCH   8   9
ATOM      9  C   LIG d   1       5.349  87.706 112.769  0.00  0.00     0.028 C 
ATOM     10  C   LIG d   1       4.067  86.928 112.430  0.00  0.00     0.006 C 
ENDBRANCH   8   9
BRANCH   8  11
ATOM     11  C   LIG d   1       5.060  86.807 115.023  0.00  0.00     0.028 C 
ATOM     12  C   LIG d   1       6.217  86.266 115.879  0.00  0.00     0.006 C 
ENDBRANCH   8  11
ENDBRANCH   7   8
ENDBRANCH   1   7
BRANCH   6  13
ATOM     13  N   LIG d   1       6.236  90.374 116.601  0.00  0.00    -0.311 N 
ATOM     14  C   LIG d   1       6.671  89.564 117.564  0.00  0.00     0.210 C 
ATOM     15  C   LIG d   1       8.193  89.405 117.635  0.00  0.00     0.109 C 
ATOM     16  O   LIG d   1       5.940  88.938 118.346  0.00  0.00    -0.276 OA
ATOM     17  H   LIG d   1       6.896  90.816 115.991  0.00  0.00     0.149 HD
ENDBRANCH   6  13
BRANCH   5  18
ATOM     18  N   LIG d   1       4.653  92.529 118.078  0.00  0.00     0.381 N 
ATOM     19  H   LIG d   1       5.381  92.817 117.456  0.00  0.00    -0.090 HD
ATOM     20  H   LIG d   1       5.046  92.424 118.997  0.00  0.00    -0.090 HD
ATOM     21  H   LIG d   1       3.930  93.215 118.095  0.00  0.00    -0.090 HD
ENDBRANCH   5  18
BRANCH   3  22
ATOM     22  C   LIG d   1       0.661  90.086 117.061  0.00  0.00     0.382 C 
ATOM     23  O   LIG d   1       0.172  88.936 116.951  0.00  0.00    -0.241 OA
ATOM     24  O   LIG d   1      -0.080  91.041 117.361  0.00  0.00    -0.241 OA
ENDBRANCH   3  22
TORSDOF 7
ENDMDL
