MODEL 1
REMARK VINA RESULT:      -5.1      0.000      0.000
REMARK  7 active torsions:
REMARK  status: ('A' for Active; 'I' for Inactive)
REMARK    1  A    between atoms: C_2  and  C_3 
REMARK    2  A    between atoms: C_3  and  O_6 
REMARK    3  A    between atoms: C_3  and  C_4 
REMARK    4  A    between atoms: C_7  and  O_6 
REMARK    5  A    between atoms: C_9  and  C_10 
REMARK    6  A    between atoms: N_15  and  C_14 
REMARK    7  A    between atoms: N_20  and  C_19 
REMARK       I    between atoms: C_22  and  N_20 
ROOT
ATOM      1  C   LIG d   1       3.409  89.365 115.385  0.00  0.00     0.161 C 
ATOM      2  C   LIG d   1       2.252  90.020 115.838  0.00  0.00     0.016 C 
ATOM      3  C   LIG d   1       2.256  90.975 116.881  0.00  0.00     0.038 C 
ATOM      4  C   LIG d   1       3.449  91.454 117.443  0.00  0.00     0.028 C 
ATOM      5  C   LIG d   1       4.598  90.454 117.367  0.00  0.00    -0.047 C 
ATOM      6  C   LIG d   1       4.734  89.956 115.910  0.00  0.00     0.091 C 
ENDROOT
BRANCH   1   7
ATOM      7  O   LIG d   1       3.414  89.324 113.944  0.00  0.00    -0.368 OA
BRANCH   7   8
ATOM      8  C   LIG d   1       3.056  88.057 113.341  0.00  0.00     0.119 C 
BRANCH   8   9
ATOM      9  C   LIG d   1       2.855  87.041 114.482  0.00  0.00     0.028 C 
ATOM     10  C   LIG d   1       3.632  85.735 114.249  0.00  0.00     0.006 C 
ENDBRANCH   8   9
BRANCH   8  11
ATOM     11  C   LIG d   1       4.205  87.497 112.497  0.00  0.00     0.028 C 
ATOM     12  C   LIG d   1       5.413  88.445 112.431  0.00  0.00     0.006 C 
ENDBRANCH   8  11
ENDBRANCH   7   8
ENDBRANCH   1   7
BRANCH   6  13
ATOM     13  N   LIG d   1       5.781  88.911 115.763  0.00  0.00    -0.311 N 
ATOM     14  C   LIG d   1       5.816  87.800 116.496  0.00  0.00     0.210 C 
ATOM     15  C   LIG d   1       6.992  86.865 116.198  0.00  0.00     0.109 C 
ATOM     16  O   LIG d   1       4.967  87.484 117.343  0.00  0.00    -0.276 OA
ATOM     17  H   LIG d   1       6.493  89.072 115.077  0.00  0.00     0.149 HD
ENDBRANCH   6  13
BRANCH   5  18
ATOM     18  N   LIG d   1       5.812  91.132 117.861  0.00  0.00     0.381 N 
ATOM     19  H   LIG d   1       5.784  92.100 117.613  0.00  0.00    -0.090 HD
ATOM     20  H   LIG d   1       6.616  90.717 117.425  0.00  0.00    -0.090 HD
ATOM     21  H   LIG d   1       5.876  91.037 118.851  0.00  0.00    -0.090 HD
ENDBRANCH   5  18
BRANCH   3  22
ATOM     22  C   LIG d   1       1.054  91.431 117.400  0.00  0.00     0.382 C 
ATOM     23  O   LIG d   1       0.225  92.003 116.652  0.00  0.00    -0.241 OA
ATOM     24  O   LIG d   1       0.807  91.318 118.615  0.00  0.00    -0.241 OA
ENDBRANCH   3  22
TORSDOF 7
ENDMDL
MODEL 2
REMARK VINA RESULT:      -5.0      8.071     11.014
REMARK  7 active torsions:
REMARK  status: ('A' for Active; 'I' for Inactive)
REMARK    1  A    between atoms: C_2  and  C_3 
REMARK    2  A    between atoms: C_3  and  O_6 
REMARK    3  A    between atoms: C_3  and  C_4 
REMARK    4  A    between atoms: C_7  and  O_6 
REMARK    5  A    between atoms: C_9  and  C_10 
REMARK    6  A    between atoms: N_15  and  C_14 
REMARK    7  A    between atoms: N_20  and  C_19 
REMARK       I    between atoms: C_22  and  N_20 
ROOT
ATOM      1  C   LIG d   1      -5.724  92.666 118.064  0.00  0.00     0.161 C 
ATOM      2  C   LIG d   1      -6.632  91.985 117.236  0.00  0.00     0.016 C 
ATOM      3  C   LIG d   1      -6.240  91.036 116.265  0.00  0.00     0.038 C 
ATOM      4  C   LIG d   1      -4.914  90.590 116.158  0.00  0.00     0.028 C 
ATOM      5  C   LIG d   1      -3.889  91.617 116.627  0.00  0.00    -0.047 C 
ATOM      6  C   LIG d   1      -4.284  92.111 118.038  0.00  0.00     0.091 C 
ENDROOT
BRANCH   1   7
ATOM      7  O   LIG d   1      -6.224  92.700 119.415  0.00  0.00    -0.368 OA
BRANCH   7   8
ATOM      8  C   LIG d   1      -6.583  94.005 119.930  0.00  0.00     0.119 C 
BRANCH   8   9
ATOM      9  C   LIG d   1      -7.827  94.482 119.156  0.00  0.00     0.028 C 
ATOM     10  C   LIG d   1      -9.133  94.220 119.924  0.00  0.00     0.006 C 
ENDBRANCH   8   9
BRANCH   8  11
ATOM     11  C   LIG d   1      -5.496  95.041 119.629  0.00  0.00     0.028 C 
ATOM     12  C   LIG d   1      -5.946  96.481 119.924  0.00  0.00     0.006 C 
ENDBRANCH   8  11
ENDBRANCH   7   8
ENDBRANCH   1   7
BRANCH   6  13
ATOM     13  N   LIG d   1      -3.381  93.181 118.538  0.00  0.00    -0.311 N 
ATOM     14  C   LIG d   1      -2.298  92.940 119.274  0.00  0.00     0.210 C 
ATOM     15  C   LIG d   1      -1.517  94.187 119.702  0.00  0.00     0.109 C 
ATOM     16  O   LIG d   1      -1.892  91.811 119.587  0.00  0.00    -0.276 OA
ATOM     17  H   LIG d   1      -3.619  94.125 118.304  0.00  0.00     0.149 HD
ENDBRANCH   6  13
BRANCH   5  18
ATOM     18  N   LIG d   1      -2.563  90.973 116.591  0.00  0.00     0.381 N 
ATOM     19  H   LIG d   1      -2.444  90.491 115.722  0.00  0.00    -0.090 HD
ATOM     20  H   LIG d   1      -2.508  90.299 117.335  0.00  0.00    -0.090 HD
ATOM     21  H   LIG d   1      -1.848  91.658 116.700  0.00  0.00    -0.090 HD
ENDBRANCH   5  18
BRANCH   3  22
ATOM     22  C   LIG d   1      -7.172  90.553 115.360  0.00  0.00     0.382 C 
ATOM     23  O   LIG d   1      -7.380  91.167 114.286  0.00  0.00    -0.241 OA
ATOM     24  O   LIG d   1      -7.840  89.535 115.624  0.00  0.00    -0.241 OA
ENDBRANCH   3  22
TORSDOF 7
ENDMDL
MODEL 3
REMARK VINA RESULT:      -5.0      1.969      4.739
REMARK  7 active torsions:
REMARK  status: ('A' for Active; 'I' for Inactive)
REMARK    1  A    between atoms: C_2  and  C_3 
REMARK    2  A    between atoms: C_3  and  O_6 
REMARK    3  A    between atoms: C_3  and  C_4 
REMARK    4  A    between atoms: C_7  and  O_6 
REMARK    5  A    between atoms: C_9  and  C_10 
REMARK    6  A    between atoms: N_15  and  C_14 
REMARK    7  A    between atoms: N_20  and  C_19 
REMARK       I    between atoms: C_22  and  N_20 
ROOT
ATOM      1  C   LIG d   1       4.236  89.906 115.305  0.00  0.00     0.161 C 
ATOM      2  C   LIG d   1       3.299  89.162 114.569  0.00  0.00     0.016 C 
ATOM      3  C   LIG d   1       3.436  87.779 114.308  0.00  0.00     0.038 C 
ATOM      4  C   LIG d   1       4.451  87.010 114.898  0.00  0.00     0.028 C 
ATOM      5  C   LIG d   1       5.701  87.814 115.235  0.00  0.00    -0.047 C 
ATOM      6  C   LIG d   1       5.291  89.063 116.050  0.00  0.00     0.091 C 
ENDROOT
BRANCH   1   7
ATOM      7  O   LIG d   1       3.551  90.780 116.225  0.00  0.00    -0.368 OA
BRANCH   7   8
ATOM      8  C   LIG d   1       3.237  90.218 117.523  0.00  0.00     0.119 C 
BRANCH   8   9
ATOM      9  C   LIG d   1       1.704  90.237 117.677  0.00  0.00     0.028 C 
ATOM     10  C   LIG d   1       1.033  91.259 116.744  0.00  0.00     0.006 C 
ENDBRANCH   8   9
BRANCH   8  11
ATOM     11  C   LIG d   1       3.770  91.100 118.656  0.00  0.00     0.028 C 
ATOM     12  C   LIG d   1       4.410  92.402 118.147  0.00  0.00     0.006 C 
ENDBRANCH   8  11
ENDBRANCH   7   8
ENDBRANCH   1   7
BRANCH   6  13
ATOM     13  N   LIG d   1       6.446  89.949 116.349  0.00  0.00    -0.311 N 
ATOM     14  C   LIG d   1       7.126  89.906 117.494  0.00  0.00     0.210 C 
ATOM     15  C   LIG d   1       8.268  90.921 117.605  0.00  0.00     0.109 C 
ATOM     16  O   LIG d   1       6.911  89.103 118.414  0.00  0.00    -0.276 OA
ATOM     17  H   LIG d   1       6.708  90.610 115.644  0.00  0.00     0.149 HD
ENDBRANCH   6  13
BRANCH   5  18
ATOM     18  N   LIG d   1       6.621  86.923 115.968  0.00  0.00     0.381 N 
ATOM     19  H   LIG d   1       6.098  86.312 116.563  0.00  0.00    -0.090 HD
ATOM     20  H   LIG d   1       7.226  87.482 116.543  0.00  0.00    -0.090 HD
ATOM     21  H   LIG d   1       7.162  86.388 115.324  0.00  0.00    -0.090 HD
ENDBRANCH   5  18
BRANCH   3  22
ATOM     22  C   LIG d   1       2.574  87.159 113.417  0.00  0.00     0.382 C 
ATOM     23  O   LIG d   1       1.824  87.850 112.686  0.00  0.00    -0.241 OA
ATOM     24  O   LIG d   1       2.506  85.916 113.364  0.00  0.00    -0.241 OA
ENDBRANCH   3  22
TORSDOF 7
ENDMDL
MODEL 4
REMARK VINA RESULT:      -4.9      1.854      2.326
REMARK  7 active torsions:
REMARK  status: ('A' for Active; 'I' for Inactive)
REMARK    1  A    between atoms: C_2  and  C_3 
REMARK    2  A    between atoms: C_3  and  O_6 
REMARK    3  A    between atoms: C_3  and  C_4 
REMARK    4  A    between atoms: C_7  and  O_6 
REMARK    5  A    between atoms: C_9  and  C_10 
REMARK    6  A    between atoms: N_15  and  C_14 
REMARK    7  A    between atoms: N_20  and  C_19 
REMARK       I    between atoms: C_22  and  N_20 
ROOT
ATOM      1  C   LIG d   1       4.556  87.397 115.968  0.00  0.00     0.161 C 
ATOM      2  C   LIG d   1       3.561  88.378 115.825  0.00  0.00     0.016 C 
ATOM      3  C   LIG d   1       3.759  89.741 116.147  0.00  0.00     0.038 C 
ATOM      4  C   LIG d   1       5.022  90.244 116.494  0.00  0.00     0.028 C 
ATOM      5  C   LIG d   1       5.933  89.204 117.137  0.00  0.00    -0.047 C 
ATOM      6  C   LIG d   1       5.972  87.947 116.239  0.00  0.00     0.091 C 
ENDROOT
BRANCH   1   7
ATOM      7  O   LIG d   1       4.565  86.538 114.810  0.00  0.00    -0.368 OA
BRANCH   7   8
ATOM      8  C   LIG d   1       3.705  86.937 113.714  0.00  0.00     0.119 C 
BRANCH   8   9
ATOM      9  C   LIG d   1       2.769  85.752 113.406  0.00  0.00     0.028 C 
ATOM     10  C   LIG d   1       1.414  85.873 114.122  0.00  0.00     0.006 C 
ENDBRANCH   8   9
BRANCH   8  11
ATOM     11  C   LIG d   1       4.508  87.164 112.430  0.00  0.00     0.028 C 
ATOM     12  C   LIG d   1       5.442  88.381 112.520  0.00  0.00     0.006 C 
ENDBRANCH   8  11
ENDBRANCH   7   8
ENDBRANCH   1   7
BRANCH   6  13
ATOM     13  N   LIG d   1       6.774  86.848 116.836  0.00  0.00    -0.311 N 
ATOM     14  C   LIG d   1       8.078  86.687 116.613  0.00  0.00     0.210 C 
ATOM     15  C   LIG d   1       8.708  85.477 117.311  0.00  0.00     0.109 C 
ATOM     16  O   LIG d   1       8.778  87.449 115.930  0.00  0.00    -0.276 OA
ATOM     17  H   LIG d   1       6.292  86.201 117.429  0.00  0.00     0.149 HD
ENDBRANCH   6  13
BRANCH   5  18
ATOM     18  N   LIG d   1       7.258  89.825 117.320  0.00  0.00     0.381 N 
ATOM     19  H   LIG d   1       7.976  89.164 117.099  0.00  0.00    -0.090 HD
ATOM     20  H   LIG d   1       7.362  90.092 118.283  0.00  0.00    -0.090 HD
ATOM     21  H   LIG d   1       7.343  90.627 116.735  0.00  0.00    -0.090 HD
ENDBRANCH   5  18
BRANCH   3  22
ATOM     22  C   LIG d   1       2.677  90.608 116.163  0.00  0.00     0.382 C 
ATOM     23  O   LIG d   1       2.840  91.808 116.491  0.00  0.00    -0.241 OA
ATOM     24  O   LIG d   1       1.533  90.195 115.896  0.00  0.00    -0.241 OA
ENDBRANCH   3  22
TORSDOF 7
ENDMDL
MODEL 5
REMARK VINA RESULT:      -4.9      2.231      4.710
REMARK  7 active torsions:
REMARK  status: ('A' for Active; 'I' for Inactive)
REMARK    1  A    between atoms: C_2  and  C_3 
REMARK    2  A    between atoms: C_3  and  O_6 
REMARK    3  A    between atoms: C_3  and  C_4 
REMARK    4  A    between atoms: C_7  and  O_6 
REMARK    5  A    between atoms: C_9  and  C_10 
REMARK    6  A    between atoms: N_15  and  C_14 
REMARK    7  A    between atoms: N_20  and  C_19 
REMARK       I    between atoms: C_22  and  N_20 
ROOT
ATOM      1  C   LIG d   1       4.478  90.018 116.054  0.00  0.00     0.161 C 
ATOM      2  C   LIG d   1       5.862  89.849 116.225  0.00  0.00     0.016 C 
ATOM      3  C   LIG d   1       6.583  90.384 117.317  0.00  0.00     0.038 C 
ATOM      4  C   LIG d   1       5.939  91.002 118.399  0.00  0.00     0.028 C 
ATOM      5  C   LIG d   1       4.604  91.638 118.026  0.00  0.00    -0.047 C 
ATOM      6  C   LIG d   1       3.741  90.594 117.282  0.00  0.00     0.091 C 
ENDROOT
BRANCH   1   7
ATOM      7  O   LIG d   1       3.879  88.771 115.650  0.00  0.00    -0.368 OA
BRANCH   7   8
ATOM      8  C   LIG d   1       4.764  87.815 115.015  0.00  0.00     0.119 C 
BRANCH   8   9
ATOM      9  C   LIG d   1       4.321  87.680 113.545  0.00  0.00     0.028 C 
ATOM     10  C   LIG d   1       5.360  88.248 112.564  0.00  0.00     0.006 C 
ENDBRANCH   8   9
BRANCH   8  11
ATOM     11  C   LIG d   1       4.600  86.417 115.618  0.00  0.00     0.028 C 
ATOM     12  C   LIG d   1       3.625  85.535 114.822  0.00  0.00     0.006 C 
ENDBRANCH   8  11
ENDBRANCH   7   8
ENDBRANCH   1   7
BRANCH   6  13
ATOM     13  N   LIG d   1       2.451  91.159 116.807  0.00  0.00    -0.311 N 
ATOM     14  C   LIG d   1       1.333  91.144 117.531  0.00  0.00     0.210 C 
ATOM     15  C   LIG d   1       0.110  91.761 116.846  0.00  0.00     0.109 C 
ATOM     16  O   LIG d   1       1.246  90.707 118.689  0.00  0.00    -0.276 OA
ATOM     17  H   LIG d   1       2.439  91.562 115.891  0.00  0.00     0.149 HD
ENDBRANCH   6  13
BRANCH   5  18
ATOM     18  N   LIG d   1       3.978  92.123 119.271  0.00  0.00     0.381 N 
ATOM     19  H   LIG d   1       4.679  92.256 119.973  0.00  0.00    -0.090 HD
ATOM     20  H   LIG d   1       3.330  91.430 119.600  0.00  0.00    -0.090 HD
ATOM     21  H   LIG d   1       3.501  92.981 119.101  0.00  0.00    -0.090 HD
ENDBRANCH   5  18
BRANCH   3  22
ATOM     22  C   LIG d   1       7.969  90.340 117.314  0.00  0.00     0.382 C 
ATOM     23  O   LIG d   1       8.561  89.236 117.384  0.00  0.00    -0.241 OA
ATOM     24  O   LIG d   1       8.635  91.392 117.286  0.00  0.00    -0.241 OA
ENDBRANCH   3  22
TORSDOF 7
ENDMDL
MODEL 6
REMARK VINA RESULT:      -4.8      1.732      1.810
REMARK  7 active torsions:
REMARK  status: ('A' for Active; 'I' for Inactive)
REMARK    1  A    between atoms: C_2  and  C_3 
REMARK    2  A    between atoms: C_3  and  O_6 
REMARK    3  A    between atoms: C_3  and  C_4 
REMARK    4  A    between atoms: C_7  and  O_6 
REMARK    5  A    between atoms: C_9  and  C_10 
REMARK    6  A    between atoms: N_15  and  C_14 
REMARK    7  A    between atoms: N_20  and  C_19 
REMARK       I    between atoms: C_22  and  N_20 
ROOT
ATOM      1  C   LIG d   1       4.223  89.002 116.363  0.00  0.00     0.161 C 
ATOM      2  C   LIG d   1       2.913  89.466 116.159  0.00  0.00     0.016 C 
ATOM      3  C   LIG d   1       2.443  90.708 116.645  0.00  0.00     0.038 C 
ATOM      4  C   LIG d   1       3.301  91.642 117.244  0.00  0.00     0.028 C 
ATOM      5  C   LIG d   1       4.512  91.007 117.920  0.00  0.00    -0.047 C 
ATOM      6  C   LIG d   1       5.204  90.056 116.918  0.00  0.00     0.091 C 
ENDROOT
BRANCH   1   7
ATOM      7  O   LIG d   1       4.736  88.433 115.142  0.00  0.00    -0.368 OA
BRANCH   7   8
ATOM      8  C   LIG d   1       3.759  87.827 114.261  0.00  0.00     0.119 C 
BRANCH   8   9
ATOM      9  C   LIG d   1       3.984  86.303 114.298  0.00  0.00     0.028 C 
ATOM     10  C   LIG d   1       2.699  85.513 113.997  0.00  0.00     0.006 C 
ENDBRANCH   8   9
BRANCH   8  11
ATOM     11  C   LIG d   1       3.992  88.237 112.804  0.00  0.00     0.028 C 
ATOM     12  C   LIG d   1       5.482  88.284 112.430  0.00  0.00     0.006 C 
ENDBRANCH   8  11
ENDBRANCH   7   8
ENDBRANCH   1   7
BRANCH   6  13
ATOM     13  N   LIG d   1       6.349  89.329 117.525  0.00  0.00    -0.311 N 
ATOM     14  C   LIG d   1       7.607  89.765 117.470  0.00  0.00     0.210 C 
ATOM     15  C   LIG d   1       8.637  88.853 118.144  0.00  0.00     0.109 C 
ATOM     16  O   LIG d   1       7.962  90.836 116.956  0.00  0.00    -0.276 OA
ATOM     17  H   LIG d   1       6.147  88.465 117.990  0.00  0.00     0.149 HD
ENDBRANCH   6  13
BRANCH   5  18
ATOM     18  N   LIG d   1       5.389  92.100 118.381  0.00  0.00     0.381 N 
ATOM     19  H   LIG d   1       4.841  92.912 118.585  0.00  0.00    -0.090 HD
ATOM     20  H   LIG d   1       6.034  92.331 117.645  0.00  0.00    -0.090 HD
ATOM     21  H   LIG d   1       5.890  91.815 119.194  0.00  0.00    -0.090 HD
ENDBRANCH   5  18
BRANCH   3  22
ATOM     22  C   LIG d   1       1.092  91.008 116.570  0.00  0.00     0.382 C 
ATOM     23  O   LIG d   1       0.288  90.167 116.102  0.00  0.00    -0.241 OA
ATOM     24  O   LIG d   1       0.672  92.126 116.924  0.00  0.00    -0.241 OA
ENDBRANCH   3  22
TORSDOF 7
ENDMDL
MODEL 7
REMARK VINA RESULT:      -4.5      2.459      4.943
REMARK  7 active torsions:
REMARK  status: ('A' for Active; 'I' for Inactive)
REMARK    1  A    between atoms: C_2  and  C_3 
REMARK    2  A    between atoms: C_3  and  O_6 
REMARK    3  A    between atoms: C_3  and  C_4 
REMARK    4  A    between atoms: C_7  and  O_6 
REMARK    5  A    between atoms: C_9  and  C_10 
REMARK    6  A    between atoms: N_15  and  C_14 
REMARK    7  A    between atoms: N_20  and  C_19 
REMARK       I    between atoms: C_22  and  N_20 
ROOT
ATOM      1  C   LIG d   1       4.403  89.971 116.279  0.00  0.00     0.161 C 
ATOM      2  C   LIG d   1       5.792  89.805 116.412  0.00  0.00     0.016 C 
ATOM      3  C   LIG d   1       6.566  90.475 117.388  0.00  0.00     0.038 C 
ATOM      4  C   LIG d   1       5.976  91.247 118.400  0.00  0.00     0.028 C 
ATOM      5  C   LIG d   1       4.632  91.846 118.000  0.00  0.00    -0.047 C 
ATOM      6  C   LIG d   1       3.727  90.722 117.445  0.00  0.00     0.091 C 
ENDROOT
BRANCH   1   7
ATOM      7  O   LIG d   1       3.776  88.689 116.077  0.00  0.00    -0.368 OA
BRANCH   7   8
ATOM      8  C   LIG d   1       3.622  87.862 117.257  0.00  0.00     0.119 C 
BRANCH   8   9
ATOM      9  C   LIG d   1       4.402  86.556 117.012  0.00  0.00     0.028 C 
ATOM     10  C   LIG d   1       4.685  86.313 115.520  0.00  0.00     0.006 C 
ENDBRANCH   8   9
BRANCH   8  11
ATOM     11  C   LIG d   1       2.164  87.434 117.450  0.00  0.00     0.028 C 
ATOM     12  C   LIG d   1       1.285  87.744 116.229  0.00  0.00     0.006 C 
ENDBRANCH   8  11
ENDBRANCH   7   8
ENDBRANCH   1   7
BRANCH   6  13
ATOM     13  N   LIG d   1       2.423  91.236 116.952  0.00  0.00    -0.311 N 
ATOM     14  C   LIG d   1       1.313  91.245 117.688  0.00  0.00     0.210 C 
ATOM     15  C   LIG d   1       0.072  91.800 116.981  0.00  0.00     0.109 C 
ATOM     16  O   LIG d   1       1.245  90.877 118.870  0.00  0.00    -0.276 OA
ATOM     17  H   LIG d   1       2.394  91.583 116.013  0.00  0.00     0.149 HD
ENDBRANCH   6  13
BRANCH   5  18
ATOM     18  N   LIG d   1       4.066  92.507 119.191  0.00  0.00     0.381 N 
ATOM     19  H   LIG d   1       4.616  93.309 119.426  0.00  0.00    -0.090 HD
ATOM     20  H   LIG d   1       4.097  91.867 119.964  0.00  0.00    -0.090 HD
ATOM     21  H   LIG d   1       3.125  92.782 119.014  0.00  0.00    -0.090 HD
ENDBRANCH   5  18
BRANCH   3  22
ATOM     22  C   LIG d   1       7.950  90.409 117.332  0.00  0.00     0.382 C 
ATOM     23  O   LIG d   1       8.527  89.296 117.385  0.00  0.00    -0.241 OA
ATOM     24  O   LIG d   1       8.630  91.451 117.273  0.00  0.00    -0.241 OA
ENDBRANCH   3  22
TORSDOF 7
ENDMDL
MODEL 8
REMARK VINA RESULT:      -4.5      2.311      4.904
REMARK  7 active torsions:
REMARK  status: ('A' for Active; 'I' for Inactive)
REMARK    1  A    between atoms: C_2  and  C_3 
REMARK    2  A    between atoms: C_3  and  O_6 
REMARK    3  A    between atoms: C_3  and  C_4 
REMARK    4  A    between atoms: C_7  and  O_6 
REMARK    5  A    between atoms: C_9  and  C_10 
REMARK    6  A    between atoms: N_15  and  C_14 
REMARK    7  A    between atoms: N_20  and  C_19 
REMARK       I    between atoms: C_22  and  N_20 
ROOT
ATOM      1  C   LIG d   1       5.202  89.985 116.790  0.00  0.00     0.161 C 
ATOM      2  C   LIG d   1       4.741  89.887 115.466  0.00  0.00     0.016 C 
ATOM      3  C   LIG d   1       5.025  88.789 114.622  0.00  0.00     0.038 C 
ATOM      4  C   LIG d   1       5.667  87.636 115.097  0.00  0.00     0.028 C 
ATOM      5  C   LIG d   1       6.590  87.901 116.282  0.00  0.00    -0.047 C 
ATOM      6  C   LIG d   1       5.810  88.686 117.360  0.00  0.00     0.091 C 
ENDROOT
BRANCH   1   7
ATOM      7  O   LIG d   1       4.141  90.458 117.643  0.00  0.00    -0.368 OA
BRANCH   7   8
ATOM      8  C   LIG d   1       2.791  90.193 117.188  0.00  0.00     0.119 C 
BRANCH   8   9
ATOM      9  C   LIG d   1       1.950  91.451 117.476  0.00  0.00     0.028 C 
ATOM     10  C   LIG d   1       0.549  91.378 116.844  0.00  0.00     0.006 C 
ENDBRANCH   8   9
BRANCH   8  11
ATOM     11  C   LIG d   1       2.138  89.073 118.004  0.00  0.00     0.028 C 
ATOM     12  C   LIG d   1       2.161  87.717 117.280  0.00  0.00     0.006 C 
ENDBRANCH   8  11
ENDBRANCH   7   8
ENDBRANCH   1   7
BRANCH   6  13
ATOM     13  N   LIG d   1       6.663  89.060 118.518  0.00  0.00    -0.311 N 
ATOM     14  C   LIG d   1       7.806  89.733 118.399  0.00  0.00     0.210 C 
ATOM     15  C   LIG d   1       8.541  89.998 119.717  0.00  0.00     0.109 C 
ATOM     16  O   LIG d   1       8.266  90.164 117.331  0.00  0.00    -0.276 OA
ATOM     17  H   LIG d   1       6.349  88.777 119.426  0.00  0.00     0.149 HD
ENDBRANCH   6  13
BRANCH   5  18
ATOM     18  N   LIG d   1       7.086  86.597 116.762  0.00  0.00     0.381 N 
ATOM     19  H   LIG d   1       6.501  86.264 117.502  0.00  0.00    -0.090 HD
ATOM     20  H   LIG d   1       8.016  86.715 117.123  0.00  0.00    -0.090 HD
ATOM     21  H   LIG d   1       7.094  85.939 116.013  0.00  0.00    -0.090 HD
ENDBRANCH   5  18
BRANCH   3  22
ATOM     22  C   LIG d   1       4.700  88.855 113.276  0.00  0.00     0.382 C 
ATOM     23  O   LIG d   1       5.298  88.123 112.450  0.00  0.00    -0.241 OA
ATOM     24  O   LIG d   1       3.848  89.667 112.871  0.00  0.00    -0.241 OA
ENDBRANCH   3  22
TORSDOF 7
ENDMDL
MODEL 9
REMARK VINA RESULT:      -4.5      7.788     10.517
REMARK  7 active torsions:
REMARK  status: ('A' for Active; 'I' for Inactive)
REMARK    1  A    between atoms: C_2  and  C_3 
REMARK    2  A    between atoms: C_3  and  O_6 
REMARK    3  A    between atoms: C_3  and  C_4 
REMARK    4  A    between atoms: C_7  and  O_6 
REMARK    5  A    between atoms: C_9  and  C_10 
REMARK    6  A    between atoms: N_15  and  C_14 
REMARK    7  A    between atoms: N_20  and  C_19 
REMARK       I    between atoms: C_22  and  N_20 
ROOT
ATOM      1  C   LIG d   1      -5.556  92.724 119.544  0.00  0.00     0.161 C 
ATOM      2  C   LIG d   1      -6.834  93.306 119.581  0.00  0.00     0.016 C 
ATOM      3  C   LIG d   1      -7.054  94.702 119.614  0.00  0.00     0.038 C 
ATOM      4  C   LIG d   1      -6.006  95.621 119.458  0.00  0.00     0.028 C 
ATOM      5  C   LIG d   1      -4.656  95.086 119.924  0.00  0.00    -0.047 C 
ATOM      6  C   LIG d   1      -4.405  93.712 119.261  0.00  0.00     0.091 C 
ENDROOT
BRANCH   1   7
ATOM      7  O   LIG d   1      -5.537  91.646 118.588  0.00  0.00    -0.368 OA
BRANCH   7   8
ATOM      8  C   LIG d   1      -6.004  91.968 117.254  0.00  0.00     0.119 C 
BRANCH   8   9
ATOM      9  C   LIG d   1      -7.211  91.059 116.954  0.00  0.00     0.028 C 
ATOM     10  C   LIG d   1      -7.080  90.338 115.601  0.00  0.00     0.006 C 
ENDBRANCH   8   9
BRANCH   8  11
ATOM     11  C   LIG d   1      -4.955  91.613 116.196  0.00  0.00     0.028 C 
ATOM     12  C   LIG d   1      -3.654  91.068 116.806  0.00  0.00     0.006 C 
ENDBRANCH   8  11
ENDBRANCH   7   8
ENDBRANCH   1   7
BRANCH   6  13
ATOM     13  N   LIG d   1      -3.144  93.079 119.728  0.00  0.00    -0.311 N 
ATOM     14  C   LIG d   1      -1.969  93.252 119.125  0.00  0.00     0.210 C 
ATOM     15  C   LIG d   1      -0.799  92.492 119.758  0.00  0.00     0.109 C 
ATOM     16  O   LIG d   1      -1.779  93.987 118.144  0.00  0.00    -0.276 OA
ATOM     17  H   LIG d   1      -3.201  92.491 120.536  0.00  0.00     0.149 HD
ENDBRANCH   6  13
BRANCH   5  18
ATOM     18  N   LIG d   1      -3.634  96.091 119.578  0.00  0.00     0.381 N 
ATOM     19  H   LIG d   1      -2.721  95.718 119.748  0.00  0.00    -0.090 HD
ATOM     20  H   LIG d   1      -3.759  96.897 120.164  0.00  0.00    -0.090 HD
ATOM     21  H   LIG d   1      -3.722  96.350 118.620  0.00  0.00    -0.090 HD
ENDBRANCH   5  18
BRANCH   3  22
ATOM     22  C   LIG d   1      -8.330  95.192 119.845  0.00  0.00     0.382 C 
ATOM     23  O   LIG d   1      -9.301  94.400 119.926  0.00  0.00    -0.241 OA
ATOM     24  O   LIG d   1      -8.531  96.418 119.929  0.00  0.00    -0.241 OA
ENDBRANCH   3  22
TORSDOF 7
ENDMDL
