MODEL 1
REMARK VINA RESULT:      -5.4      0.000      0.000
REMARK  7 active torsions:
REMARK  status: ('A' for Active; 'I' for Inactive)
REMARK    1  A    between atoms: C_2  and  C_3 
REMARK    2  A    between atoms: C_3  and  O_6 
REMARK    3  A    between atoms: C_3  and  C_4 
REMARK    4  A    between atoms: C_7  and  O_6 
REMARK    5  A    between atoms: C_9  and  C_10 
REMARK    6  A    between atoms: N_15  and  C_14 
REMARK    7  A    between atoms: N_20  and  C_19 
REMARK       I    between atoms: C_22  and  N_20 
ROOT
ATOM      1  C   LIG d   1      -3.935  90.472 117.521  0.00  0.00     0.161 C 
ATOM      2  C   LIG d   1      -4.939  89.783 116.820  0.00  0.00     0.016 C 
ATOM      3  C   LIG d   1      -6.173  90.368 116.453  0.00  0.00     0.038 C 
ATOM      4  C   LIG d   1      -6.427  91.736 116.631  0.00  0.00     0.028 C 
ATOM      5  C   LIG d   1      -5.644  92.352 117.786  0.00  0.00    -0.047 C 
ATOM      6  C   LIG d   1      -4.149  91.996 117.625  0.00  0.00     0.091 C 
ENDROOT
BRANCH   1   7
ATOM      7  O   LIG d   1      -2.648  90.185 116.938  0.00  0.00    -0.368 OA
BRANCH   7   8
ATOM      8  C   LIG d   1      -1.701  89.496 117.791  0.00  0.00     0.119 C 
BRANCH   8   9
ATOM      9  C   LIG d   1      -0.323  89.566 117.104  0.00  0.00     0.028 C 
ATOM     10  C   LIG d   1       0.279  90.981 117.139  0.00  0.00     0.006 C 
ENDBRANCH   8   9
BRANCH   8  11
ATOM     11  C   LIG d   1      -2.028  88.003 117.894  0.00  0.00     0.028 C 
ATOM     12  C   LIG d   1      -2.454  87.583 119.310  0.00  0.00     0.006 C 
ENDBRANCH   8  11
ENDBRANCH   7   8
ENDBRANCH   1   7
BRANCH   6  13
ATOM     13  N   LIG d   1      -3.324  92.489 118.759  0.00  0.00    -0.311 N 
ATOM     14  C   LIG d   1      -2.265  93.282 118.605  0.00  0.00     0.210 C 
ATOM     15  C   LIG d   1      -1.544  93.658 119.903  0.00  0.00     0.109 C 
ATOM     16  O   LIG d   1      -1.874  93.737 117.519  0.00  0.00    -0.276 OA
ATOM     17  H   LIG d   1      -3.589  92.194 119.679  0.00  0.00     0.149 HD
ENDBRANCH   6  13
BRANCH   5  18
ATOM     18  N   LIG d   1      -5.898  93.805 117.771  0.00  0.00     0.381 N 
ATOM     19  H   LIG d   1      -5.903  94.158 118.707  0.00  0.00    -0.090 HD
ATOM     20  H   LIG d   1      -6.802  93.973 117.366  0.00  0.00    -0.090 HD
ATOM     21  H   LIG d   1      -5.196  94.268 117.237  0.00  0.00    -0.090 HD
ENDBRANCH   5  18
BRANCH   3  22
ATOM     22  C   LIG d   1      -7.184  89.571 115.937  0.00  0.00     0.382 C 
ATOM     23  O   LIG d   1      -7.393  89.547 114.700  0.00  0.00    -0.241 OA
ATOM     24  O   LIG d   1      -7.919  88.912 116.697  0.00  0.00    -0.241 OA
ENDBRANCH   3  22
TORSDOF 7
ENDMDL
MODEL 2
REMARK VINA RESULT:      -5.1      3.071      4.558
REMARK  7 active torsions:
REMARK  status: ('A' for Active; 'I' for Inactive)
REMARK    1  A    between atoms: C_2  and  C_3 
REMARK    2  A    between atoms: C_3  and  O_6 
REMARK    3  A    between atoms: C_3  and  C_4 
REMARK    4  A    between atoms: C_7  and  O_6 
REMARK    5  A    between atoms: C_9  and  C_10 
REMARK    6  A    between atoms: N_15  and  C_14 
REMARK    7  A    between atoms: N_20  and  C_19 
REMARK       I    between atoms: C_22  and  N_20 
ROOT
ATOM      1  C   LIG d   1      -6.006  92.609 118.947  0.00  0.00     0.161 C 
ATOM      2  C   LIG d   1      -7.259  93.239 118.859  0.00  0.00     0.016 C 
ATOM      3  C   LIG d   1      -7.421  94.642 118.802  0.00  0.00     0.038 C 
ATOM      4  C   LIG d   1      -6.327  95.511 118.676  0.00  0.00     0.028 C 
ATOM      5  C   LIG d   1      -5.038  94.952 119.269  0.00  0.00    -0.047 C 
ATOM      6  C   LIG d   1      -4.797  93.535 118.699  0.00  0.00     0.091 C 
ENDROOT
BRANCH   1   7
ATOM      7  O   LIG d   1      -5.964  91.479 118.053  0.00  0.00    -0.368 OA
BRANCH   7   8
ATOM      8  C   LIG d   1      -5.375  91.718 116.751  0.00  0.00     0.119 C 
BRANCH   8   9
ATOM      9  C   LIG d   1      -6.515  92.121 115.795  0.00  0.00     0.028 C 
ATOM     10  C   LIG d   1      -6.382  91.461 114.413  0.00  0.00     0.006 C 
ENDBRANCH   8   9
BRANCH   8  11
ATOM     11  C   LIG d   1      -4.786  90.434 116.161  0.00  0.00     0.028 C 
ATOM     12  C   LIG d   1      -3.690  89.820 117.046  0.00  0.00     0.006 C 
ENDBRANCH   8  11
ENDBRANCH   7   8
ENDBRANCH   1   7
BRANCH   6  13
ATOM     13  N   LIG d   1      -3.601  92.882 119.292  0.00  0.00    -0.311 N 
ATOM     14  C   LIG d   1      -2.404  92.877 118.709  0.00  0.00     0.210 C 
ATOM     15  C   LIG d   1      -1.312  92.129 119.480  0.00  0.00     0.109 C 
ATOM     16  O   LIG d   1      -2.135  93.448 117.642  0.00  0.00    -0.276 OA
ATOM     17  H   LIG d   1      -3.722  92.421 120.173  0.00  0.00     0.149 HD
ENDBRANCH   6  13
BRANCH   5  18
ATOM     18  N   LIG d   1      -3.952  95.897 118.947  0.00  0.00     0.381 N 
ATOM     19  H   LIG d   1      -3.600  96.307 119.789  0.00  0.00    -0.090 HD
ATOM     20  H   LIG d   1      -4.321  96.631 118.369  0.00  0.00    -0.090 HD
ATOM     21  H   LIG d   1      -3.219  95.423 118.467  0.00  0.00    -0.090 HD
ENDBRANCH   5  18
BRANCH   3  22
ATOM     22  C   LIG d   1      -8.689  95.192 118.910  0.00  0.00     0.382 C 
ATOM     23  O   LIG d   1      -9.680  94.449 119.108  0.00  0.00    -0.241 OA
ATOM     24  O   LIG d   1      -8.861  96.418 118.769  0.00  0.00    -0.241 OA
ENDBRANCH   3  22
TORSDOF 7
ENDMDL
MODEL 3
REMARK VINA RESULT:      -5.0      1.889      2.500
REMARK  7 active torsions:
REMARK  status: ('A' for Active; 'I' for Inactive)
REMARK    1  A    between atoms: C_2  and  C_3 
REMARK    2  A    between atoms: C_3  and  O_6 
REMARK    3  A    between atoms: C_3  and  C_4 
REMARK    4  A    between atoms: C_7  and  O_6 
REMARK    5  A    between atoms: C_9  and  C_10 
REMARK    6  A    between atoms: N_15  and  C_14 
REMARK    7  A    between atoms: N_20  and  C_19 
REMARK       I    between atoms: C_22  and  N_20 
ROOT
ATOM      1  C   LIG d   1      -2.436  89.653 117.543  0.00  0.00     0.161 C 
ATOM      2  C   LIG d   1      -3.682  89.346 116.972  0.00  0.00     0.016 C 
ATOM      3  C   LIG d   1      -4.704  90.302 116.773  0.00  0.00     0.038 C 
ATOM      4  C   LIG d   1      -4.492  91.671 116.994  0.00  0.00     0.028 C 
ATOM      5  C   LIG d   1      -3.424  91.956 118.044  0.00  0.00    -0.047 C 
ATOM      6  C   LIG d   1      -2.146  91.162 117.689  0.00  0.00     0.091 C 
ENDROOT
BRANCH   1   7
ATOM      7  O   LIG d   1      -1.384  89.011 116.797  0.00  0.00    -0.368 OA
BRANCH   7   8
ATOM      8  C   LIG d   1      -1.041  87.665 117.208  0.00  0.00     0.119 C 
BRANCH   8   9
ATOM      9  C   LIG d   1      -0.860  87.680 118.738  0.00  0.00     0.028 C 
ATOM     10  C   LIG d   1       0.580  88.023 119.155  0.00  0.00     0.006 C 
ENDBRANCH   8   9
BRANCH   8  11
ATOM     11  C   LIG d   1       0.317  87.238 116.643  0.00  0.00     0.028 C 
ATOM     12  C   LIG d   1       0.196  86.180 115.535  0.00  0.00     0.006 C 
ENDBRANCH   8  11
ENDBRANCH   7   8
ENDBRANCH   1   7
BRANCH   6  13
ATOM     13  N   LIG d   1      -1.079  91.318 118.711  0.00  0.00    -0.311 N 
ATOM     14  C   LIG d   1       0.146  91.760 118.431  0.00  0.00     0.210 C 
ATOM     15  C   LIG d   1       1.100  91.827 119.628  0.00  0.00     0.109 C 
ATOM     16  O   LIG d   1       0.524  92.134 117.310  0.00  0.00    -0.276 OA
ATOM     17  H   LIG d   1      -1.308  91.067 119.653  0.00  0.00     0.149 HD
ENDBRANCH   6  13
BRANCH   5  18
ATOM     18  N   LIG d   1      -3.208  93.415 118.076  0.00  0.00     0.381 N 
ATOM     19  H   LIG d   1      -3.758  93.823 118.805  0.00  0.00    -0.090 HD
ATOM     20  H   LIG d   1      -3.505  93.806 117.199  0.00  0.00    -0.090 HD
ATOM     21  H   LIG d   1      -2.243  93.614 118.226  0.00  0.00    -0.090 HD
ENDBRANCH   5  18
BRANCH   3  22
ATOM     22  C   LIG d   1      -5.968  89.886 116.384  0.00  0.00     0.382 C 
ATOM     23  O   LIG d   1      -6.151  89.429 115.230  0.00  0.00    -0.241 OA
ATOM     24  O   LIG d   1      -6.937  90.002 117.158  0.00  0.00    -0.241 OA
ENDBRANCH   3  22
TORSDOF 7
ENDMDL
MODEL 4
REMARK VINA RESULT:      -4.9      2.301      4.579
REMARK  7 active torsions:
REMARK  status: ('A' for Active; 'I' for Inactive)
REMARK    1  A    between atoms: C_2  and  C_3 
REMARK    2  A    between atoms: C_3  and  O_6 
REMARK    3  A    between atoms: C_3  and  C_4 
REMARK    4  A    between atoms: C_7  and  O_6 
REMARK    5  A    between atoms: C_9  and  C_10 
REMARK    6  A    between atoms: N_15  and  C_14 
REMARK    7  A    between atoms: N_20  and  C_19 
REMARK       I    between atoms: C_22  and  N_20 
ROOT
ATOM      1  C   LIG d   1      -5.367  91.959 117.812  0.00  0.00     0.161 C 
ATOM      2  C   LIG d   1      -6.107  91.972 116.618  0.00  0.00     0.016 C 
ATOM      3  C   LIG d   1      -5.917  91.036 115.575  0.00  0.00     0.038 C 
ATOM      4  C   LIG d   1      -5.073  89.925 115.720  0.00  0.00     0.028 C 
ATOM      5  C   LIG d   1      -3.934  90.154 116.708  0.00  0.00    -0.047 C 
ATOM      6  C   LIG d   1      -4.521  90.688 118.035  0.00  0.00     0.091 C 
ENDROOT
BRANCH   1   7
ATOM      7  O   LIG d   1      -6.246  92.178 118.933  0.00  0.00    -0.368 OA
BRANCH   7   8
ATOM      8  C   LIG d   1      -6.078  93.432 119.639  0.00  0.00     0.119 C 
BRANCH   8   9
ATOM      9  C   LIG d   1      -7.415  94.194 119.555  0.00  0.00     0.028 C 
ATOM     10  C   LIG d   1      -7.502  95.090 118.307  0.00  0.00     0.006 C 
ENDBRANCH   8   9
BRANCH   8  11
ATOM     11  C   LIG d   1      -5.054  94.331 118.941  0.00  0.00     0.028 C 
ATOM     12  C   LIG d   1      -4.071  94.989 119.923  0.00  0.00     0.006 C 
ENDBRANCH   8  11
ENDBRANCH   7   8
ENDBRANCH   1   7
BRANCH   6  13
ATOM     13  N   LIG d   1      -3.466  91.019 119.029  0.00  0.00    -0.311 N 
ATOM     14  C   LIG d   1      -2.447  91.837 118.771  0.00  0.00     0.210 C 
ATOM     15  C   LIG d   1      -1.461  92.027 119.928  0.00  0.00     0.109 C 
ATOM     16  O   LIG d   1      -2.283  92.449 117.705  0.00  0.00    -0.276 OA
ATOM     17  H   LIG d   1      -3.539  90.591 119.931  0.00  0.00     0.149 HD
ENDBRANCH   6  13
BRANCH   5  18
ATOM     18  N   LIG d   1      -3.217  88.875 116.867  0.00  0.00     0.381 N 
ATOM     19  H   LIG d   1      -3.860  88.157 117.133  0.00  0.00    -0.090 HD
ATOM     20  H   LIG d   1      -2.534  88.974 117.598  0.00  0.00    -0.090 HD
ATOM     21  H   LIG d   1      -2.767  88.629 116.013  0.00  0.00    -0.090 HD
ENDBRANCH   5  18
BRANCH   3  22
ATOM     22  C   LIG d   1      -6.546  91.230 114.355  0.00  0.00     0.382 C 
ATOM     23  O   LIG d   1      -6.447  92.334 113.766  0.00  0.00    -0.241 OA
ATOM     24  O   LIG d   1      -7.248  90.330 113.856  0.00  0.00    -0.241 OA
ENDBRANCH   3  22
TORSDOF 7
ENDMDL
MODEL 5
REMARK VINA RESULT:      -4.9      2.530      6.142
REMARK  7 active torsions:
REMARK  status: ('A' for Active; 'I' for Inactive)
REMARK    1  A    between atoms: C_2  and  C_3 
REMARK    2  A    between atoms: C_3  and  O_6 
REMARK    3  A    between atoms: C_3  and  C_4 
REMARK    4  A    between atoms: C_7  and  O_6 
REMARK    5  A    between atoms: C_9  and  C_10 
REMARK    6  A    between atoms: N_15  and  C_14 
REMARK    7  A    between atoms: N_20  and  C_19 
REMARK       I    between atoms: C_22  and  N_20 
ROOT
ATOM      1  C   LIG d   1      -3.014  92.514 119.397  0.00  0.00     0.161 C 
ATOM      2  C   LIG d   1      -2.818  93.894 119.219  0.00  0.00     0.016 C 
ATOM      3  C   LIG d   1      -1.872  94.435 118.318  0.00  0.00     0.038 C 
ATOM      4  C   LIG d   1      -1.160  93.629 117.417  0.00  0.00     0.028 C 
ATOM      5  C   LIG d   1      -0.958  92.201 117.912  0.00  0.00    -0.047 C 
ATOM      6  C   LIG d   1      -2.324  91.621 118.344  0.00  0.00     0.091 C 
ENDROOT
BRANCH   1   7
ATOM      7  O   LIG d   1      -4.424  92.224 119.454  0.00  0.00    -0.368 OA
BRANCH   7   8
ATOM      8  C   LIG d   1      -5.237  92.808 118.406  0.00  0.00     0.119 C 
BRANCH   8   9
ATOM      9  C   LIG d   1      -6.381  93.585 119.087  0.00  0.00     0.028 C 
ATOM     10  C   LIG d   1      -7.019  94.628 118.154  0.00  0.00     0.006 C 
ENDBRANCH   8   9
BRANCH   8  11
ATOM     11  C   LIG d   1      -5.925  91.728 117.567  0.00  0.00     0.028 C 
ATOM     12  C   LIG d   1      -5.564  91.812 116.075  0.00  0.00     0.006 C 
ENDBRANCH   8  11
ENDBRANCH   7   8
ENDBRANCH   1   7
BRANCH   6  13
ATOM     13  N   LIG d   1      -2.205  90.257 118.920  0.00  0.00    -0.311 N 
ATOM     14  C   LIG d   1      -2.858  89.199 118.441  0.00  0.00     0.210 C 
ATOM     15  C   LIG d   1      -2.608  87.889 119.195  0.00  0.00     0.109 C 
ATOM     16  O   LIG d   1      -3.595  89.215 117.444  0.00  0.00    -0.276 OA
ATOM     17  H   LIG d   1      -1.603  90.147 119.712  0.00  0.00     0.149 HD
ENDBRANCH   6  13
BRANCH   5  18
ATOM     18  N   LIG d   1      -0.325  91.437 116.821  0.00  0.00     0.381 N 
ATOM     19  H   LIG d   1      -0.214  90.481 117.096  0.00  0.00    -0.090 HD
ATOM     20  H   LIG d   1       0.586  91.821 116.641  0.00  0.00    -0.090 HD
ATOM     21  H   LIG d   1      -0.884  91.490 115.998  0.00  0.00    -0.090 HD
ENDBRANCH   5  18
BRANCH   3  22
ATOM     22  C   LIG d   1      -1.603  95.795 118.339  0.00  0.00     0.382 C 
ATOM     23  O   LIG d   1      -2.545  96.622 118.279  0.00  0.00    -0.241 OA
ATOM     24  O   LIG d   1      -0.428  96.206 118.374  0.00  0.00    -0.241 OA
ENDBRANCH   3  22
TORSDOF 7
ENDMDL
MODEL 6
REMARK VINA RESULT:      -4.8      2.762      6.766
REMARK  7 active torsions:
REMARK  status: ('A' for Active; 'I' for Inactive)
REMARK    1  A    between atoms: C_2  and  C_3 
REMARK    2  A    between atoms: C_3  and  O_6 
REMARK    3  A    between atoms: C_3  and  C_4 
REMARK    4  A    between atoms: C_7  and  O_6 
REMARK    5  A    between atoms: C_9  and  C_10 
REMARK    6  A    between atoms: N_15  and  C_14 
REMARK    7  A    between atoms: N_20  and  C_19 
REMARK       I    between atoms: C_22  and  N_20 
ROOT
ATOM      1  C   LIG d   1      -5.893  92.170 118.764  0.00  0.00     0.161 C 
ATOM      2  C   LIG d   1      -4.755  92.843 119.238  0.00  0.00     0.016 C 
ATOM      3  C   LIG d   1      -3.443  92.565 118.789  0.00  0.00     0.038 C 
ATOM      4  C   LIG d   1      -3.195  91.692 117.719  0.00  0.00     0.028 C 
ATOM      5  C   LIG d   1      -4.265  90.617 117.554  0.00  0.00    -0.047 C 
ATOM      6  C   LIG d   1      -5.654  91.293 117.518  0.00  0.00     0.091 C 
ENDROOT
BRANCH   1   7
ATOM      7  O   LIG d   1      -6.952  93.116 118.516  0.00  0.00    -0.368 OA
BRANCH   7   8
ATOM      8  C   LIG d   1      -6.933  94.320 119.322  0.00  0.00     0.119 C 
BRANCH   8   9
ATOM      9  C   LIG d   1      -8.339  94.492 119.930  0.00  0.00     0.028 C 
ATOM     10  C   LIG d   1      -9.122  95.646 119.281  0.00  0.00     0.006 C 
ENDBRANCH   8   9
BRANCH   8  11
ATOM     11  C   LIG d   1      -6.710  95.565 118.458  0.00  0.00     0.028 C 
ATOM     12  C   LIG d   1      -5.560  96.446 118.970  0.00  0.00     0.006 C 
ENDBRANCH   8  11
ENDBRANCH   7   8
ENDBRANCH   1   7
BRANCH   6  13
ATOM     13  N   LIG d   1      -6.763  90.306 117.443  0.00  0.00    -0.311 N 
ATOM     14  C   LIG d   1      -7.248  89.834 116.296  0.00  0.00     0.210 C 
ATOM     15  C   LIG d   1      -8.405  88.840 116.443  0.00  0.00     0.109 C 
ATOM     16  O   LIG d   1      -6.810  90.120 115.171  0.00  0.00    -0.276 OA
ATOM     17  H   LIG d   1      -7.157  89.996 118.310  0.00  0.00     0.149 HD
ENDBRANCH   6  13
BRANCH   5  18
ATOM     18  N   LIG d   1      -3.955  89.865 116.324  0.00  0.00     0.381 N 
ATOM     19  H   LIG d   1      -4.758  89.343 116.034  0.00  0.00    -0.090 HD
ATOM     20  H   LIG d   1      -3.211  89.218 116.517  0.00  0.00    -0.090 HD
ATOM     21  H   LIG d   1      -3.680  90.493 115.601  0.00  0.00    -0.090 HD
ENDBRANCH   5  18
BRANCH   3  22
ATOM     22  C   LIG d   1      -2.359  93.133 119.440  0.00  0.00     0.382 C 
ATOM     23  O   LIG d   1      -2.356  94.360 119.700  0.00  0.00    -0.241 OA
ATOM     24  O   LIG d   1      -1.364  92.442 119.732  0.00  0.00    -0.241 OA
ENDBRANCH   3  22
TORSDOF 7
ENDMDL
MODEL 7
REMARK VINA RESULT:      -4.8      1.869      4.505
REMARK  7 active torsions:
REMARK  status: ('A' for Active; 'I' for Inactive)
REMARK    1  A    between atoms: C_2  and  C_3 
REMARK    2  A    between atoms: C_3  and  O_6 
REMARK    3  A    between atoms: C_3  and  C_4 
REMARK    4  A    between atoms: C_7  and  O_6 
REMARK    5  A    between atoms: C_9  and  C_10 
REMARK    6  A    between atoms: N_15  and  C_14 
REMARK    7  A    between atoms: N_20  and  C_19 
REMARK       I    between atoms: C_22  and  N_20 
ROOT
ATOM      1  C   LIG d   1      -4.116  91.422 117.198  0.00  0.00     0.161 C 
ATOM      2  C   LIG d   1      -3.212  92.317 117.793  0.00  0.00     0.016 C 
ATOM      3  C   LIG d   1      -3.603  93.331 118.698  0.00  0.00     0.038 C 
ATOM      4  C   LIG d   1      -4.914  93.421 119.190  0.00  0.00     0.028 C 
ATOM      5  C   LIG d   1      -5.959  92.857 118.233  0.00  0.00    -0.047 C 
ATOM      6  C   LIG d   1      -5.534  91.433 117.807  0.00  0.00     0.091 C 
ENDROOT
BRANCH   1   7
ATOM      7  O   LIG d   1      -3.571  90.088 117.224  0.00  0.00    -0.368 OA
BRANCH   7   8
ATOM      8  C   LIG d   1      -2.561  89.832 118.231  0.00  0.00     0.119 C 
BRANCH   8   9
ATOM      9  C   LIG d   1      -1.430  89.028 117.559  0.00  0.00     0.028 C 
ATOM     10  C   LIG d   1      -0.290  89.928 117.055  0.00  0.00     0.006 C 
ENDBRANCH   8   9
BRANCH   8  11
ATOM     11  C   LIG d   1      -3.098  88.924 119.341  0.00  0.00     0.028 C 
ATOM     12  C   LIG d   1      -2.395  87.559 119.388  0.00  0.00     0.006 C 
ENDBRANCH   8  11
ENDBRANCH   7   8
ENDBRANCH   1   7
BRANCH   6  13
ATOM     13  N   LIG d   1      -6.458  90.841 116.806  0.00  0.00    -0.311 N 
ATOM     14  C   LIG d   1      -6.550  91.271 115.548  0.00  0.00     0.210 C 
ATOM     15  C   LIG d   1      -7.581  90.535 114.687  0.00  0.00     0.109 C 
ATOM     16  O   LIG d   1      -5.852  92.170 115.055  0.00  0.00    -0.276 OA
ATOM     17  H   LIG d   1      -7.040  90.086 117.112  0.00  0.00     0.149 HD
ENDBRANCH   6  13
BRANCH   5  18
ATOM     18  N   LIG d   1      -7.261  92.888 118.927  0.00  0.00     0.381 N 
ATOM     19  H   LIG d   1      -7.122  92.781 119.912  0.00  0.00    -0.090 HD
ATOM     20  H   LIG d   1      -7.821  92.120 118.601  0.00  0.00    -0.090 HD
ATOM     21  H   LIG d   1      -7.725  93.750 118.741  0.00  0.00    -0.090 HD
ENDBRANCH   5  18
BRANCH   3  22
ATOM     22  C   LIG d   1      -2.685  94.293 119.091  0.00  0.00     0.382 C 
ATOM     23  O   LIG d   1      -3.025  95.500 119.142  0.00  0.00    -0.241 OA
ATOM     24  O   LIG d   1      -1.509  93.975 119.351  0.00  0.00    -0.241 OA
ENDBRANCH   3  22
TORSDOF 7
ENDMDL
MODEL 8
REMARK VINA RESULT:      -4.7      2.386      4.049
REMARK  7 active torsions:
REMARK  status: ('A' for Active; 'I' for Inactive)
REMARK    1  A    between atoms: C_2  and  C_3 
REMARK    2  A    between atoms: C_3  and  O_6 
REMARK    3  A    between atoms: C_3  and  C_4 
REMARK    4  A    between atoms: C_7  and  O_6 
REMARK    5  A    between atoms: C_9  and  C_10 
REMARK    6  A    between atoms: N_15  and  C_14 
REMARK    7  A    between atoms: N_20  and  C_19 
REMARK       I    between atoms: C_22  and  N_20 
ROOT
ATOM      1  C   LIG d   1      -2.970  91.627 117.772  0.00  0.00     0.161 C 
ATOM      2  C   LIG d   1      -4.190  92.319 117.696  0.00  0.00     0.016 C 
ATOM      3  C   LIG d   1      -5.344  91.795 117.070  0.00  0.00     0.038 C 
ATOM      4  C   LIG d   1      -5.400  90.472 116.607  0.00  0.00     0.028 C 
ATOM      5  C   LIG d   1      -4.039  89.911 116.209  0.00  0.00    -0.047 C 
ATOM      6  C   LIG d   1      -3.044  90.139 117.370  0.00  0.00     0.091 C 
ENDROOT
BRANCH   1   7
ATOM      7  O   LIG d   1      -2.413  91.762 119.094  0.00  0.00    -0.368 OA
BRANCH   7   8
ATOM      8  C   LIG d   1      -1.224  92.582 119.205  0.00  0.00     0.119 C 
BRANCH   8   9
ATOM      9  C   LIG d   1      -0.953  93.193 117.816  0.00  0.00     0.028 C 
ATOM     10  C   LIG d   1      -0.982  94.731 117.836  0.00  0.00     0.006 C 
ENDBRANCH   8   9
BRANCH   8  11
ATOM     11  C   LIG d   1       0.011  91.733 119.522  0.00  0.00     0.028 C 
ATOM     12  C   LIG d   1       1.024  91.699 118.367  0.00  0.00     0.006 C 
ENDBRANCH   8  11
ENDBRANCH   7   8
ENDBRANCH   1   7
BRANCH   6  13
ATOM     13  N   LIG d   1      -1.667  89.695 117.031  0.00  0.00    -0.311 N 
ATOM     14  C   LIG d   1      -1.173  88.508 117.379  0.00  0.00     0.210 C 
ATOM     15  C   LIG d   1       0.276  88.259 116.947  0.00  0.00     0.109 C 
ATOM     16  O   LIG d   1      -1.807  87.625 117.975  0.00  0.00    -0.276 OA
ATOM     17  H   LIG d   1      -1.093  90.338 116.520  0.00  0.00     0.149 HD
ENDBRANCH   6  13
BRANCH   5  18
ATOM     18  N   LIG d   1      -4.224  88.486 115.877  0.00  0.00     0.381 N 
ATOM     19  H   LIG d   1      -3.403  87.971 116.127  0.00  0.00    -0.090 HD
ATOM     20  H   LIG d   1      -4.362  88.398 114.886  0.00  0.00    -0.090 HD
ATOM     21  H   LIG d   1      -5.014  88.122 116.364  0.00  0.00    -0.090 HD
ENDBRANCH   5  18
BRANCH   3  22
ATOM     22  C   LIG d   1      -6.447  92.611 116.867  0.00  0.00     0.382 C 
ATOM     23  O   LIG d   1      -7.131  92.492 115.822  0.00  0.00    -0.241 OA
ATOM     24  O   LIG d   1      -6.739  93.495 117.694  0.00  0.00    -0.241 OA
ENDBRANCH   3  22
TORSDOF 7
ENDMDL
MODEL 9
REMARK VINA RESULT:      -4.7      2.500      4.958
REMARK  7 active torsions:
REMARK  status: ('A' for Active; 'I' for Inactive)
REMARK    1  A    between atoms: C_2  and  C_3 
REMARK    2  A    between atoms: C_3  and  O_6 
REMARK    3  A    between atoms: C_3  and  C_4 
REMARK    4  A    between atoms: C_7  and  O_6 
REMARK    5  A    between atoms: C_9  and  C_10 
REMARK    6  A    between atoms: N_15  and  C_14 
REMARK    7  A    between atoms: N_20  and  C_19 
REMARK       I    between atoms: C_22  and  N_20 
ROOT
ATOM      1  C   LIG d   1      -4.971  92.393 119.219  0.00  0.00     0.161 C 
ATOM      2  C   LIG d   1      -3.994  91.471 118.808  0.00  0.00     0.016 C 
ATOM      3  C   LIG d   1      -3.971  90.881 117.523  0.00  0.00     0.038 C 
ATOM      4  C   LIG d   1      -4.844  91.291 116.504  0.00  0.00     0.028 C 
ATOM      5  C   LIG d   1      -6.164  91.850 117.025  0.00  0.00    -0.047 C 
ATOM      6  C   LIG d   1      -5.865  92.935 118.085  0.00  0.00     0.091 C 
ENDROOT
BRANCH   1   7
ATOM      7  O   LIG d   1      -4.348  93.481 119.930  0.00  0.00    -0.368 OA
BRANCH   7   8
ATOM      8  C   LIG d   1      -3.703  94.489 119.114  0.00  0.00     0.119 C 
BRANCH   8   9
ATOM      9  C   LIG d   1      -2.185  94.225 119.166  0.00  0.00     0.028 C 
ATOM     10  C   LIG d   1      -1.598  93.906 117.781  0.00  0.00     0.006 C 
ENDBRANCH   8   9
BRANCH   8  11
ATOM     11  C   LIG d   1      -3.892  95.889 119.705  0.00  0.00     0.028 C 
ATOM     12  C   LIG d   1      -3.037  96.954 119.000  0.00  0.00     0.006 C 
ENDBRANCH   8  11
ENDBRANCH   7   8
ENDBRANCH   1   7
BRANCH   6  13
ATOM     13  N   LIG d   1      -7.102  93.475 118.707  0.00  0.00    -0.311 N 
ATOM     14  C   LIG d   1      -7.463  94.755 118.631  0.00  0.00     0.210 C 
ATOM     15  C   LIG d   1      -8.764  95.105 119.360  0.00  0.00     0.109 C 
ATOM     16  O   LIG d   1      -6.846  95.627 118.002  0.00  0.00    -0.276 OA
ATOM     17  H   LIG d   1      -7.679  92.830 119.211  0.00  0.00     0.149 HD
ENDBRANCH   6  13
BRANCH   5  18
ATOM     18  N   LIG d   1      -6.918  92.365 115.867  0.00  0.00     0.381 N 
ATOM     19  H   LIG d   1      -6.692  91.831 115.051  0.00  0.00    -0.090 HD
ATOM     20  H   LIG d   1      -6.652  93.319 115.703  0.00  0.00    -0.090 HD
ATOM     21  H   LIG d   1      -7.897  92.312 116.046  0.00  0.00    -0.090 HD
ENDBRANCH   5  18
BRANCH   3  22
ATOM     22  C   LIG d   1      -3.093  89.841 117.259  0.00  0.00     0.382 C 
ATOM     23  O   LIG d   1      -1.856  90.051 117.254  0.00  0.00    -0.241 OA
ATOM     24  O   LIG d   1      -3.524  88.705 116.983  0.00  0.00    -0.241 OA
ENDBRANCH   3  22
TORSDOF 7
ENDMDL
