MODEL 1
REMARK VINA RESULT:      -6.0      0.000      0.000
REMARK  7 active torsions:
REMARK  status: ('A' for Active; 'I' for Inactive)
REMARK    1  A    between atoms: C_2  and  C_3 
REMARK    2  A    between atoms: C_3  and  O_6 
REMARK    3  A    between atoms: C_3  and  C_4 
REMARK    4  A    between atoms: C_7  and  O_6 
REMARK    5  A    between atoms: C_9  and  C_10 
REMARK    6  A    between atoms: N_15  and  C_14 
REMARK    7  A    between atoms: N_20  and  C_19 
REMARK       I    between atoms: C_22  and  N_20 
ROOT
ATOM      1  C   LIG d   1      -4.607  91.060 116.767  0.00  0.00     0.161 C 
ATOM      2  C   LIG d   1      -3.461  90.250 116.705  0.00  0.00     0.016 C 
ATOM      3  C   LIG d   1      -2.282  90.512 117.440  0.00  0.00     0.038 C 
ATOM      4  C   LIG d   1      -2.223  91.525 118.408  0.00  0.00     0.028 C 
ATOM      5  C   LIG d   1      -3.184  92.678 118.139  0.00  0.00    -0.047 C 
ATOM      6  C   LIG d   1      -4.600  92.106 117.901  0.00  0.00     0.091 C 
ENDROOT
BRANCH   1   7
ATOM      7  O   LIG d   1      -5.785  90.234 116.854  0.00  0.00    -0.368 OA
BRANCH   7   8
ATOM      8  C   LIG d   1      -6.529  90.051 115.624  0.00  0.00     0.119 C 
BRANCH   8   9
ATOM      9  C   LIG d   1      -6.096  91.166 114.652  0.00  0.00     0.028 C 
ATOM     10  C   LIG d   1      -7.198  92.216 114.436  0.00  0.00     0.006 C 
ENDBRANCH   8   9
BRANCH   8  11
ATOM     11  C   LIG d   1      -8.030  90.265 115.844  0.00  0.00     0.028 C 
ATOM     12  C   LIG d   1      -8.707  89.069 116.532  0.00  0.00     0.006 C 
ENDBRANCH   8  11
ENDBRANCH   7   8
ENDBRANCH   1   7
BRANCH   6  13
ATOM     13  N   LIG d   1      -5.586  93.160 117.547  0.00  0.00    -0.311 N 
ATOM     14  C   LIG d   1      -6.814  93.217 118.059  0.00  0.00     0.210 C 
ATOM     15  C   LIG d   1      -7.676  94.374 117.544  0.00  0.00     0.109 C 
ATOM     16  O   LIG d   1      -7.261  92.437 118.914  0.00  0.00    -0.276 OA
ATOM     17  H   LIG d   1      -5.296  93.851 116.884  0.00  0.00     0.149 HD
ENDBRANCH   6  13
BRANCH   5  18
ATOM     18  N   LIG d   1      -3.117  93.593 119.294  0.00  0.00     0.381 N 
ATOM     19  H   LIG d   1      -3.699  93.251 120.032  0.00  0.00    -0.090 HD
ATOM     20  H   LIG d   1      -3.460  94.496 119.014  0.00  0.00    -0.090 HD
ATOM     21  H   LIG d   1      -2.176  93.672 119.613  0.00  0.00    -0.090 HD
ENDBRANCH   5  18
BRANCH   3  22
ATOM     22  C   LIG d   1      -1.133  89.781 117.180  0.00  0.00     0.382 C 
ATOM     23  O   LIG d   1      -0.097  90.363 116.777  0.00  0.00    -0.241 OA
ATOM     24  O   LIG d   1      -1.133  88.541 117.300  0.00  0.00    -0.241 OA
ENDBRANCH   3  22
TORSDOF 7
ENDMDL
MODEL 2
REMARK VINA RESULT:      -5.4      2.352      6.159
REMARK  7 active torsions:
REMARK  status: ('A' for Active; 'I' for Inactive)
REMARK    1  A    between atoms: C_2  and  C_3 
REMARK    2  A    between atoms: C_3  and  O_6 
REMARK    3  A    between atoms: C_3  and  C_4 
REMARK    4  A    between atoms: C_7  and  O_6 
REMARK    5  A    between atoms: C_9  and  C_10 
REMARK    6  A    between atoms: N_15  and  C_14 
REMARK    7  A    between atoms: N_20  and  C_19 
REMARK       I    between atoms: C_22  and  N_20 
ROOT
ATOM      1  C   LIG d   1      -4.079  91.784 117.392  0.00  0.00     0.161 C 
ATOM      2  C   LIG d   1      -5.340  92.371 117.194  0.00  0.00     0.016 C 
ATOM      3  C   LIG d   1      -6.296  91.871 116.279  0.00  0.00     0.038 C 
ATOM      4  C   LIG d   1      -6.112  90.654 115.606  0.00  0.00     0.028 C 
ATOM      5  C   LIG d   1      -4.645  90.294 115.395  0.00  0.00    -0.047 C 
ATOM      6  C   LIG d   1      -3.905  90.392 116.748  0.00  0.00     0.091 C 
ENDROOT
BRANCH   1   7
ATOM      7  O   LIG d   1      -3.784  91.724 118.802  0.00  0.00    -0.368 OA
BRANCH   7   8
ATOM      8  C   LIG d   1      -2.789  92.659 119.285  0.00  0.00     0.119 C 
BRANCH   8   9
ATOM      9  C   LIG d   1      -3.538  93.841 119.930  0.00  0.00     0.028 C 
ATOM     10  C   LIG d   1      -3.175  95.189 119.284  0.00  0.00     0.006 C 
ENDBRANCH   8   9
BRANCH   8  11
ATOM     11  C   LIG d   1      -1.989  93.268 118.129  0.00  0.00     0.028 C 
ATOM     12  C   LIG d   1      -0.519  92.820 118.121  0.00  0.00     0.006 C 
ENDBRANCH   8  11
ENDBRANCH   7   8
ENDBRANCH   1   7
BRANCH   6  13
ATOM     13  N   LIG d   1      -2.447  90.137 116.616  0.00  0.00    -0.311 N 
ATOM     14  C   LIG d   1      -1.784  89.263 117.372  0.00  0.00     0.210 C 
ATOM     15  C   LIG d   1      -0.282  89.169 117.085  0.00  0.00     0.109 C 
ATOM     16  O   LIG d   1      -2.303  88.533 118.230  0.00  0.00    -0.276 OA
ATOM     17  H   LIG d   1      -1.952  90.664 115.923  0.00  0.00     0.149 HD
ENDBRANCH   6  13
BRANCH   5  18
ATOM     18  N   LIG d   1      -4.599  88.942 114.807  0.00  0.00     0.381 N 
ATOM     19  H   LIG d   1      -5.529  88.593 114.685  0.00  0.00    -0.090 HD
ATOM     20  H   LIG d   1      -4.113  88.329 115.439  0.00  0.00    -0.090 HD
ATOM     21  H   LIG d   1      -4.128  88.967 113.930  0.00  0.00    -0.090 HD
ENDBRANCH   5  18
BRANCH   3  22
ATOM     22  C   LIG d   1      -7.433  92.613 116.000  0.00  0.00     0.382 C 
ATOM     23  O   LIG d   1      -8.096  92.379 114.961  0.00  0.00    -0.241 OA
ATOM     24  O   LIG d   1      -7.781  93.543 116.753  0.00  0.00    -0.241 OA
ENDBRANCH   3  22
TORSDOF 7
ENDMDL
MODEL 3
REMARK VINA RESULT:      -4.7      2.064      6.113
REMARK  7 active torsions:
REMARK  status: ('A' for Active; 'I' for Inactive)
REMARK    1  A    between atoms: C_2  and  C_3 
REMARK    2  A    between atoms: C_3  and  O_6 
REMARK    3  A    between atoms: C_3  and  C_4 
REMARK    4  A    between atoms: C_7  and  O_6 
REMARK    5  A    between atoms: C_9  and  C_10 
REMARK    6  A    between atoms: N_15  and  C_14 
REMARK    7  A    between atoms: N_20  and  C_19 
REMARK       I    between atoms: C_22  and  N_20 
ROOT
ATOM      1  C   LIG d   1      -2.097  90.261 117.600  0.00  0.00     0.161 C 
ATOM      2  C   LIG d   1      -3.269  89.850 116.942  0.00  0.00     0.016 C 
ATOM      3  C   LIG d   1      -4.359  90.712 116.684  0.00  0.00     0.038 C 
ATOM      4  C   LIG d   1      -4.290  92.091 116.932  0.00  0.00     0.028 C 
ATOM      5  C   LIG d   1      -3.324  92.456 118.055  0.00  0.00    -0.047 C 
ATOM      6  C   LIG d   1      -1.958  91.788 117.779  0.00  0.00     0.091 C 
ENDROOT
BRANCH   1   7
ATOM      7  O   LIG d   1      -0.943  89.729 116.920  0.00  0.00    -0.368 OA
BRANCH   7   8
ATOM      8  C   LIG d   1      -0.466  88.443 117.385  0.00  0.00     0.119 C 
BRANCH   8   9
ATOM      9  C   LIG d   1      -0.394  88.505 118.924  0.00  0.00     0.028 C 
ATOM     10  C   LIG d   1      -1.031  87.275 119.591  0.00  0.00     0.006 C 
ENDBRANCH   8   9
BRANCH   8  11
ATOM     11  C   LIG d   1       0.970  88.181 116.923  0.00  0.00     0.028 C 
ATOM     12  C   LIG d   1       1.078  86.984 115.964  0.00  0.00     0.006 C 
ENDBRANCH   8  11
ENDBRANCH   7   8
ENDBRANCH   1   7
BRANCH   6  13
ATOM     13  N   LIG d   1      -0.980  92.025 118.872  0.00  0.00    -0.311 N 
ATOM     14  C   LIG d   1       0.320  92.229 118.662  0.00  0.00     0.210 C 
ATOM     15  C   LIG d   1       1.155  92.433 119.930  0.00  0.00     0.109 C 
ATOM     16  O   LIG d   1       0.854  92.292 117.545  0.00  0.00    -0.276 OA
ATOM     17  H   LIG d   1      -1.333  92.021 119.809  0.00  0.00     0.149 HD
ENDBRANCH   6  13
BRANCH   5  18
ATOM     18  N   LIG d   1      -3.246  93.928 118.114  0.00  0.00     0.381 N 
ATOM     19  H   LIG d   1      -2.416  94.204 118.600  0.00  0.00    -0.090 HD
ATOM     20  H   LIG d   1      -4.040  94.275 118.624  0.00  0.00    -0.090 HD
ATOM     21  H   LIG d   1      -3.242  94.307 117.193  0.00  0.00    -0.090 HD
ENDBRANCH   5  18
BRANCH   3  22
ATOM     22  C   LIG d   1      -5.551  90.188 116.207  0.00  0.00     0.382 C 
ATOM     23  O   LIG d   1      -5.576  89.590 115.104  0.00  0.00    -0.241 OA
ATOM     24  O   LIG d   1      -6.610  90.345 116.843  0.00  0.00    -0.241 OA
ENDBRANCH   3  22
TORSDOF 7
ENDMDL
MODEL 4
REMARK VINA RESULT:      -4.6      1.508      2.408
REMARK  7 active torsions:
REMARK  status: ('A' for Active; 'I' for Inactive)
REMARK    1  A    between atoms: C_2  and  C_3 
REMARK    2  A    between atoms: C_3  and  O_6 
REMARK    3  A    between atoms: C_3  and  C_4 
REMARK    4  A    between atoms: C_7  and  O_6 
REMARK    5  A    between atoms: C_9  and  C_10 
REMARK    6  A    between atoms: N_15  and  C_14 
REMARK    7  A    between atoms: N_20  and  C_19 
REMARK       I    between atoms: C_22  and  N_20 
ROOT
ATOM      1  C   LIG d   1      -5.333  92.503 117.503  0.00  0.00     0.161 C 
ATOM      2  C   LIG d   1      -4.076  91.878 117.556  0.00  0.00     0.016 C 
ATOM      3  C   LIG d   1      -2.996  92.366 118.327  0.00  0.00     0.038 C 
ATOM      4  C   LIG d   1      -3.148  93.436 119.221  0.00  0.00     0.028 C 
ATOM      5  C   LIG d   1      -4.255  94.406 118.823  0.00  0.00    -0.047 C 
ATOM      6  C   LIG d   1      -5.551  93.607 118.558  0.00  0.00     0.091 C 
ENDROOT
BRANCH   1   7
ATOM      7  O   LIG d   1      -6.376  91.511 117.592  0.00  0.00    -0.368 OA
BRANCH   7   8
ATOM      8  C   LIG d   1      -7.216  91.363 116.422  0.00  0.00     0.119 C 
BRANCH   8   9
ATOM      9  C   LIG d   1      -7.274  89.861 116.080  0.00  0.00     0.028 C 
ATOM     10  C   LIG d   1      -8.634  89.232 116.428  0.00  0.00     0.006 C 
ENDBRANCH   8   9
BRANCH   8  11
ATOM     11  C   LIG d   1      -6.588  92.033 115.196  0.00  0.00     0.028 C 
ATOM     12  C   LIG d   1      -7.351  91.732 113.896  0.00  0.00     0.006 C 
ENDBRANCH   8  11
ENDBRANCH   7   8
ENDBRANCH   1   7
BRANCH   6  13
ATOM     13  N   LIG d   1      -6.663  94.471 118.082  0.00  0.00    -0.311 N 
ATOM     14  C   LIG d   1      -7.874  94.480 118.636  0.00  0.00     0.210 C 
ATOM     15  C   LIG d   1      -8.879  95.430 117.978  0.00  0.00     0.109 C 
ATOM     16  O   LIG d   1      -8.202  93.814 119.629  0.00  0.00    -0.276 OA
ATOM     17  H   LIG d   1      -6.474  95.066 117.299  0.00  0.00     0.149 HD
ENDBRANCH   6  13
BRANCH   5  18
ATOM     18  N   LIG d   1      -4.396  95.392 119.911  0.00  0.00     0.381 N 
ATOM     19  H   LIG d   1      -4.390  96.318 119.532  0.00  0.00    -0.090 HD
ATOM     20  H   LIG d   1      -3.613  95.302 120.535  0.00  0.00    -0.090 HD
ATOM     21  H   LIG d   1      -5.245  95.234 120.407  0.00  0.00    -0.090 HD
ENDBRANCH   5  18
BRANCH   3  22
ATOM     22  C   LIG d   1      -1.736  91.807 118.176  0.00  0.00     0.382 C 
ATOM     23  O   LIG d   1      -1.568  90.580 118.374  0.00  0.00    -0.241 OA
ATOM     24  O   LIG d   1      -0.758  92.522 117.889  0.00  0.00    -0.241 OA
ENDBRANCH   3  22
TORSDOF 7
ENDMDL
MODEL 5
REMARK VINA RESULT:      -4.3      4.516      8.276
REMARK  7 active torsions:
REMARK  status: ('A' for Active; 'I' for Inactive)
REMARK    1  A    between atoms: C_2  and  C_3 
REMARK    2  A    between atoms: C_3  and  O_6 
REMARK    3  A    between atoms: C_3  and  C_4 
REMARK    4  A    between atoms: C_7  and  O_6 
REMARK    5  A    between atoms: C_9  and  C_10 
REMARK    6  A    between atoms: N_15  and  C_14 
REMARK    7  A    between atoms: N_20  and  C_19 
REMARK       I    between atoms: C_22  and  N_20 
ROOT
ATOM      1  C   LIG d   1       1.175  88.639 116.996  0.00  0.00     0.161 C 
ATOM      2  C   LIG d   1      -0.217  88.463 117.078  0.00  0.00     0.016 C 
ATOM      3  C   LIG d   1      -1.122  89.523 117.319  0.00  0.00     0.038 C 
ATOM      4  C   LIG d   1      -0.706  90.862 117.343  0.00  0.00     0.028 C 
ATOM      5  C   LIG d   1       0.748  91.037 117.768  0.00  0.00    -0.047 C 
ATOM      6  C   LIG d   1       1.637  90.109 116.910  0.00  0.00     0.091 C 
ENDROOT
BRANCH   1   7
ATOM      7  O   LIG d   1       1.698  87.883 115.886  0.00  0.00    -0.368 OA
BRANCH   7   8
ATOM      8  C   LIG d   1       2.115  86.527 116.179  0.00  0.00     0.119 C 
BRANCH   8   9
ATOM      9  C   LIG d   1       3.631  86.557 116.452  0.00  0.00     0.028 C 
ATOM     10  C   LIG d   1       4.449  86.864 115.187  0.00  0.00     0.006 C 
ENDBRANCH   8   9
BRANCH   8  11
ATOM     11  C   LIG d   1       1.940  85.615 114.961  0.00  0.00     0.028 C 
ATOM     12  C   LIG d   1       0.951  86.182 113.929  0.00  0.00     0.006 C 
ENDBRANCH   8  11
ENDBRANCH   7   8
ENDBRANCH   1   7
BRANCH   6  13
ATOM     13  N   LIG d   1       3.065  90.156 117.318  0.00  0.00    -0.311 N 
ATOM     14  C   LIG d   1       4.067  90.340 116.460  0.00  0.00     0.210 C 
ATOM     15  C   LIG d   1       5.465  90.335 117.087  0.00  0.00     0.109 C 
ATOM     16  O   LIG d   1       3.929  90.540 115.243  0.00  0.00    -0.276 OA
ATOM     17  H   LIG d   1       3.266  90.034 118.291  0.00  0.00     0.149 HD
ENDBRANCH   6  13
BRANCH   5  18
ATOM     18  N   LIG d   1       1.087  92.465 117.617  0.00  0.00     0.381 N 
ATOM     19  H   LIG d   1       0.273  93.025 117.772  0.00  0.00    -0.090 HD
ATOM     20  H   LIG d   1       1.406  92.625 116.678  0.00  0.00    -0.090 HD
ATOM     21  H   LIG d   1       1.801  92.716 118.265  0.00  0.00    -0.090 HD
ENDBRANCH   5  18
BRANCH   3  22
ATOM     22  C   LIG d   1      -2.455  89.242 117.577  0.00  0.00     0.382 C 
ATOM     23  O   LIG d   1      -3.339  89.584 116.755  0.00  0.00    -0.241 OA
ATOM     24  O   LIG d   1      -2.789  88.690 118.643  0.00  0.00    -0.241 OA
ENDBRANCH   3  22
TORSDOF 7
ENDMDL
MODEL 6
REMARK VINA RESULT:      -4.3      8.350     11.015
REMARK  7 active torsions:
REMARK  status: ('A' for Active; 'I' for Inactive)
REMARK    1  A    between atoms: C_2  and  C_3 
REMARK    2  A    between atoms: C_3  and  O_6 
REMARK    3  A    between atoms: C_3  and  C_4 
REMARK    4  A    between atoms: C_7  and  O_6 
REMARK    5  A    between atoms: C_9  and  C_10 
REMARK    6  A    between atoms: N_15  and  C_14 
REMARK    7  A    between atoms: N_20  and  C_19 
REMARK       I    between atoms: C_22  and  N_20 
ROOT
ATOM      1  C   LIG d   1       5.150  90.259 115.227  0.00  0.00     0.161 C 
ATOM      2  C   LIG d   1       4.287  89.707 114.265  0.00  0.00     0.016 C 
ATOM      3  C   LIG d   1       4.152  88.316 114.048  0.00  0.00     0.038 C 
ATOM      4  C   LIG d   1       4.763  87.372 114.888  0.00  0.00     0.028 C 
ATOM      5  C   LIG d   1       6.037  87.885 115.550  0.00  0.00    -0.047 C 
ATOM      6  C   LIG d   1       5.740  89.243 116.227  0.00  0.00     0.091 C 
ENDROOT
BRANCH   1   7
ATOM      7  O   LIG d   1       4.479  91.323 115.932  0.00  0.00    -0.368 OA
BRANCH   7   8
ATOM      8  C   LIG d   1       3.830  90.955 117.174  0.00  0.00     0.119 C 
BRANCH   8   9
ATOM      9  C   LIG d   1       2.319  91.197 116.997  0.00  0.00     0.028 C 
ATOM     10  C   LIG d   1       1.624  91.564 118.319  0.00  0.00     0.006 C 
ENDBRANCH   8   9
BRANCH   8  11
ATOM     11  C   LIG d   1       4.257  91.877 118.320  0.00  0.00     0.028 C 
ATOM     12  C   LIG d   1       5.226  92.981 117.867  0.00  0.00     0.006 C 
ENDBRANCH   8  11
ENDBRANCH   7   8
ENDBRANCH   1   7
BRANCH   6  13
ATOM     13  N   LIG d   1       6.954  89.855 116.827  0.00  0.00    -0.311 N 
ATOM     14  C   LIG d   1       7.307  89.686 118.100  0.00  0.00     0.210 C 
ATOM     15  C   LIG d   1       8.583  90.422 118.520  0.00  0.00     0.109 C 
ATOM     16  O   LIG d   1       6.702  88.971 118.913  0.00  0.00    -0.276 OA
ATOM     17  H   LIG d   1       7.520  90.426 116.230  0.00  0.00     0.149 HD
ENDBRANCH   6  13
BRANCH   5  18
ATOM     18  N   LIG d   1       6.492  86.853 116.500  0.00  0.00     0.381 N 
ATOM     19  H   LIG d   1       6.566  87.246 117.417  0.00  0.00    -0.090 HD
ATOM     20  H   LIG d   1       7.402  86.531 116.220  0.00  0.00    -0.090 HD
ATOM     21  H   LIG d   1       5.850  86.091 116.509  0.00  0.00    -0.090 HD
ENDBRANCH   5  18
BRANCH   3  22
ATOM     22  C   LIG d   1       3.431  87.858 112.957  0.00  0.00     0.382 C 
ATOM     23  O   LIG d   1       2.464  88.527 112.519  0.00  0.00    -0.241 OA
ATOM     24  O   LIG d   1       3.707  86.763 112.431  0.00  0.00    -0.241 OA
ENDBRANCH   3  22
TORSDOF 7
ENDMDL
MODEL 7
REMARK VINA RESULT:      -4.3      8.823     11.437
REMARK  7 active torsions:
REMARK  status: ('A' for Active; 'I' for Inactive)
REMARK    1  A    between atoms: C_2  and  C_3 
REMARK    2  A    between atoms: C_3  and  O_6 
REMARK    3  A    between atoms: C_3  and  C_4 
REMARK    4  A    between atoms: C_7  and  O_6 
REMARK    5  A    between atoms: C_9  and  C_10 
REMARK    6  A    between atoms: N_15  and  C_14 
REMARK    7  A    between atoms: N_20  and  C_19 
REMARK       I    between atoms: C_22  and  N_20 
ROOT
ATOM      1  C   LIG d   1       4.892  88.458 116.811  0.00  0.00     0.161 C 
ATOM      2  C   LIG d   1       4.105  89.618 116.722  0.00  0.00     0.016 C 
ATOM      3  C   LIG d   1       4.612  90.920 116.936  0.00  0.00     0.038 C 
ATOM      4  C   LIG d   1       5.983  91.163 117.106  0.00  0.00     0.028 C 
ATOM      5  C   LIG d   1       6.738  89.981 117.705  0.00  0.00    -0.047 C 
ATOM      6  C   LIG d   1       6.412  88.711 116.887  0.00  0.00     0.091 C 
ENDROOT
BRANCH   1   7
ATOM      7  O   LIG d   1       4.585  87.574 115.715  0.00  0.00    -0.368 OA
BRANCH   7   8
ATOM      8  C   LIG d   1       3.702  88.105 114.696  0.00  0.00     0.119 C 
BRANCH   8   9
ATOM      9  C   LIG d   1       2.527  87.120 114.543  0.00  0.00     0.028 C 
ATOM     10  C   LIG d   1       1.637  87.068 115.796  0.00  0.00     0.006 C 
ENDBRANCH   8   9
BRANCH   8  11
ATOM     11  C   LIG d   1       4.387  88.135 113.326  0.00  0.00     0.028 C 
ATOM     12  C   LIG d   1       5.705  88.925 113.337  0.00  0.00     0.006 C 
ENDBRANCH   8  11
ENDBRANCH   7   8
ENDBRANCH   1   7
BRANCH   6  13
ATOM     13  N   LIG d   1       7.043  87.492 117.456  0.00  0.00    -0.311 N 
ATOM     14  C   LIG d   1       7.996  86.801 116.833  0.00  0.00     0.210 C 
ATOM     15  C   LIG d   1       8.496  85.564 117.588  0.00  0.00     0.109 C 
ATOM     16  O   LIG d   1       8.497  87.112 115.743  0.00  0.00    -0.276 OA
ATOM     17  H   LIG d   1       6.718  87.186 118.353  0.00  0.00     0.149 HD
ENDBRANCH   6  13
BRANCH   5  18
ATOM     18  N   LIG d   1       8.174  90.320 117.700  0.00  0.00     0.381 N 
ATOM     19  H   LIG d   1       8.422  90.756 118.565  0.00  0.00    -0.090 HD
ATOM     20  H   LIG d   1       8.351  90.971 116.956  0.00  0.00    -0.090 HD
ATOM     21  H   LIG d   1       8.718  89.496 117.567  0.00  0.00    -0.090 HD
ENDBRANCH   5  18
BRANCH   3  22
ATOM     22  C   LIG d   1       3.738  91.993 117.020  0.00  0.00     0.382 C 
ATOM     23  O   LIG d   1       4.182  93.167 117.009  0.00  0.00    -0.241 OA
ATOM     24  O   LIG d   1       2.514  91.802 117.152  0.00  0.00    -0.241 OA
ENDBRANCH   3  22
TORSDOF 7
ENDMDL
MODEL 8
REMARK VINA RESULT:      -4.3      2.027      4.913
REMARK  7 active torsions:
REMARK  status: ('A' for Active; 'I' for Inactive)
REMARK    1  A    between atoms: C_2  and  C_3 
REMARK    2  A    between atoms: C_3  and  O_6 
REMARK    3  A    between atoms: C_3  and  C_4 
REMARK    4  A    between atoms: C_7  and  O_6 
REMARK    5  A    between atoms: C_9  and  C_10 
REMARK    6  A    between atoms: N_15  and  C_14 
REMARK    7  A    between atoms: N_20  and  C_19 
REMARK       I    between atoms: C_22  and  N_20 
ROOT
ATOM      1  C   LIG d   1      -5.584  91.388 118.963  0.00  0.00     0.161 C 
ATOM      2  C   LIG d   1      -6.279  92.609 118.955  0.00  0.00     0.016 C 
ATOM      3  C   LIG d   1      -5.663  93.856 119.211  0.00  0.00     0.038 C 
ATOM      4  C   LIG d   1      -4.273  93.982 119.345  0.00  0.00     0.028 C 
ATOM      5  C   LIG d   1      -3.596  92.717 119.861  0.00  0.00    -0.047 C 
ATOM      6  C   LIG d   1      -4.047  91.518 118.997  0.00  0.00     0.091 C 
ENDROOT
BRANCH   1   7
ATOM      7  O   LIG d   1      -5.995  90.585 117.839  0.00  0.00    -0.368 OA
BRANCH   7   8
ATOM      8  C   LIG d   1      -6.419  91.311 116.659  0.00  0.00     0.119 C 
BRANCH   8   9
ATOM      9  C   LIG d   1      -7.686  90.619 116.120  0.00  0.00     0.028 C 
ATOM     10  C   LIG d   1      -8.140  91.195 114.768  0.00  0.00     0.006 C 
ENDBRANCH   8   9
BRANCH   8  11
ATOM     11  C   LIG d   1      -5.386  91.198 115.533  0.00  0.00     0.028 C 
ATOM     12  C   LIG d   1      -4.717  89.815 115.475  0.00  0.00     0.006 C 
ENDBRANCH   8  11
ENDBRANCH   7   8
ENDBRANCH   1   7
BRANCH   6  13
ATOM     13  N   LIG d   1      -3.497  90.227 119.487  0.00  0.00    -0.311 N 
ATOM     14  C   LIG d   1      -2.581  89.522 118.825  0.00  0.00     0.210 C 
ATOM     15  C   LIG d   1      -2.165  88.210 119.497  0.00  0.00     0.109 C 
ATOM     16  O   LIG d   1      -2.050  89.875 117.761  0.00  0.00    -0.276 OA
ATOM     17  H   LIG d   1      -3.850  89.882 120.358  0.00  0.00     0.149 HD
ENDBRANCH   6  13
BRANCH   5  18
ATOM     18  N   LIG d   1      -2.139  92.943 119.821  0.00  0.00     0.381 N 
ATOM     19  H   LIG d   1      -1.944  93.825 119.390  0.00  0.00    -0.090 HD
ATOM     20  H   LIG d   1      -1.713  92.221 119.266  0.00  0.00    -0.090 HD
ATOM     21  H   LIG d   1      -1.765  92.927 120.744  0.00  0.00    -0.090 HD
ENDBRANCH   5  18
BRANCH   3  22
ATOM     22  C   LIG d   1      -6.447  94.988 119.376  0.00  0.00     0.382 C 
ATOM     23  O   LIG d   1      -5.904  96.110 119.518  0.00  0.00    -0.241 OA
ATOM     24  O   LIG d   1      -7.688  94.895 119.429  0.00  0.00    -0.241 OA
ENDBRANCH   3  22
TORSDOF 7
ENDMDL
MODEL 9
REMARK VINA RESULT:      -4.2      5.920      8.571
REMARK  7 active torsions:
REMARK  status: ('A' for Active; 'I' for Inactive)
REMARK    1  A    between atoms: C_2  and  C_3 
REMARK    2  A    between atoms: C_3  and  O_6 
REMARK    3  A    between atoms: C_3  and  C_4 
REMARK    4  A    between atoms: C_7  and  O_6 
REMARK    5  A    between atoms: C_9  and  C_10 
REMARK    6  A    between atoms: N_15  and  C_14 
REMARK    7  A    between atoms: N_20  and  C_19 
REMARK       I    between atoms: C_22  and  N_20 
ROOT
ATOM      1  C   LIG d   1       2.933  89.975 116.699  0.00  0.00     0.161 C 
ATOM      2  C   LIG d   1       2.968  89.366 115.434  0.00  0.00     0.016 C 
ATOM      3  C   LIG d   1       4.166  89.085 114.738  0.00  0.00     0.038 C 
ATOM      4  C   LIG d   1       5.426  89.259 115.331  0.00  0.00     0.028 C 
ATOM      5  C   LIG d   1       5.445  90.340 116.406  0.00  0.00    -0.047 C 
ATOM      6  C   LIG d   1       4.300  90.071 117.409  0.00  0.00     0.091 C 
ENDROOT
BRANCH   1   7
ATOM      7  O   LIG d   1       1.978  89.300 117.541  0.00  0.00    -0.368 OA
BRANCH   7   8
ATOM      8  C   LIG d   1       0.593  89.693 117.377  0.00  0.00     0.119 C 
BRANCH   8   9
ATOM      9  C   LIG d   1       0.278  90.745 118.458  0.00  0.00     0.028 C 
ATOM     10  C   LIG d   1       0.239  92.174 117.893  0.00  0.00     0.006 C 
ENDBRANCH   8   9
BRANCH   8  11
ATOM     11  C   LIG d   1      -0.355  88.524 117.659  0.00  0.00     0.028 C 
ATOM     12  C   LIG d   1      -1.831  88.883 117.421  0.00  0.00     0.006 C 
ENDBRANCH   8  11
ENDBRANCH   7   8
ENDBRANCH   1   7
BRANCH   6  13
ATOM     13  N   LIG d   1       4.195  91.130 118.447  0.00  0.00    -0.311 N 
ATOM     14  C   LIG d   1       3.991  92.415 118.165  0.00  0.00     0.210 C 
ATOM     15  C   LIG d   1       3.935  93.343 119.382  0.00  0.00     0.109 C 
ATOM     16  O   LIG d   1       3.819  92.870 117.024  0.00  0.00    -0.276 OA
ATOM     17  H   LIG d   1       4.292  90.844 119.401  0.00  0.00     0.149 HD
ENDBRANCH   6  13
BRANCH   5  18
ATOM     18  N   LIG d   1       6.780  90.320 117.033  0.00  0.00     0.381 N 
ATOM     19  H   LIG d   1       6.985  89.399 117.365  0.00  0.00    -0.090 HD
ATOM     20  H   LIG d   1       6.779  90.946 117.820  0.00  0.00    -0.090 HD
ATOM     21  H   LIG d   1       7.471  90.605 116.375  0.00  0.00    -0.090 HD
ENDBRANCH   5  18
BRANCH   3  22
ATOM     22  C   LIG d   1       4.111  88.661 113.419  0.00  0.00     0.382 C 
ATOM     23  O   LIG d   1       5.163  88.317 112.827  0.00  0.00    -0.241 OA
ATOM     24  O   LIG d   1       3.031  88.661 112.800  0.00  0.00    -0.241 OA
ENDBRANCH   3  22
TORSDOF 7
ENDMDL
