MODEL 1
REMARK VINA RESULT:      -4.8      0.000      0.000
REMARK  7 active torsions:
REMARK  status: ('A' for Active; 'I' for Inactive)
REMARK    1  A    between atoms: C_2  and  C_3 
REMARK    2  A    between atoms: C_3  and  O_6 
REMARK    3  A    between atoms: C_3  and  C_4 
REMARK    4  A    between atoms: C_7  and  O_6 
REMARK    5  A    between atoms: C_9  and  C_10 
REMARK    6  A    between atoms: N_15  and  C_14 
REMARK    7  A    between atoms: N_20  and  C_19 
REMARK       I    between atoms: C_22  and  N_20 
ROOT
ATOM      1  C   LIG d   1      -4.984  92.547 117.665  0.00  0.00     0.161 C 
ATOM      2  C   LIG d   1      -4.685  93.671 118.452  0.00  0.00     0.016 C 
ATOM      3  C   LIG d   1      -5.674  94.503 119.027  0.00  0.00     0.038 C 
ATOM      4  C   LIG d   1      -7.037  94.177 118.978  0.00  0.00     0.028 C 
ATOM      5  C   LIG d   1      -7.414  93.329 117.768  0.00  0.00    -0.047 C 
ATOM      6  C   LIG d   1      -6.464  92.112 117.693  0.00  0.00     0.091 C 
ENDROOT
BRANCH   1   7
ATOM      7  O   LIG d   1      -4.131  91.447 118.041  0.00  0.00    -0.368 OA
BRANCH   7   8
ATOM      8  C   LIG d   1      -2.722  91.753 118.185  0.00  0.00     0.119 C 
BRANCH   8   9
ATOM      9  C   LIG d   1      -1.929  90.543 117.655  0.00  0.00     0.028 C 
ATOM     10  C   LIG d   1      -2.590  89.203 118.021  0.00  0.00     0.006 C 
ENDBRANCH   8   9
BRANCH   8  11
ATOM     11  C   LIG d   1      -2.328  91.883 119.659  0.00  0.00     0.028 C 
ATOM     12  C   LIG d   1      -1.423  93.095 119.930  0.00  0.00     0.006 C 
ENDBRANCH   8  11
ENDBRANCH   7   8
ENDBRANCH   1   7
BRANCH   6  13
ATOM     13  N   LIG d   1      -6.710  91.274 116.490  0.00  0.00    -0.311 N 
ATOM     14  C   LIG d   1      -7.118  91.769 115.323  0.00  0.00     0.210 C 
ATOM     15  C   LIG d   1      -7.330  90.729 114.219  0.00  0.00     0.109 C 
ATOM     16  O   LIG d   1      -7.295  92.974 115.089  0.00  0.00    -0.276 OA
ATOM     17  H   LIG d   1      -6.561  90.288 116.583  0.00  0.00     0.149 HD
ENDBRANCH   6  13
BRANCH   5  18
ATOM     18  N   LIG d   1      -8.832  92.948 117.915  0.00  0.00     0.381 N 
ATOM     19  H   LIG d   1      -9.132  92.443 117.106  0.00  0.00    -0.090 HD
ATOM     20  H   LIG d   1      -9.386  93.782 117.991  0.00  0.00    -0.090 HD
ATOM     21  H   LIG d   1      -8.951  92.386 118.729  0.00  0.00    -0.090 HD
ENDBRANCH   5  18
BRANCH   3  22
ATOM     22  C   LIG d   1      -5.303  95.698 119.625  0.00  0.00     0.382 C 
ATOM     23  O   LIG d   1      -6.160  96.593 119.823  0.00  0.00    -0.241 OA
ATOM     24  O   LIG d   1      -4.114  95.910 119.930  0.00  0.00    -0.241 OA
ENDBRANCH   3  22
TORSDOF 7
ENDMDL
MODEL 2
REMARK VINA RESULT:      -4.7      5.714      8.736
REMARK  7 active torsions:
REMARK  status: ('A' for Active; 'I' for Inactive)
REMARK    1  A    between atoms: C_2  and  C_3 
REMARK    2  A    between atoms: C_3  and  O_6 
REMARK    3  A    between atoms: C_3  and  C_4 
REMARK    4  A    between atoms: C_7  and  O_6 
REMARK    5  A    between atoms: C_9  and  C_10 
REMARK    6  A    between atoms: N_15  and  C_14 
REMARK    7  A    between atoms: N_20  and  C_19 
REMARK       I    between atoms: C_22  and  N_20 
ROOT
ATOM      1  C   LIG d   1       1.037  88.435 117.103  0.00  0.00     0.161 C 
ATOM      2  C   LIG d   1      -0.348  88.310 117.299  0.00  0.00     0.016 C 
ATOM      3  C   LIG d   1      -1.184  89.392 117.660  0.00  0.00     0.038 C 
ATOM      4  C   LIG d   1      -0.710  90.712 117.703  0.00  0.00     0.028 C 
ATOM      5  C   LIG d   1       0.781  90.812 118.006  0.00  0.00    -0.047 C 
ATOM      6  C   LIG d   1       1.553  89.888 117.037  0.00  0.00     0.091 C 
ENDROOT
BRANCH   1   7
ATOM      7  O   LIG d   1       1.431  87.709 115.922  0.00  0.00    -0.368 OA
BRANCH   7   8
ATOM      8  C   LIG d   1       1.755  86.310 116.113  0.00  0.00     0.119 C 
BRANCH   8   9
ATOM      9  C   LIG d   1       3.188  86.239 116.676  0.00  0.00     0.028 C 
ATOM     10  C   LIG d   1       4.257  86.335 115.575  0.00  0.00     0.006 C 
ENDBRANCH   8   9
BRANCH   8  11
ATOM     11  C   LIG d   1       1.808  85.563 114.777  0.00  0.00     0.028 C 
ATOM     12  C   LIG d   1       1.031  86.281 113.662  0.00  0.00     0.006 C 
ENDBRANCH   8  11
ENDBRANCH   7   8
ENDBRANCH   1   7
BRANCH   6  13
ATOM     13  N   LIG d   1       3.011  89.861 117.320  0.00  0.00    -0.311 N 
ATOM     14  C   LIG d   1       3.944  89.929 116.372  0.00  0.00     0.210 C 
ATOM     15  C   LIG d   1       5.388  89.865 116.879  0.00  0.00     0.109 C 
ATOM     16  O   LIG d   1       3.713  90.068 115.161  0.00  0.00    -0.276 OA
ATOM     17  H   LIG d   1       3.288  89.782 118.279  0.00  0.00     0.149 HD
ENDBRANCH   6  13
BRANCH   5  18
ATOM     18  N   LIG d   1       1.167  92.230 117.884  0.00  0.00     0.381 N 
ATOM     19  H   LIG d   1       0.640  92.663 117.152  0.00  0.00    -0.090 HD
ATOM     20  H   LIG d   1       2.141  92.282 117.645  0.00  0.00    -0.090 HD
ATOM     21  H   LIG d   1       1.003  92.704 118.745  0.00  0.00    -0.090 HD
ENDBRANCH   5  18
BRANCH   3  22
ATOM     22  C   LIG d   1      -2.500  89.153 118.022  0.00  0.00     0.382 C 
ATOM     23  O   LIG d   1      -3.427  89.808 117.487  0.00  0.00    -0.241 OA
ATOM     24  O   LIG d   1      -2.770  88.321 118.909  0.00  0.00    -0.241 OA
ENDBRANCH   3  22
TORSDOF 7
ENDMDL
MODEL 3
REMARK VINA RESULT:      -4.7      7.139      9.623
REMARK  7 active torsions:
REMARK  status: ('A' for Active; 'I' for Inactive)
REMARK    1  A    between atoms: C_2  and  C_3 
REMARK    2  A    between atoms: C_3  and  O_6 
REMARK    3  A    between atoms: C_3  and  C_4 
REMARK    4  A    between atoms: C_7  and  O_6 
REMARK    5  A    between atoms: C_9  and  C_10 
REMARK    6  A    between atoms: N_15  and  C_14 
REMARK    7  A    between atoms: N_20  and  C_19 
REMARK       I    between atoms: C_22  and  N_20 
ROOT
ATOM      1  C   LIG d   1       2.462  88.594 116.541  0.00  0.00     0.161 C 
ATOM      2  C   LIG d   1       3.022  89.426 117.525  0.00  0.00     0.016 C 
ATOM      3  C   LIG d   1       4.204  90.177 117.329  0.00  0.00     0.038 C 
ATOM      4  C   LIG d   1       4.827  90.265 116.075  0.00  0.00     0.028 C 
ATOM      5  C   LIG d   1       4.585  89.046 115.192  0.00  0.00    -0.047 C 
ATOM      6  C   LIG d   1       3.066  88.764 115.131  0.00  0.00     0.091 C 
ENDROOT
BRANCH   1   7
ATOM      7  O   LIG d   1       1.034  88.780 116.500  0.00  0.00    -0.368 OA
BRANCH   7   8
ATOM      8  C   LIG d   1       0.431  89.352 117.687  0.00  0.00     0.119 C 
BRANCH   8   9
ATOM      9  C   LIG d   1      -0.620  88.350 118.202  0.00  0.00     0.028 C 
ATOM     10  C   LIG d   1      -2.056  88.884 118.065  0.00  0.00     0.006 C 
ENDBRANCH   8   9
BRANCH   8  11
ATOM     11  C   LIG d   1      -0.352  90.626 117.355  0.00  0.00     0.028 C 
ATOM     12  C   LIG d   1       0.392  91.907 117.765  0.00  0.00     0.006 C 
ENDBRANCH   8  11
ENDBRANCH   7   8
ENDBRANCH   1   7
BRANCH   6  13
ATOM     13  N   LIG d   1       2.748  87.536 114.356  0.00  0.00    -0.311 N 
ATOM     14  C   LIG d   1       2.287  87.558 113.106  0.00  0.00     0.210 C 
ATOM     15  C   LIG d   1       2.005  86.181 112.498  0.00  0.00     0.109 C 
ATOM     16  O   LIG d   1       2.115  88.585 112.433  0.00  0.00    -0.276 OA
ATOM     17  H   LIG d   1       2.888  86.658 114.815  0.00  0.00     0.149 HD
ENDBRANCH   6  13
BRANCH   5  18
ATOM     18  N   LIG d   1       5.173  89.330 113.869  0.00  0.00     0.381 N 
ATOM     19  H   LIG d   1       6.086  89.723 113.982  0.00  0.00    -0.090 HD
ATOM     20  H   LIG d   1       4.597  90.002 113.394  0.00  0.00    -0.090 HD
ATOM     21  H   LIG d   1       5.228  88.491 113.333  0.00  0.00    -0.090 HD
ENDBRANCH   5  18
BRANCH   3  22
ATOM     22  C   LIG d   1       4.797  90.820 118.405  0.00  0.00     0.382 C 
ATOM     23  O   LIG d   1       4.115  91.104 119.419  0.00  0.00    -0.241 OA
ATOM     24  O   LIG d   1       5.995  91.158 118.357  0.00  0.00    -0.241 OA
ENDBRANCH   3  22
TORSDOF 7
ENDMDL
MODEL 4
REMARK VINA RESULT:      -4.6      5.486      8.518
REMARK  7 active torsions:
REMARK  status: ('A' for Active; 'I' for Inactive)
REMARK    1  A    between atoms: C_2  and  C_3 
REMARK    2  A    between atoms: C_3  and  O_6 
REMARK    3  A    between atoms: C_3  and  C_4 
REMARK    4  A    between atoms: C_7  and  O_6 
REMARK    5  A    between atoms: C_9  and  C_10 
REMARK    6  A    between atoms: N_15  and  C_14 
REMARK    7  A    between atoms: N_20  and  C_19 
REMARK       I    between atoms: C_22  and  N_20 
ROOT
ATOM      1  C   LIG d   1       1.085  89.021 117.398  0.00  0.00     0.161 C 
ATOM      2  C   LIG d   1      -0.303  88.807 117.389  0.00  0.00     0.016 C 
ATOM      3  C   LIG d   1      -1.241  89.761 117.848  0.00  0.00     0.038 C 
ATOM      4  C   LIG d   1      -0.859  91.062 118.210  0.00  0.00     0.028 C 
ATOM      5  C   LIG d   1       0.578  91.153 118.713  0.00  0.00    -0.047 C 
ATOM      6  C   LIG d   1       1.513  90.475 117.686  0.00  0.00     0.091 C 
ENDROOT
BRANCH   1   7
ATOM      7  O   LIG d   1       1.658  88.566 116.157  0.00  0.00    -0.368 OA
BRANCH   7   8
ATOM      8  C   LIG d   1       2.454  87.357 116.227  0.00  0.00     0.119 C 
BRANCH   8   9
ATOM      9  C   LIG d   1       3.695  87.568 115.339  0.00  0.00     0.028 C 
ATOM     10  C   LIG d   1       3.886  89.041 114.937  0.00  0.00     0.006 C 
ENDBRANCH   8   9
BRANCH   8  11
ATOM     11  C   LIG d   1       1.713  86.166 115.613  0.00  0.00     0.028 C 
ATOM     12  C   LIG d   1       1.329  86.397 114.143  0.00  0.00     0.006 C 
ENDBRANCH   8  11
ENDBRANCH   7   8
ENDBRANCH   1   7
BRANCH   6  13
ATOM     13  N   LIG d   1       2.928  90.446 118.140  0.00  0.00    -0.311 N 
ATOM     14  C   LIG d   1       3.819  91.384 117.824  0.00  0.00     0.210 C 
ATOM     15  C   LIG d   1       5.228  91.151 118.380  0.00  0.00     0.109 C 
ATOM     16  O   LIG d   1       3.569  92.403 117.163  0.00  0.00    -0.276 OA
ATOM     17  H   LIG d   1       3.209  89.670 118.707  0.00  0.00     0.149 HD
ENDBRANCH   6  13
BRANCH   5  18
ATOM     18  N   LIG d   1       0.887  92.580 118.923  0.00  0.00     0.381 N 
ATOM     19  H   LIG d   1       1.859  92.689 119.130  0.00  0.00    -0.090 HD
ATOM     20  H   LIG d   1       0.357  92.915 119.709  0.00  0.00    -0.090 HD
ATOM     21  H   LIG d   1       0.653  93.103 118.108  0.00  0.00    -0.090 HD
ENDBRANCH   5  18
BRANCH   3  22
ATOM     22  C   LIG d   1      -2.573  89.404 117.987  0.00  0.00     0.382 C 
ATOM     23  O   LIG d   1      -2.890  88.434 118.718  0.00  0.00    -0.241 OA
ATOM     24  O   LIG d   1      -3.459  90.010 117.355  0.00  0.00    -0.241 OA
ENDBRANCH   3  22
TORSDOF 7
ENDMDL
MODEL 5
REMARK VINA RESULT:      -4.5      7.160     10.591
REMARK  7 active torsions:
REMARK  status: ('A' for Active; 'I' for Inactive)
REMARK    1  A    between atoms: C_2  and  C_3 
REMARK    2  A    between atoms: C_3  and  O_6 
REMARK    3  A    between atoms: C_3  and  C_4 
REMARK    4  A    between atoms: C_7  and  O_6 
REMARK    5  A    between atoms: C_9  and  C_10 
REMARK    6  A    between atoms: N_15  and  C_14 
REMARK    7  A    between atoms: N_20  and  C_19 
REMARK       I    between atoms: C_22  and  N_20 
ROOT
ATOM      1  C   LIG d   1       2.589  89.380 116.675  0.00  0.00     0.161 C 
ATOM      2  C   LIG d   1       2.497  88.827 115.387  0.00  0.00     0.016 C 
ATOM      3  C   LIG d   1       3.624  88.470 114.611  0.00  0.00     0.038 C 
ATOM      4  C   LIG d   1       4.925  88.502 115.135  0.00  0.00     0.028 C 
ATOM      5  C   LIG d   1       5.104  89.528 116.250  0.00  0.00    -0.047 C 
ATOM      6  C   LIG d   1       3.995  89.319 117.307  0.00  0.00     0.091 C 
ENDROOT
BRANCH   1   7
ATOM      7  O   LIG d   1       1.622  88.757 117.544  0.00  0.00    -0.368 OA
BRANCH   7   8
ATOM      8  C   LIG d   1       0.300  89.349 117.555  0.00  0.00     0.119 C 
BRANCH   8   9
ATOM      9  C   LIG d   1       0.353  90.585 118.474  0.00  0.00     0.028 C 
ATOM     10  C   LIG d   1       0.147  91.899 117.702  0.00  0.00     0.006 C 
ENDBRANCH   8   9
BRANCH   8  11
ATOM     11  C   LIG d   1      -0.726  88.410 118.197  0.00  0.00     0.028 C 
ATOM     12  C   LIG d   1      -2.171  88.908 118.037  0.00  0.00     0.006 C 
ENDBRANCH   8  11
ENDBRANCH   7   8
ENDBRANCH   1   7
BRANCH   6  13
ATOM     13  N   LIG d   1       4.046  90.335 118.390  0.00  0.00    -0.311 N 
ATOM     14  C   LIG d   1       3.905  91.642 118.176  0.00  0.00     0.210 C 
ATOM     15  C   LIG d   1       4.011  92.518 119.429  0.00  0.00     0.109 C 
ATOM     16  O   LIG d   1       3.670  92.157 117.073  0.00  0.00    -0.276 OA
ATOM     17  H   LIG d   1       4.202  90.002 119.321  0.00  0.00     0.149 HD
ENDBRANCH   6  13
BRANCH   5  18
ATOM     18  N   LIG d   1       6.463  89.359 116.797  0.00  0.00     0.381 N 
ATOM     19  H   LIG d   1       6.684  88.386 116.861  0.00  0.00    -0.090 HD
ATOM     20  H   LIG d   1       6.493  89.751 117.722  0.00  0.00    -0.090 HD
ATOM     21  H   LIG d   1       7.126  89.820 116.212  0.00  0.00    -0.090 HD
ENDBRANCH   5  18
BRANCH   3  22
ATOM     22  C   LIG d   1       3.458  88.113 113.282  0.00  0.00     0.382 C 
ATOM     23  O   LIG d   1       4.357  87.469 112.689  0.00  0.00    -0.241 OA
ATOM     24  O   LIG d   1       2.440  88.464 112.656  0.00  0.00    -0.241 OA
ENDBRANCH   3  22
TORSDOF 7
ENDMDL
MODEL 6
REMARK VINA RESULT:      -4.5      2.210      5.392
REMARK  7 active torsions:
REMARK  status: ('A' for Active; 'I' for Inactive)
REMARK    1  A    between atoms: C_2  and  C_3 
REMARK    2  A    between atoms: C_3  and  O_6 
REMARK    3  A    between atoms: C_3  and  C_4 
REMARK    4  A    between atoms: C_7  and  O_6 
REMARK    5  A    between atoms: C_9  and  C_10 
REMARK    6  A    between atoms: N_15  and  C_14 
REMARK    7  A    between atoms: N_20  and  C_19 
REMARK       I    between atoms: C_22  and  N_20 
ROOT
ATOM      1  C   LIG d   1      -5.632  92.346 117.539  0.00  0.00     0.161 C 
ATOM      2  C   LIG d   1      -4.655  91.348 117.384  0.00  0.00     0.016 C 
ATOM      3  C   LIG d   1      -3.393  91.390 118.019  0.00  0.00     0.038 C 
ATOM      4  C   LIG d   1      -3.076  92.364 118.977  0.00  0.00     0.028 C 
ATOM      5  C   LIG d   1      -3.838  93.671 118.786  0.00  0.00    -0.047 C 
ATOM      6  C   LIG d   1      -5.348  93.360 118.667  0.00  0.00     0.091 C 
ENDROOT
BRANCH   1   7
ATOM      7  O   LIG d   1      -6.926  91.739 117.725  0.00  0.00    -0.368 OA
BRANCH   7   8
ATOM      8  C   LIG d   1      -7.780  91.687 116.555  0.00  0.00     0.119 C 
BRANCH   8   9
ATOM      9  C   LIG d   1      -7.324  90.488 115.702  0.00  0.00     0.028 C 
ATOM     10  C   LIG d   1      -7.381  90.785 114.194  0.00  0.00     0.006 C 
ENDBRANCH   8   9
BRANCH   8  11
ATOM     11  C   LIG d   1      -7.580  92.917 115.665  0.00  0.00     0.028 C 
ATOM     12  C   LIG d   1      -8.708  93.950 115.815  0.00  0.00     0.006 C 
ENDBRANCH   8  11
ENDBRANCH   7   8
ENDBRANCH   1   7
BRANCH   6  13
ATOM     13  N   LIG d   1      -6.158  94.575 118.394  0.00  0.00    -0.311 N 
ATOM     14  C   LIG d   1      -7.299  94.852 119.022  0.00  0.00     0.210 C 
ATOM     15  C   LIG d   1      -7.985  96.147 118.576  0.00  0.00     0.109 C 
ATOM     16  O   LIG d   1      -7.791  94.165 119.930  0.00  0.00    -0.276 OA
ATOM     17  H   LIG d   1      -5.815  95.204 117.694  0.00  0.00     0.149 HD
ENDBRANCH   6  13
BRANCH   5  18
ATOM     18  N   LIG d   1      -3.517  94.545 119.930  0.00  0.00     0.381 N 
ATOM     19  H   LIG d   1      -3.022  95.354 119.610  0.00  0.00    -0.090 HD
ATOM     20  H   LIG d   1      -2.923  94.043 120.566  0.00  0.00    -0.090 HD
ATOM     21  H   LIG d   1      -4.354  94.822 120.394  0.00  0.00    -0.090 HD
ENDBRANCH   5  18
BRANCH   3  22
ATOM     22  C   LIG d   1      -2.415  90.471 117.666  0.00  0.00     0.382 C 
ATOM     23  O   LIG d   1      -2.665  89.243 117.709  0.00  0.00    -0.241 OA
ATOM     24  O   LIG d   1      -1.274  90.855 117.347  0.00  0.00    -0.241 OA
ENDBRANCH   3  22
TORSDOF 7
ENDMDL
MODEL 7
REMARK VINA RESULT:      -4.5      4.405      6.990
REMARK  7 active torsions:
REMARK  status: ('A' for Active; 'I' for Inactive)
REMARK    1  A    between atoms: C_2  and  C_3 
REMARK    2  A    between atoms: C_3  and  O_6 
REMARK    3  A    between atoms: C_3  and  C_4 
REMARK    4  A    between atoms: C_7  and  O_6 
REMARK    5  A    between atoms: C_9  and  C_10 
REMARK    6  A    between atoms: N_15  and  C_14 
REMARK    7  A    between atoms: N_20  and  C_19 
REMARK       I    between atoms: C_22  and  N_20 
ROOT
ATOM      1  C   LIG d   1       0.187  90.376 117.043  0.00  0.00     0.161 C 
ATOM      2  C   LIG d   1       1.588  90.462 117.103  0.00  0.00     0.016 C 
ATOM      3  C   LIG d   1       2.276  91.482 117.799  0.00  0.00     0.038 C 
ATOM      4  C   LIG d   1       1.605  92.405 118.615  0.00  0.00     0.028 C 
ATOM      5  C   LIG d   1       0.166  92.664 118.180  0.00  0.00    -0.047 C 
ATOM      6  C   LIG d   1      -0.560  91.309 118.018  0.00  0.00     0.091 C 
ENDROOT
BRANCH   1   7
ATOM      7  O   LIG d   1      -0.227  89.009 117.240  0.00  0.00    -0.368 OA
BRANCH   7   8
ATOM      8  C   LIG d   1      -0.165  88.514 118.600  0.00  0.00     0.119 C 
BRANCH   8   9
ATOM      9  C   LIG d   1       0.565  87.158 118.566  0.00  0.00     0.028 C 
ATOM     10  C   LIG d   1       1.092  86.810 117.164  0.00  0.00     0.006 C 
ENDBRANCH   8   9
BRANCH   8  11
ATOM     11  C   LIG d   1      -1.563  88.209 119.146  0.00  0.00     0.028 C 
ATOM     12  C   LIG d   1      -1.694  86.774 119.680  0.00  0.00     0.006 C 
ENDBRANCH   8  11
ENDBRANCH   7   8
ENDBRANCH   1   7
BRANCH   6  13
ATOM     13  N   LIG d   1      -1.949  91.467 117.513  0.00  0.00    -0.311 N 
ATOM     14  C   LIG d   1      -3.015  91.536 118.309  0.00  0.00     0.210 C 
ATOM     15  C   LIG d   1      -4.356  91.679 117.582  0.00  0.00     0.109 C 
ATOM     16  O   LIG d   1      -2.974  91.524 119.548  0.00  0.00    -0.276 OA
ATOM     17  H   LIG d   1      -2.071  91.517 116.520  0.00  0.00     0.149 HD
ENDBRANCH   6  13
BRANCH   5  18
ATOM     18  N   LIG d   1      -0.456  93.536 119.194  0.00  0.00     0.381 N 
ATOM     19  H   LIG d   1       0.024  93.437 120.066  0.00  0.00    -0.090 HD
ATOM     20  H   LIG d   1      -1.411  93.251 119.326  0.00  0.00    -0.090 HD
ATOM     21  H   LIG d   1      -0.423  94.485 118.894  0.00  0.00    -0.090 HD
ENDBRANCH   5  18
BRANCH   3  22
ATOM     22  C   LIG d   1       3.649  91.610 117.652  0.00  0.00     0.382 C 
ATOM     23  O   LIG d   1       4.144  92.716 117.327  0.00  0.00    -0.241 OA
ATOM     24  O   LIG d   1       4.394  90.622 117.796  0.00  0.00    -0.241 OA
ENDBRANCH   3  22
TORSDOF 7
ENDMDL
MODEL 8
REMARK VINA RESULT:      -4.2      4.081      6.802
REMARK  7 active torsions:
REMARK  status: ('A' for Active; 'I' for Inactive)
REMARK    1  A    between atoms: C_2  and  C_3 
REMARK    2  A    between atoms: C_3  and  O_6 
REMARK    3  A    between atoms: C_3  and  C_4 
REMARK    4  A    between atoms: C_7  and  O_6 
REMARK    5  A    between atoms: C_9  and  C_10 
REMARK    6  A    between atoms: N_15  and  C_14 
REMARK    7  A    between atoms: N_20  and  C_19 
REMARK       I    between atoms: C_22  and  N_20 
ROOT
ATOM      1  C   LIG d   1      -0.880  89.882 117.961  0.00  0.00     0.161 C 
ATOM      2  C   LIG d   1      -2.231  90.091 117.638  0.00  0.00     0.016 C 
ATOM      3  C   LIG d   1      -2.886  91.334 117.796  0.00  0.00     0.038 C 
ATOM      4  C   LIG d   1      -2.189  92.500 118.149  0.00  0.00     0.028 C 
ATOM      5  C   LIG d   1      -0.933  92.229 118.970  0.00  0.00    -0.047 C 
ATOM      6  C   LIG d   1      -0.076  91.169 118.242  0.00  0.00     0.091 C 
ENDROOT
BRANCH   1   7
ATOM      7  O   LIG d   1      -0.244  89.110 116.924  0.00  0.00    -0.368 OA
BRANCH   7   8
ATOM      8  C   LIG d   1       0.176  87.773 117.291  0.00  0.00     0.119 C 
BRANCH   8   9
ATOM      9  C   LIG d   1      -0.302  87.518 118.734  0.00  0.00     0.028 C 
ATOM     10  C   LIG d   1      -0.338  86.021 119.084  0.00  0.00     0.006 C 
ENDBRANCH   8   9
BRANCH   8  11
ATOM     11  C   LIG d   1       1.703  87.663 117.345  0.00  0.00     0.028 C 
ATOM     12  C   LIG d   1       2.401  88.545 116.298  0.00  0.00     0.006 C 
ENDBRANCH   8  11
ENDBRANCH   7   8
ENDBRANCH   1   7
BRANCH   6  13
ATOM     13  N   LIG d   1       1.131  90.784 119.019  0.00  0.00    -0.311 N 
ATOM     14  C   LIG d   1       2.331  91.330 118.828  0.00  0.00     0.210 C 
ATOM     15  C   LIG d   1       3.444  90.775 119.723  0.00  0.00     0.109 C 
ATOM     16  O   LIG d   1       2.572  92.244 118.025  0.00  0.00    -0.276 OA
ATOM     17  H   LIG d   1       1.018  90.072 119.714  0.00  0.00     0.149 HD
ENDBRANCH   6  13
BRANCH   5  18
ATOM     18  N   LIG d   1      -0.233  93.515 119.150  0.00  0.00     0.381 N 
ATOM     19  H   LIG d   1      -0.858  94.271 118.956  0.00  0.00    -0.090 HD
ATOM     20  H   LIG d   1       0.532  93.562 118.500  0.00  0.00    -0.090 HD
ATOM     21  H   LIG d   1       0.110  93.589 120.083  0.00  0.00    -0.090 HD
ENDBRANCH   5  18
BRANCH   3  22
ATOM     22  C   LIG d   1      -4.261  91.412 117.639  0.00  0.00     0.382 C 
ATOM     23  O   LIG d   1      -4.850  90.616 116.868  0.00  0.00    -0.241 OA
ATOM     24  O   LIG d   1      -4.916  92.295 118.225  0.00  0.00    -0.241 OA
ENDBRANCH   3  22
TORSDOF 7
ENDMDL
MODEL 9
REMARK VINA RESULT:      -4.1      2.078      4.681
REMARK  7 active torsions:
REMARK  status: ('A' for Active; 'I' for Inactive)
REMARK    1  A    between atoms: C_2  and  C_3 
REMARK    2  A    between atoms: C_3  and  O_6 
REMARK    3  A    between atoms: C_3  and  C_4 
REMARK    4  A    between atoms: C_7  and  O_6 
REMARK    5  A    between atoms: C_9  and  C_10 
REMARK    6  A    between atoms: N_15  and  C_14 
REMARK    7  A    between atoms: N_20  and  C_19 
REMARK       I    between atoms: C_22  and  N_20 
ROOT
ATOM      1  C   LIG d   1      -6.370  92.956 119.108  0.00  0.00     0.161 C 
ATOM      2  C   LIG d   1      -5.509  92.083 118.422  0.00  0.00     0.016 C 
ATOM      3  C   LIG d   1      -5.667  91.748 117.057  0.00  0.00     0.038 C 
ATOM      4  C   LIG d   1      -6.613  92.386 116.242  0.00  0.00     0.028 C 
ATOM      5  C   LIG d   1      -7.827  92.899 117.009  0.00  0.00    -0.047 C 
ATOM      6  C   LIG d   1      -7.341  93.747 118.207  0.00  0.00     0.091 C 
ENDROOT
BRANCH   1   7
ATOM      7  O   LIG d   1      -5.600  93.857 119.927  0.00  0.00    -0.368 OA
BRANCH   7   8
ATOM      8  C   LIG d   1      -4.744  94.788 119.220  0.00  0.00     0.119 C 
BRANCH   8   9
ATOM      9  C   LIG d   1      -3.375  94.787 119.928  0.00  0.00     0.028 C 
ATOM     10  C   LIG d   1      -2.591  93.485 119.689  0.00  0.00     0.006 C 
ENDBRANCH   8   9
BRANCH   8  11
ATOM     11  C   LIG d   1      -5.262  96.224 119.341  0.00  0.00     0.028 C 
ATOM     12  C   LIG d   1      -4.147  97.235 119.655  0.00  0.00     0.006 C 
ENDBRANCH   8  11
ENDBRANCH   7   8
ENDBRANCH   1   7
BRANCH   6  13
ATOM     13  N   LIG d   1      -8.463  94.218 119.060  0.00  0.00    -0.311 N 
ATOM     14  C   LIG d   1      -9.036  95.413 118.924  0.00  0.00     0.210 C 
ATOM     15  C   LIG d   1     -10.163  95.707 119.920  0.00  0.00     0.109 C 
ATOM     16  O   LIG d   1      -8.740  96.244 118.053  0.00  0.00    -0.276 OA
ATOM     17  H   LIG d   1      -8.788  93.594 119.773  0.00  0.00     0.149 HD
ENDBRANCH   6  13
BRANCH   5  18
ATOM     18  N   LIG d   1      -8.664  93.661 116.063  0.00  0.00     0.381 N 
ATOM     19  H   LIG d   1      -9.480  94.002 116.531  0.00  0.00    -0.090 HD
ATOM     20  H   LIG d   1      -8.958  93.048 115.323  0.00  0.00    -0.090 HD
ATOM     21  H   LIG d   1      -8.145  94.423 115.686  0.00  0.00    -0.090 HD
ENDBRANCH   5  18
BRANCH   3  22
ATOM     22  C   LIG d   1      -4.897  90.736 116.505  0.00  0.00     0.382 C 
ATOM     23  O   LIG d   1      -3.821  90.396 117.053  0.00  0.00    -0.241 OA
ATOM     24  O   LIG d   1      -5.243  90.188 115.441  0.00  0.00    -0.241 OA
ENDBRANCH   3  22
TORSDOF 7
ENDMDL
