MODEL 1
REMARK VINA RESULT:      -5.0      0.000      0.000
REMARK  7 active torsions:
REMARK  status: ('A' for Active; 'I' for Inactive)
REMARK    1  A    between atoms: C_2  and  C_3 
REMARK    2  A    between atoms: C_3  and  O_6 
REMARK    3  A    between atoms: C_3  and  C_4 
REMARK    4  A    between atoms: C_7  and  O_6 
REMARK    5  A    between atoms: C_9  and  C_10 
REMARK    6  A    between atoms: N_15  and  C_14 
REMARK    7  A    between atoms: N_20  and  C_19 
REMARK       I    between atoms: C_22  and  N_20 
ROOT
ATOM      1  C   LIG d   1      -6.435  93.310 117.627  0.00  0.00     0.161 C 
ATOM      2  C   LIG d   1      -7.202  92.561 116.719  0.00  0.00     0.016 C 
ATOM      3  C   LIG d   1      -6.706  91.431 116.029  0.00  0.00     0.038 C 
ATOM      4  C   LIG d   1      -5.448  90.880 116.316  0.00  0.00     0.028 C 
ATOM      5  C   LIG d   1      -4.450  91.898 116.858  0.00  0.00    -0.047 C 
ATOM      6  C   LIG d   1      -5.098  92.659 118.037  0.00  0.00     0.091 C 
ENDROOT
BRANCH   1   7
ATOM      7  O   LIG d   1      -7.223  93.615 118.795  0.00  0.00    -0.368 OA
BRANCH   7   8
ATOM      8  C   LIG d   1      -8.128  94.740 118.678  0.00  0.00     0.119 C 
BRANCH   8   9
ATOM      9  C   LIG d   1      -7.680  95.805 119.698  0.00  0.00     0.028 C 
ATOM     10  C   LIG d   1      -7.048  97.034 119.024  0.00  0.00     0.006 C 
ENDBRANCH   8   9
BRANCH   8  11
ATOM     11  C   LIG d   1      -9.551  94.355 119.093  0.00  0.00     0.028 C 
ATOM     12  C   LIG d   1      -9.601  93.067 119.928  0.00  0.00     0.006 C 
ENDBRANCH   8  11
ENDBRANCH   7   8
ENDBRANCH   1   7
BRANCH   6  13
ATOM     13  N   LIG d   1      -4.219  93.732 118.571  0.00  0.00    -0.311 N 
ATOM     14  C   LIG d   1      -3.240  93.510 119.445  0.00  0.00     0.210 C 
ATOM     15  C   LIG d   1      -2.467  94.759 119.882  0.00  0.00     0.109 C 
ATOM     16  O   LIG d   1      -2.916  92.393 119.877  0.00  0.00    -0.276 OA
ATOM     17  H   LIG d   1      -4.392  94.664 118.250  0.00  0.00     0.149 HD
ENDBRANCH   6  13
BRANCH   5  18
ATOM     18  N   LIG d   1      -3.230  91.164 117.243  0.00  0.00     0.381 N 
ATOM     19  H   LIG d   1      -3.070  91.266 118.226  0.00  0.00    -0.090 HD
ATOM     20  H   LIG d   1      -2.445  91.557 116.754  0.00  0.00    -0.090 HD
ATOM     21  H   LIG d   1      -3.325  90.200 117.013  0.00  0.00    -0.090 HD
ENDBRANCH   5  18
BRANCH   3  22
ATOM     22  C   LIG d   1      -7.456  90.864 115.010  0.00  0.00     0.382 C 
ATOM     23  O   LIG d   1      -7.318  89.649 114.732  0.00  0.00    -0.241 OA
ATOM     24  O   LIG d   1      -8.237  91.563 114.336  0.00  0.00    -0.241 OA
ENDBRANCH   3  22
TORSDOF 7
ENDMDL
MODEL 2
REMARK VINA RESULT:      -4.6      2.397      4.787
REMARK  7 active torsions:
REMARK  status: ('A' for Active; 'I' for Inactive)
REMARK    1  A    between atoms: C_2  and  C_3 
REMARK    2  A    between atoms: C_3  and  O_6 
REMARK    3  A    between atoms: C_3  and  C_4 
REMARK    4  A    between atoms: C_7  and  O_6 
REMARK    5  A    between atoms: C_9  and  C_10 
REMARK    6  A    between atoms: N_15  and  C_14 
REMARK    7  A    between atoms: N_20  and  C_19 
REMARK       I    between atoms: C_22  and  N_20 
ROOT
ATOM      1  C   LIG d   1      -4.079  92.815 118.468  0.00  0.00     0.161 C 
ATOM      2  C   LIG d   1      -5.363  93.329 118.715  0.00  0.00     0.016 C 
ATOM      3  C   LIG d   1      -6.536  92.813 118.117  0.00  0.00     0.038 C 
ATOM      4  C   LIG d   1      -6.520  91.644 117.342  0.00  0.00     0.028 C 
ATOM      5  C   LIG d   1      -5.182  91.388 116.658  0.00  0.00    -0.047 C 
ATOM      6  C   LIG d   1      -4.055  91.469 117.712  0.00  0.00     0.091 C 
ENDROOT
BRANCH   1   7
ATOM      7  O   LIG d   1      -3.349  92.707 119.706  0.00  0.00    -0.368 OA
BRANCH   7   8
ATOM      8  C   LIG d   1      -2.252  93.638 119.882  0.00  0.00     0.119 C 
BRANCH   8   9
ATOM      9  C   LIG d   1      -2.191  94.525 118.623  0.00  0.00     0.028 C 
ATOM     10  C   LIG d   1      -2.510  95.998 118.927  0.00  0.00     0.006 C 
ENDBRANCH   8   9
BRANCH   8  11
ATOM     11  C   LIG d   1      -0.906  92.909 119.930  0.00  0.00     0.028 C 
ATOM     12  C   LIG d   1       0.238  93.728 119.310  0.00  0.00     0.006 C 
ENDBRANCH   8  11
ENDBRANCH   7   8
ENDBRANCH   1   7
BRANCH   6  13
ATOM     13  N   LIG d   1      -2.704  91.315 117.112  0.00  0.00    -0.311 N 
ATOM     14  C   LIG d   1      -1.768  90.510 117.611  0.00  0.00     0.210 C 
ATOM     15  C   LIG d   1      -0.438  90.514 116.850  0.00  0.00     0.109 C 
ATOM     16  O   LIG d   1      -1.923  89.769 118.593  0.00  0.00    -0.276 OA
ATOM     17  H   LIG d   1      -2.504  91.856 116.294  0.00  0.00     0.149 HD
ENDBRANCH   6  13
BRANCH   5  18
ATOM     18  N   LIG d   1      -5.263  90.071 115.999  0.00  0.00     0.381 N 
ATOM     19  H   LIG d   1      -4.660  90.054 115.200  0.00  0.00    -0.090 HD
ATOM     20  H   LIG d   1      -6.206  89.922 115.685  0.00  0.00    -0.090 HD
ATOM     21  H   LIG d   1      -5.000  89.353 116.637  0.00  0.00    -0.090 HD
ENDBRANCH   5  18
BRANCH   3  22
ATOM     22  C   LIG d   1      -7.735  93.493 118.260  0.00  0.00     0.382 C 
ATOM     23  O   LIG d   1      -7.846  94.667 117.830  0.00  0.00    -0.241 OA
ATOM     24  O   LIG d   1      -8.695  92.964 118.852  0.00  0.00    -0.241 OA
ENDBRANCH   3  22
TORSDOF 7
ENDMDL
MODEL 3
REMARK VINA RESULT:      -4.6      0.991      2.038
REMARK  7 active torsions:
REMARK  status: ('A' for Active; 'I' for Inactive)
REMARK    1  A    between atoms: C_2  and  C_3 
REMARK    2  A    between atoms: C_3  and  O_6 
REMARK    3  A    between atoms: C_3  and  C_4 
REMARK    4  A    between atoms: C_7  and  O_6 
REMARK    5  A    between atoms: C_9  and  C_10 
REMARK    6  A    between atoms: N_15  and  C_14 
REMARK    7  A    between atoms: N_20  and  C_19 
REMARK       I    between atoms: C_22  and  N_20 
ROOT
ATOM      1  C   LIG d   1      -6.226  92.781 118.227  0.00  0.00     0.161 C 
ATOM      2  C   LIG d   1      -6.951  92.236 117.154  0.00  0.00     0.016 C 
ATOM      3  C   LIG d   1      -6.428  91.255 116.280  0.00  0.00     0.038 C 
ATOM      4  C   LIG d   1      -5.189  90.639 116.514  0.00  0.00     0.028 C 
ATOM      5  C   LIG d   1      -4.213  91.516 117.291  0.00  0.00    -0.047 C 
ATOM      6  C   LIG d   1      -4.915  92.041 118.564  0.00  0.00     0.091 C 
ENDROOT
BRANCH   1   7
ATOM      7  O   LIG d   1      -7.069  92.864 119.394  0.00  0.00    -0.368 OA
BRANCH   7   8
ATOM      8  C   LIG d   1      -7.473  94.196 119.795  0.00  0.00     0.119 C 
BRANCH   8   9
ATOM      9  C   LIG d   1      -8.951  94.372 119.394  0.00  0.00     0.028 C 
ATOM     10  C   LIG d   1      -9.843  93.239 119.930  0.00  0.00     0.006 C 
ENDBRANCH   8   9
BRANCH   8  11
ATOM     11  C   LIG d   1      -6.710  95.269 119.012  0.00  0.00     0.028 C 
ATOM     12  C   LIG d   1      -6.074  96.331 119.923  0.00  0.00     0.006 C 
ENDBRANCH   8  11
ENDBRANCH   7   8
ENDBRANCH   1   7
BRANCH   6  13
ATOM     13  N   LIG d   1      -4.058  92.975 119.340  0.00  0.00    -0.311 N 
ATOM     14  C   LIG d   1      -3.102  93.721 118.789  0.00  0.00     0.210 C 
ATOM     15  C   LIG d   1      -2.322  94.601 119.771  0.00  0.00     0.109 C 
ATOM     16  O   LIG d   1      -2.848  93.763 117.576  0.00  0.00    -0.276 OA
ATOM     17  H   LIG d   1      -4.217  93.027 120.327  0.00  0.00     0.149 HD
ENDBRANCH   6  13
BRANCH   5  18
ATOM     18  N   LIG d   1      -3.018  90.702 117.583  0.00  0.00     0.381 N 
ATOM     19  H   LIG d   1      -2.722  90.861 118.525  0.00  0.00    -0.090 HD
ATOM     20  H   LIG d   1      -2.276  90.982 116.967  0.00  0.00    -0.090 HD
ATOM     21  H   LIG d   1      -3.223  89.736 117.451  0.00  0.00    -0.090 HD
ENDBRANCH   5  18
BRANCH   3  22
ATOM     22  C   LIG d   1      -7.130  90.910 115.135  0.00  0.00     0.382 C 
ATOM     23  O   LIG d   1      -7.986  91.697 114.664  0.00  0.00    -0.241 OA
ATOM     24  O   LIG d   1      -6.950  89.803 114.593  0.00  0.00    -0.241 OA
ENDBRANCH   3  22
TORSDOF 7
ENDMDL
MODEL 4
REMARK VINA RESULT:      -4.5      8.219     10.439
REMARK  7 active torsions:
REMARK  status: ('A' for Active; 'I' for Inactive)
REMARK    1  A    between atoms: C_2  and  C_3 
REMARK    2  A    between atoms: C_3  and  O_6 
REMARK    3  A    between atoms: C_3  and  C_4 
REMARK    4  A    between atoms: C_7  and  O_6 
REMARK    5  A    between atoms: C_9  and  C_10 
REMARK    6  A    between atoms: N_15  and  C_14 
REMARK    7  A    between atoms: N_20  and  C_19 
REMARK       I    between atoms: C_22  and  N_20 
ROOT
ATOM      1  C   LIG d   1       3.019  90.119 116.729  0.00  0.00     0.161 C 
ATOM      2  C   LIG d   1       2.857  89.672 115.407  0.00  0.00     0.016 C 
ATOM      3  C   LIG d   1       3.938  89.434 114.528  0.00  0.00     0.038 C 
ATOM      4  C   LIG d   1       5.271  89.483 114.962  0.00  0.00     0.028 C 
ATOM      5  C   LIG d   1       5.489  90.418 116.146  0.00  0.00    -0.047 C 
ATOM      6  C   LIG d   1       4.469  90.071 117.254  0.00  0.00     0.091 C 
ENDROOT
BRANCH   1   7
ATOM      7  O   LIG d   1       2.144  89.382 117.605  0.00  0.00    -0.368 OA
BRANCH   7   8
ATOM      8  C   LIG d   1       1.031  88.704 116.972  0.00  0.00     0.119 C 
BRANCH   8   9
ATOM      9  C   LIG d   1      -0.263  89.235 117.618  0.00  0.00     0.028 C 
ATOM     10  C   LIG d   1      -0.666  90.617 117.076  0.00  0.00     0.006 C 
ENDBRANCH   8   9
BRANCH   8  11
ATOM     11  C   LIG d   1       1.048  87.203 117.273  0.00  0.00     0.028 C 
ATOM     12  C   LIG d   1       1.333  86.349 116.027  0.00  0.00     0.006 C 
ENDBRANCH   8  11
ENDBRANCH   7   8
ENDBRANCH   1   7
BRANCH   6  13
ATOM     13  N   LIG d   1       4.558  90.994 118.416  0.00  0.00    -0.311 N 
ATOM     14  C   LIG d   1       4.460  92.318 118.309  0.00  0.00     0.210 C 
ATOM     15  C   LIG d   1       4.599  93.085 119.628  0.00  0.00     0.109 C 
ATOM     16  O   LIG d   1       4.239  92.928 117.252  0.00  0.00    -0.276 OA
ATOM     17  H   LIG d   1       4.705  90.582 119.316  0.00  0.00     0.149 HD
ENDBRANCH   6  13
BRANCH   5  18
ATOM     18  N   LIG d   1       6.890  90.268 116.581  0.00  0.00     0.381 N 
ATOM     19  H   LIG d   1       7.137  89.298 116.599  0.00  0.00    -0.090 HD
ATOM     20  H   LIG d   1       6.982  90.633 117.513  0.00  0.00    -0.090 HD
ATOM     21  H   LIG d   1       7.495  90.761 115.962  0.00  0.00    -0.090 HD
ENDBRANCH   5  18
BRANCH   3  22
ATOM     22  C   LIG d   1       3.691  89.182 113.187  0.00  0.00     0.382 C 
ATOM     23  O   LIG d   1       4.616  88.772 112.445  0.00  0.00    -0.241 OA
ATOM     24  O   LIG d   1       2.565  89.402 112.700  0.00  0.00    -0.241 OA
ENDBRANCH   3  22
TORSDOF 7
ENDMDL
MODEL 5
REMARK VINA RESULT:      -4.4      7.546     10.574
REMARK  7 active torsions:
REMARK  status: ('A' for Active; 'I' for Inactive)
REMARK    1  A    between atoms: C_2  and  C_3 
REMARK    2  A    between atoms: C_3  and  O_6 
REMARK    3  A    between atoms: C_3  and  C_4 
REMARK    4  A    between atoms: C_7  and  O_6 
REMARK    5  A    between atoms: C_9  and  C_10 
REMARK    6  A    between atoms: N_15  and  C_14 
REMARK    7  A    between atoms: N_20  and  C_19 
REMARK       I    between atoms: C_22  and  N_20 
ROOT
ATOM      1  C   LIG d   1       2.391  89.312 116.416  0.00  0.00     0.161 C 
ATOM      2  C   LIG d   1       2.876  90.125 117.455  0.00  0.00     0.016 C 
ATOM      3  C   LIG d   1       4.120  90.795 117.404  0.00  0.00     0.038 C 
ATOM      4  C   LIG d   1       4.901  90.819 116.239  0.00  0.00     0.028 C 
ATOM      5  C   LIG d   1       4.693  89.602 115.344  0.00  0.00    -0.047 C 
ATOM      6  C   LIG d   1       3.179  89.417 115.093  0.00  0.00     0.091 C 
ENDROOT
BRANCH   1   7
ATOM      7  O   LIG d   1       0.995  89.588 116.191  0.00  0.00    -0.368 OA
BRANCH   7   8
ATOM      8  C   LIG d   1       0.153  89.620 117.370  0.00  0.00     0.119 C 
BRANCH   8   9
ATOM      9  C   LIG d   1      -0.586  88.270 117.448  0.00  0.00     0.028 C 
ATOM     10  C   LIG d   1      -1.728  88.284 118.478  0.00  0.00     0.006 C 
ENDBRANCH   8   9
BRANCH   8  11
ATOM     11  C   LIG d   1      -0.947  90.677 117.242  0.00  0.00     0.028 C 
ATOM     12  C   LIG d   1      -0.475  92.081 117.652  0.00  0.00     0.006 C 
ENDBRANCH   8  11
ENDBRANCH   7   8
ENDBRANCH   1   7
BRANCH   6  13
ATOM     13  N   LIG d   1       2.881  88.199 114.296  0.00  0.00    -0.311 N 
ATOM     14  C   LIG d   1       2.369  88.234 113.067  0.00  0.00     0.210 C 
ATOM     15  C   LIG d   1       2.120  86.863 112.430  0.00  0.00     0.109 C 
ATOM     16  O   LIG d   1       2.126  89.271 112.431  0.00  0.00    -0.276 OA
ATOM     17  H   LIG d   1       3.077  87.315 114.723  0.00  0.00     0.149 HD
ENDBRANCH   6  13
BRANCH   5  18
ATOM     18  N   LIG d   1       5.461  89.824 114.105  0.00  0.00     0.381 N 
ATOM     19  H   LIG d   1       5.302  89.069 113.468  0.00  0.00    -0.090 HD
ATOM     20  H   LIG d   1       6.440  89.846 114.329  0.00  0.00    -0.090 HD
ATOM     21  H   LIG d   1       5.190  90.685 113.684  0.00  0.00    -0.090 HD
ENDBRANCH   5  18
BRANCH   3  22
ATOM     22  C   LIG d   1       4.612  91.417 118.541  0.00  0.00     0.382 C 
ATOM     23  O   LIG d   1       5.574  92.218 118.450  0.00  0.00    -0.241 OA
ATOM     24  O   LIG d   1       4.136  91.155 119.661  0.00  0.00    -0.241 OA
ENDBRANCH   3  22
TORSDOF 7
ENDMDL
MODEL 6
REMARK VINA RESULT:      -4.4      8.141     10.197
REMARK  7 active torsions:
REMARK  status: ('A' for Active; 'I' for Inactive)
REMARK    1  A    between atoms: C_2  and  C_3 
REMARK    2  A    between atoms: C_3  and  O_6 
REMARK    3  A    between atoms: C_3  and  C_4 
REMARK    4  A    between atoms: C_7  and  O_6 
REMARK    5  A    between atoms: C_9  and  C_10 
REMARK    6  A    between atoms: N_15  and  C_14 
REMARK    7  A    between atoms: N_20  and  C_19 
REMARK       I    between atoms: C_22  and  N_20 
ROOT
ATOM      1  C   LIG d   1       2.969  90.051 116.739  0.00  0.00     0.161 C 
ATOM      2  C   LIG d   1       2.795  89.605 115.418  0.00  0.00     0.016 C 
ATOM      3  C   LIG d   1       3.866  89.406 114.516  0.00  0.00     0.038 C 
ATOM      4  C   LIG d   1       5.205  89.496 114.924  0.00  0.00     0.028 C 
ATOM      5  C   LIG d   1       5.415  90.433 116.109  0.00  0.00    -0.047 C 
ATOM      6  C   LIG d   1       4.430  90.048 117.235  0.00  0.00     0.091 C 
ENDROOT
BRANCH   1   7
ATOM      7  O   LIG d   1       2.136  89.281 117.628  0.00  0.00    -0.368 OA
BRANCH   7   8
ATOM      8  C   LIG d   1       0.976  89.964 118.165  0.00  0.00     0.119 C 
BRANCH   8   9
ATOM      9  C   LIG d   1      -0.273  89.332 117.521  0.00  0.00     0.028 C 
ATOM     10  C   LIG d   1      -0.110  87.821 117.284  0.00  0.00     0.006 C 
ENDBRANCH   8   9
BRANCH   8  11
ATOM     11  C   LIG d   1       0.950  91.436 117.742  0.00  0.00     0.028 C 
ATOM     12  C   LIG d   1       0.752  92.393 118.928  0.00  0.00     0.006 C 
ENDBRANCH   8  11
ENDBRANCH   7   8
ENDBRANCH   1   7
BRANCH   6  13
ATOM     13  N   LIG d   1       4.511  90.968 118.400  0.00  0.00    -0.311 N 
ATOM     14  C   LIG d   1       4.428  92.293 118.294  0.00  0.00     0.210 C 
ATOM     15  C   LIG d   1       4.556  93.056 119.616  0.00  0.00     0.109 C 
ATOM     16  O   LIG d   1       4.227  92.907 117.235  0.00  0.00    -0.276 OA
ATOM     17  H   LIG d   1       4.642  90.552 119.301  0.00  0.00     0.149 HD
ENDBRANCH   6  13
BRANCH   5  18
ATOM     18  N   LIG d   1       6.829  90.326 116.516  0.00  0.00     0.381 N 
ATOM     19  H   LIG d   1       6.897  89.811 117.371  0.00  0.00    -0.090 HD
ATOM     20  H   LIG d   1       7.193  91.250 116.674  0.00  0.00    -0.090 HD
ATOM     21  H   LIG d   1       7.356  89.871 115.803  0.00  0.00    -0.090 HD
ENDBRANCH   5  18
BRANCH   3  22
ATOM     22  C   LIG d   1       3.600  89.153 113.179  0.00  0.00     0.382 C 
ATOM     23  O   LIG d   1       4.503  88.699 112.436  0.00  0.00    -0.241 OA
ATOM     24  O   LIG d   1       2.482  89.413 112.697  0.00  0.00    -0.241 OA
ENDBRANCH   3  22
TORSDOF 7
ENDMDL
MODEL 7
REMARK VINA RESULT:      -4.4      2.533      5.058
REMARK  7 active torsions:
REMARK  status: ('A' for Active; 'I' for Inactive)
REMARK    1  A    between atoms: C_2  and  C_3 
REMARK    2  A    between atoms: C_3  and  O_6 
REMARK    3  A    between atoms: C_3  and  C_4 
REMARK    4  A    between atoms: C_7  and  O_6 
REMARK    5  A    between atoms: C_9  and  C_10 
REMARK    6  A    between atoms: N_15  and  C_14 
REMARK    7  A    between atoms: N_20  and  C_19 
REMARK       I    between atoms: C_22  and  N_20 
ROOT
ATOM      1  C   LIG d   1      -3.843  92.907 119.605  0.00  0.00     0.161 C 
ATOM      2  C   LIG d   1      -3.809  94.310 119.560  0.00  0.00     0.016 C 
ATOM      3  C   LIG d   1      -2.883  95.042 118.782  0.00  0.00     0.038 C 
ATOM      4  C   LIG d   1      -2.019  94.414 117.873  0.00  0.00     0.028 C 
ATOM      5  C   LIG d   1      -1.673  92.980 118.258  0.00  0.00    -0.047 C 
ATOM      6  C   LIG d   1      -2.981  92.205 118.534  0.00  0.00     0.091 C 
ENDROOT
BRANCH   1   7
ATOM      7  O   LIG d   1      -5.207  92.448 119.530  0.00  0.00    -0.368 OA
BRANCH   7   8
ATOM      8  C   LIG d   1      -6.025  93.048 118.496  0.00  0.00     0.119 C 
BRANCH   8   9
ATOM      9  C   LIG d   1      -7.224  93.724 119.189  0.00  0.00     0.028 C 
ATOM     10  C   LIG d   1      -7.812  94.874 118.354  0.00  0.00     0.006 C 
ENDBRANCH   8   9
BRANCH   8  11
ATOM     11  C   LIG d   1      -6.634  91.983 117.578  0.00  0.00     0.028 C 
ATOM     12  C   LIG d   1      -6.272  92.193 116.100  0.00  0.00     0.006 C 
ENDBRANCH   8  11
ENDBRANCH   7   8
ENDBRANCH   1   7
BRANCH   6  13
ATOM     13  N   LIG d   1      -2.730  90.816 118.999  0.00  0.00    -0.311 N 
ATOM     14  C   LIG d   1      -3.321  89.747 118.468  0.00  0.00     0.210 C 
ATOM     15  C   LIG d   1      -2.936  88.410 119.109  0.00  0.00     0.109 C 
ATOM     16  O   LIG d   1      -4.104  89.776 117.507  0.00  0.00    -0.276 OA
ATOM     17  H   LIG d   1      -2.084  90.697 119.755  0.00  0.00     0.149 HD
ENDBRANCH   6  13
BRANCH   5  18
ATOM     18  N   LIG d   1      -0.880  92.402 117.156  0.00  0.00     0.381 N 
ATOM     19  H   LIG d   1       0.051  92.215 117.471  0.00  0.00    -0.090 HD
ATOM     20  H   LIG d   1      -0.831  93.068 116.406  0.00  0.00    -0.090 HD
ATOM     21  H   LIG d   1      -1.305  91.560 116.835  0.00  0.00    -0.090 HD
ENDBRANCH   5  18
BRANCH   3  22
ATOM     22  C   LIG d   1      -2.787  96.416 118.940  0.00  0.00     0.382 C 
ATOM     23  O   LIG d   1      -1.822  97.040 118.436  0.00  0.00    -0.241 OA
ATOM     24  O   LIG d   1      -3.630  97.035 119.617  0.00  0.00    -0.241 OA
ENDBRANCH   3  22
TORSDOF 7
ENDMDL
MODEL 8
REMARK VINA RESULT:      -4.3      7.268     10.221
REMARK  7 active torsions:
REMARK  status: ('A' for Active; 'I' for Inactive)
REMARK    1  A    between atoms: C_2  and  C_3 
REMARK    2  A    between atoms: C_3  and  O_6 
REMARK    3  A    between atoms: C_3  and  C_4 
REMARK    4  A    between atoms: C_7  and  O_6 
REMARK    5  A    between atoms: C_9  and  C_10 
REMARK    6  A    between atoms: N_15  and  C_14 
REMARK    7  A    between atoms: N_20  and  C_19 
REMARK       I    between atoms: C_22  and  N_20 
ROOT
ATOM      1  C   LIG d   1       2.682  89.551 117.666  0.00  0.00     0.161 C 
ATOM      2  C   LIG d   1       1.370  89.095 117.457  0.00  0.00     0.016 C 
ATOM      3  C   LIG d   1       0.230  89.923 117.574  0.00  0.00     0.038 C 
ATOM      4  C   LIG d   1       0.337  91.309 117.763  0.00  0.00     0.028 C 
ATOM      5  C   LIG d   1       1.616  91.726 118.480  0.00  0.00    -0.047 C 
ATOM      6  C   LIG d   1       2.826  91.084 117.763  0.00  0.00     0.091 C 
ENDROOT
BRANCH   1   7
ATOM      7  O   LIG d   1       3.550  89.030 116.640  0.00  0.00    -0.368 OA
BRANCH   7   8
ATOM      8  C   LIG d   1       3.529  89.730 115.372  0.00  0.00     0.119 C 
BRANCH   8   9
ATOM      9  C   LIG d   1       2.962  88.760 114.317  0.00  0.00     0.028 C 
ATOM     10  C   LIG d   1       3.103  87.288 114.738  0.00  0.00     0.006 C 
ENDBRANCH   8   9
BRANCH   8  11
ATOM     11  C   LIG d   1       4.946  90.063 114.896  0.00  0.00     0.028 C 
ATOM     12  C   LIG d   1       5.095  89.984 113.369  0.00  0.00     0.006 C 
ENDBRANCH   8  11
ENDBRANCH   7   8
ENDBRANCH   1   7
BRANCH   6  13
ATOM     13  N   LIG d   1       4.111  91.372 118.451  0.00  0.00    -0.311 N 
ATOM     14  C   LIG d   1       4.897  92.400 118.136  0.00  0.00     0.210 C 
ATOM     15  C   LIG d   1       6.187  92.504 118.956  0.00  0.00     0.109 C 
ATOM     16  O   LIG d   1       4.633  93.255 117.277  0.00  0.00    -0.276 OA
ATOM     17  H   LIG d   1       4.388  90.747 119.183  0.00  0.00     0.149 HD
ENDBRANCH   6  13
BRANCH   5  18
ATOM     18  N   LIG d   1       1.664  93.200 118.487  0.00  0.00     0.381 N 
ATOM     19  H   LIG d   1       0.975  93.559 119.118  0.00  0.00    -0.090 HD
ATOM     20  H   LIG d   1       1.451  93.537 117.564  0.00  0.00    -0.090 HD
ATOM     21  H   LIG d   1       2.570  93.511 118.761  0.00  0.00    -0.090 HD
ENDBRANCH   5  18
BRANCH   3  22
ATOM     22  C   LIG d   1      -1.036  89.359 117.543  0.00  0.00     0.382 C 
ATOM     23  O   LIG d   1      -2.022  90.007 117.971  0.00  0.00    -0.241 OA
ATOM     24  O   LIG d   1      -1.199  88.194 117.134  0.00  0.00    -0.241 OA
ENDBRANCH   3  22
TORSDOF 7
ENDMDL
MODEL 9
REMARK VINA RESULT:      -4.2      8.208     11.218
REMARK  7 active torsions:
REMARK  status: ('A' for Active; 'I' for Inactive)
REMARK    1  A    between atoms: C_2  and  C_3 
REMARK    2  A    between atoms: C_3  and  O_6 
REMARK    3  A    between atoms: C_3  and  C_4 
REMARK    4  A    between atoms: C_7  and  O_6 
REMARK    5  A    between atoms: C_9  and  C_10 
REMARK    6  A    between atoms: N_15  and  C_14 
REMARK    7  A    between atoms: N_20  and  C_19 
REMARK       I    between atoms: C_22  and  N_20 
ROOT
ATOM      1  C   LIG d   1       2.620  88.805 116.160  0.00  0.00     0.161 C 
ATOM      2  C   LIG d   1       3.013  89.914 116.928  0.00  0.00     0.016 C 
ATOM      3  C   LIG d   1       4.097  90.754 116.584  0.00  0.00     0.038 C 
ATOM      4  C   LIG d   1       4.771  90.630 115.360  0.00  0.00     0.028 C 
ATOM      5  C   LIG d   1       4.737  89.216 114.789  0.00  0.00    -0.047 C 
ATOM      6  C   LIG d   1       3.273  88.721 114.764  0.00  0.00     0.091 C 
ENDROOT
BRANCH   1   7
ATOM      7  O   LIG d   1       1.183  88.777 116.043  0.00  0.00    -0.368 OA
BRANCH   7   8
ATOM      8  C   LIG d   1       0.497  87.795 116.858  0.00  0.00     0.119 C 
BRANCH   8   9
ATOM      9  C   LIG d   1      -0.133  88.541 118.050  0.00  0.00     0.028 C 
ATOM     10  C   LIG d   1      -1.620  88.859 117.823  0.00  0.00     0.006 C 
ENDBRANCH   8   9
BRANCH   8  11
ATOM     11  C   LIG d   1       1.482  86.799 117.478  0.00  0.00     0.028 C 
ATOM     12  C   LIG d   1       1.464  85.430 116.779  0.00  0.00     0.006 C 
ENDBRANCH   8  11
ENDBRANCH   7   8
ENDBRANCH   1   7
BRANCH   6  13
ATOM     13  N   LIG d   1       3.158  87.314 114.298  0.00  0.00    -0.311 N 
ATOM     14  C   LIG d   1       2.409  86.944 113.262  0.00  0.00     0.210 C 
ATOM     15  C   LIG d   1       2.416  85.442 112.962  0.00  0.00     0.109 C 
ATOM     16  O   LIG d   1       1.764  87.721 112.542  0.00  0.00    -0.276 OA
ATOM     17  H   LIG d   1       3.673  86.622 114.807  0.00  0.00     0.149 HD
ENDBRANCH   6  13
BRANCH   5  18
ATOM     18  N   LIG d   1       5.355  89.260 113.451  0.00  0.00     0.381 N 
ATOM     19  H   LIG d   1       5.333  88.350 113.037  0.00  0.00    -0.090 HD
ATOM     20  H   LIG d   1       6.316  89.540 113.546  0.00  0.00    -0.090 HD
ATOM     21  H   LIG d   1       4.869  89.909 112.872  0.00  0.00    -0.090 HD
ENDBRANCH   5  18
BRANCH   3  22
ATOM     22  C   LIG d   1       4.543  91.706 117.488  0.00  0.00     0.382 C 
ATOM     23  O   LIG d   1       4.290  92.920 117.295  0.00  0.00    -0.241 OA
ATOM     24  O   LIG d   1       5.232  91.371 118.470  0.00  0.00    -0.241 OA
ENDBRANCH   3  22
TORSDOF 7
ENDMDL
