MODEL 1
REMARK VINA RESULT:      -5.5      0.000      0.000
REMARK  7 active torsions:
REMARK  status: ('A' for Active; 'I' for Inactive)
REMARK    1  A    between atoms: C_2  and  C_3 
REMARK    2  A    between atoms: C_3  and  O_6 
REMARK    3  A    between atoms: C_3  and  C_4 
REMARK    4  A    between atoms: C_7  and  O_6 
REMARK    5  A    between atoms: C_9  and  C_10 
REMARK    6  A    between atoms: N_15  and  C_14 
REMARK    7  A    between atoms: N_20  and  C_19 
REMARK       I    between atoms: C_22  and  N_20 
ROOT
ATOM      1  C   LIG d   1      -4.613  91.295 117.392  0.00  0.00     0.161 C 
ATOM      2  C   LIG d   1      -5.511  90.564 116.596  0.00  0.00     0.016 C 
ATOM      3  C   LIG d   1      -6.672  91.124 116.017  0.00  0.00     0.038 C 
ATOM      4  C   LIG d   1      -6.937  92.501 116.071  0.00  0.00     0.028 C 
ATOM      5  C   LIG d   1      -6.326  93.188 117.288  0.00  0.00    -0.047 C 
ATOM      6  C   LIG d   1      -4.827  92.823 117.370  0.00  0.00     0.091 C 
ENDROOT
BRANCH   1   7
ATOM      7  O   LIG d   1      -3.258  90.973 117.022  0.00  0.00    -0.368 OA
BRANCH   7   8
ATOM      8  C   LIG d   1      -2.440  90.374 118.057  0.00  0.00     0.119 C 
BRANCH   8   9
ATOM      9  C   LIG d   1      -0.993  90.862 117.843  0.00  0.00     0.028 C 
ATOM     10  C   LIG d   1      -0.165  89.885 116.992  0.00  0.00     0.006 C 
ENDBRANCH   8   9
BRANCH   8  11
ATOM     11  C   LIG d   1      -2.380  88.851 117.909  0.00  0.00     0.028 C 
ATOM     12  C   LIG d   1      -2.479  88.117 119.256  0.00  0.00     0.006 C 
ENDBRANCH   8  11
ENDBRANCH   7   8
ENDBRANCH   1   7
BRANCH   6  13
ATOM     13  N   LIG d   1      -4.171  93.386 118.579  0.00  0.00    -0.311 N 
ATOM     14  C   LIG d   1      -2.952  93.922 118.570  0.00  0.00     0.210 C 
ATOM     15  C   LIG d   1      -2.457  94.425 119.930  0.00  0.00     0.109 C 
ATOM     16  O   LIG d   1      -2.247  94.057 117.559  0.00  0.00    -0.276 OA
ATOM     17  H   LIG d   1      -4.686  93.345 119.437  0.00  0.00     0.149 HD
ENDBRANCH   6  13
BRANCH   5  18
ATOM     18  N   LIG d   1      -6.562  94.637 117.147  0.00  0.00     0.381 N 
ATOM     19  H   LIG d   1      -7.056  94.818 116.296  0.00  0.00    -0.090 HD
ATOM     20  H   LIG d   1      -5.675  95.108 117.103  0.00  0.00    -0.090 HD
ATOM     21  H   LIG d   1      -7.087  94.974 117.923  0.00  0.00    -0.090 HD
ENDBRANCH   5  18
BRANCH   3  22
ATOM     22  C   LIG d   1      -7.605  90.298 115.409  0.00  0.00     0.382 C 
ATOM     23  O   LIG d   1      -7.999  90.548 114.244  0.00  0.00    -0.241 OA
ATOM     24  O   LIG d   1      -8.089  89.330 116.026  0.00  0.00    -0.241 OA
ENDBRANCH   3  22
TORSDOF 7
ENDMDL
MODEL 2
REMARK VINA RESULT:      -5.0      2.233      3.897
REMARK  7 active torsions:
REMARK  status: ('A' for Active; 'I' for Inactive)
REMARK    1  A    between atoms: C_2  and  C_3 
REMARK    2  A    between atoms: C_3  and  O_6 
REMARK    3  A    between atoms: C_3  and  C_4 
REMARK    4  A    between atoms: C_7  and  O_6 
REMARK    5  A    between atoms: C_9  and  C_10 
REMARK    6  A    between atoms: N_15  and  C_14 
REMARK    7  A    between atoms: N_20  and  C_19 
REMARK       I    between atoms: C_22  and  N_20 
ROOT
ATOM      1  C   LIG d   1      -4.442  93.353 118.110  0.00  0.00     0.161 C 
ATOM      2  C   LIG d   1      -4.158  92.166 117.415  0.00  0.00     0.016 C 
ATOM      3  C   LIG d   1      -5.106  91.486 116.616  0.00  0.00     0.038 C 
ATOM      4  C   LIG d   1      -6.367  92.033 116.335  0.00  0.00     0.028 C 
ATOM      5  C   LIG d   1      -6.874  92.976 117.421  0.00  0.00    -0.047 C 
ATOM      6  C   LIG d   1      -5.779  94.023 117.727  0.00  0.00     0.091 C 
ENDROOT
BRANCH   1   7
ATOM      7  O   LIG d   1      -3.353  94.284 117.955  0.00  0.00    -0.368 OA
BRANCH   7   8
ATOM      8  C   LIG d   1      -2.176  94.028 118.761  0.00  0.00     0.119 C 
BRANCH   8   9
ATOM      9  C   LIG d   1      -2.021  95.208 119.740  0.00  0.00     0.028 C 
ATOM     10  C   LIG d   1      -2.908  96.406 119.361  0.00  0.00     0.006 C 
ENDBRANCH   8   9
BRANCH   8  11
ATOM     11  C   LIG d   1      -0.904  94.039 117.909  0.00  0.00     0.028 C 
ATOM     12  C   LIG d   1      -0.161  92.694 117.931  0.00  0.00     0.006 C 
ENDBRANCH   8  11
ENDBRANCH   7   8
ENDBRANCH   1   7
BRANCH   6  13
ATOM     13  N   LIG d   1      -6.160  94.934 118.838  0.00  0.00    -0.311 N 
ATOM     14  C   LIG d   1      -6.746  96.115 118.650  0.00  0.00     0.210 C 
ATOM     15  C   LIG d   1      -7.036  96.904 119.930  0.00  0.00     0.109 C 
ATOM     16  O   LIG d   1      -7.083  96.569 117.546  0.00  0.00    -0.276 OA
ATOM     17  H   LIG d   1      -5.951  94.630 119.769  0.00  0.00     0.149 HD
ENDBRANCH   6  13
BRANCH   5  18
ATOM     18  N   LIG d   1      -8.130  93.578 116.938  0.00  0.00     0.381 N 
ATOM     19  H   LIG d   1      -8.248  93.381 115.964  0.00  0.00    -0.090 HD
ATOM     20  H   LIG d   1      -8.079  94.575 117.054  0.00  0.00    -0.090 HD
ATOM     21  H   LIG d   1      -8.903  93.216 117.453  0.00  0.00    -0.090 HD
ENDBRANCH   5  18
BRANCH   3  22
ATOM     22  C   LIG d   1      -4.809  90.226 116.120  0.00  0.00     0.382 C 
ATOM     23  O   LIG d   1      -3.773  89.630 116.503  0.00  0.00    -0.241 OA
ATOM     24  O   LIG d   1      -5.541  89.696 115.263  0.00  0.00    -0.241 OA
ENDBRANCH   3  22
TORSDOF 7
ENDMDL
MODEL 3
REMARK VINA RESULT:      -4.9      2.950      4.230
REMARK  7 active torsions:
REMARK  status: ('A' for Active; 'I' for Inactive)
REMARK    1  A    between atoms: C_2  and  C_3 
REMARK    2  A    between atoms: C_3  and  O_6 
REMARK    3  A    between atoms: C_3  and  C_4 
REMARK    4  A    between atoms: C_7  and  O_6 
REMARK    5  A    between atoms: C_9  and  C_10 
REMARK    6  A    between atoms: N_15  and  C_14 
REMARK    7  A    between atoms: N_20  and  C_19 
REMARK       I    between atoms: C_22  and  N_20 
ROOT
ATOM      1  C   LIG d   1      -5.535  93.061 119.695  0.00  0.00     0.161 C 
ATOM      2  C   LIG d   1      -6.907  93.357 119.650  0.00  0.00     0.016 C 
ATOM      3  C   LIG d   1      -7.417  94.640 119.345  0.00  0.00     0.038 C 
ATOM      4  C   LIG d   1      -6.586  95.684 118.912  0.00  0.00     0.028 C 
ATOM      5  C   LIG d   1      -5.156  95.574 119.429  0.00  0.00    -0.047 C 
ATOM      6  C   LIG d   1      -4.617  94.159 119.118  0.00  0.00     0.091 C 
ENDROOT
BRANCH   1   7
ATOM      7  O   LIG d   1      -5.285  91.803 119.038  0.00  0.00    -0.368 OA
BRANCH   7   8
ATOM      8  C   LIG d   1      -5.016  91.868 117.616  0.00  0.00     0.119 C 
BRANCH   8   9
ATOM      9  C   LIG d   1      -6.300  91.438 116.882  0.00  0.00     0.028 C 
ATOM     10  C   LIG d   1      -6.851  92.543 115.965  0.00  0.00     0.006 C 
ENDBRANCH   8   9
BRANCH   8  11
ATOM     11  C   LIG d   1      -3.951  90.848 117.203  0.00  0.00     0.028 C 
ATOM     12  C   LIG d   1      -3.150  90.306 118.397  0.00  0.00     0.006 C 
ENDBRANCH   8  11
ENDBRANCH   7   8
ENDBRANCH   1   7
BRANCH   6  13
ATOM     13  N   LIG d   1      -3.253  93.939 119.664  0.00  0.00    -0.311 N 
ATOM     14  C   LIG d   1      -2.165  93.836 118.902  0.00  0.00     0.210 C 
ATOM     15  C   LIG d   1      -0.861  93.590 119.667  0.00  0.00     0.109 C 
ATOM     16  O   LIG d   1      -2.153  93.958 117.668  0.00  0.00    -0.276 OA
ATOM     17  H   LIG d   1      -3.168  93.860 120.659  0.00  0.00     0.149 HD
ENDBRANCH   6  13
BRANCH   5  18
ATOM     18  N   LIG d   1      -4.368  96.646 118.792  0.00  0.00     0.381 N 
ATOM     19  H   LIG d   1      -3.738  97.046 119.459  0.00  0.00    -0.090 HD
ATOM     20  H   LIG d   1      -4.994  97.367 118.479  0.00  0.00    -0.090 HD
ATOM     21  H   LIG d   1      -3.857  96.280 118.019  0.00  0.00    -0.090 HD
ENDBRANCH   5  18
BRANCH   3  22
ATOM     22  C   LIG d   1      -8.769  94.899 119.509  0.00  0.00     0.382 C 
ATOM     23  O   LIG d   1      -9.617  94.031 119.192  0.00  0.00    -0.241 OA
ATOM     24  O   LIG d   1      -9.154  96.007 119.930  0.00  0.00    -0.241 OA
ENDBRANCH   3  22
TORSDOF 7
ENDMDL
MODEL 4
REMARK VINA RESULT:      -4.8      2.537      6.563
REMARK  7 active torsions:
REMARK  status: ('A' for Active; 'I' for Inactive)
REMARK    1  A    between atoms: C_2  and  C_3 
REMARK    2  A    between atoms: C_3  and  O_6 
REMARK    3  A    between atoms: C_3  and  C_4 
REMARK    4  A    between atoms: C_7  and  O_6 
REMARK    5  A    between atoms: C_9  and  C_10 
REMARK    6  A    between atoms: N_15  and  C_14 
REMARK    7  A    between atoms: N_20  and  C_19 
REMARK       I    between atoms: C_22  and  N_20 
ROOT
ATOM      1  C   LIG d   1      -5.635  93.332 118.093  0.00  0.00     0.161 C 
ATOM      2  C   LIG d   1      -4.538  93.967 118.697  0.00  0.00     0.016 C 
ATOM      3  C   LIG d   1      -3.227  93.437 118.682  0.00  0.00     0.038 C 
ATOM      4  C   LIG d   1      -2.894  92.303 117.927  0.00  0.00     0.028 C 
ATOM      5  C   LIG d   1      -4.066  91.350 117.716  0.00  0.00    -0.047 C 
ATOM      6  C   LIG d   1      -5.271  92.150 117.170  0.00  0.00     0.091 C 
ENDROOT
BRANCH   1   7
ATOM      7  O   LIG d   1      -6.428  94.300 117.377  0.00  0.00    -0.368 OA
BRANCH   7   8
ATOM      8  C   LIG d   1      -7.487  94.939 118.132  0.00  0.00     0.119 C 
BRANCH   8   9
ATOM      9  C   LIG d   1      -7.011  96.362 118.483  0.00  0.00     0.028 C 
ATOM     10  C   LIG d   1      -7.616  97.429 117.555  0.00  0.00     0.006 C 
ENDBRANCH   8   9
BRANCH   8  11
ATOM     11  C   LIG d   1      -7.711  94.243 119.477  0.00  0.00     0.028 C 
ATOM     12  C   LIG d   1      -9.195  94.168 119.870  0.00  0.00     0.006 C 
ENDBRANCH   8  11
ENDBRANCH   7   8
ENDBRANCH   1   7
BRANCH   6  13
ATOM     13  N   LIG d   1      -6.486  91.309 117.014  0.00  0.00    -0.311 N 
ATOM     14  C   LIG d   1      -6.788  90.656 115.893  0.00  0.00     0.210 C 
ATOM     15  C   LIG d   1      -8.097  89.863 115.939  0.00  0.00     0.109 C 
ATOM     16  O   LIG d   1      -6.079  90.633 114.876  0.00  0.00    -0.276 OA
ATOM     17  H   LIG d   1      -7.101  91.247 117.802  0.00  0.00     0.149 HD
ENDBRANCH   6  13
BRANCH   5  18
ATOM     18  N   LIG d   1      -3.616  90.285 116.800  0.00  0.00     0.381 N 
ATOM     19  H   LIG d   1      -2.948  90.655 116.154  0.00  0.00    -0.090 HD
ATOM     20  H   LIG d   1      -4.406  89.949 116.279  0.00  0.00    -0.090 HD
ATOM     21  H   LIG d   1      -3.209  89.539 117.320  0.00  0.00    -0.090 HD
ENDBRANCH   5  18
BRANCH   3  22
ATOM     22  C   LIG d   1      -2.241  94.022 119.462  0.00  0.00     0.382 C 
ATOM     23  O   LIG d   1      -2.347  95.222 119.812  0.00  0.00    -0.241 OA
ATOM     24  O   LIG d   1      -1.224  93.378 119.783  0.00  0.00    -0.241 OA
ENDBRANCH   3  22
TORSDOF 7
ENDMDL
MODEL 5
REMARK VINA RESULT:      -4.8      4.767      7.153
REMARK  7 active torsions:
REMARK  status: ('A' for Active; 'I' for Inactive)
REMARK    1  A    between atoms: C_2  and  C_3 
REMARK    2  A    between atoms: C_3  and  O_6 
REMARK    3  A    between atoms: C_3  and  C_4 
REMARK    4  A    between atoms: C_7  and  O_6 
REMARK    5  A    between atoms: C_9  and  C_10 
REMARK    6  A    between atoms: N_15  and  C_14 
REMARK    7  A    between atoms: N_20  and  C_19 
REMARK       I    between atoms: C_22  and  N_20 
ROOT
ATOM      1  C   LIG d   1       1.531  88.691 116.905  0.00  0.00     0.161 C 
ATOM      2  C   LIG d   1       0.161  88.404 117.023  0.00  0.00     0.016 C 
ATOM      3  C   LIG d   1      -0.743  89.209 117.754  0.00  0.00     0.038 C 
ATOM      4  C   LIG d   1      -0.363  90.446 118.296  0.00  0.00     0.028 C 
ATOM      5  C   LIG d   1       1.122  90.529 118.633  0.00  0.00    -0.047 C 
ATOM      6  C   LIG d   1       1.942  90.096 117.396  0.00  0.00     0.091 C 
ENDROOT
BRANCH   1   7
ATOM      7  O   LIG d   1       1.957  88.493 115.543  0.00  0.00    -0.368 OA
BRANCH   7   8
ATOM      8  C   LIG d   1       2.838  87.367 115.308  0.00  0.00     0.119 C 
BRANCH   8   9
ATOM      9  C   LIG d   1       4.271  87.919 115.179  0.00  0.00     0.028 C 
ATOM     10  C   LIG d   1       5.210  87.374 116.268  0.00  0.00     0.006 C 
ENDBRANCH   8   9
BRANCH   8  11
ATOM     11  C   LIG d   1       2.539  86.696 113.964  0.00  0.00     0.028 C 
ATOM     12  C   LIG d   1       3.302  87.339 112.795  0.00  0.00     0.006 C 
ENDBRANCH   8  11
ENDBRANCH   7   8
ENDBRANCH   1   7
BRANCH   6  13
ATOM     13  N   LIG d   1       3.403  90.068 117.666  0.00  0.00    -0.311 N 
ATOM     14  C   LIG d   1       4.218  91.087 117.398  0.00  0.00     0.210 C 
ATOM     15  C   LIG d   1       5.692  90.843 117.736  0.00  0.00     0.109 C 
ATOM     16  O   LIG d   1       3.854  92.181 116.942  0.00  0.00    -0.276 OA
ATOM     17  H   LIG d   1       3.777  89.229 118.065  0.00  0.00     0.149 HD
ENDBRANCH   6  13
BRANCH   5  18
ATOM     18  N   LIG d   1       1.405  91.913 119.058  0.00  0.00     0.381 N 
ATOM     19  H   LIG d   1       0.907  92.117 119.901  0.00  0.00    -0.090 HD
ATOM     20  H   LIG d   1       1.087  92.544 118.343  0.00  0.00    -0.090 HD
ATOM     21  H   LIG d   1       2.383  92.032 119.204  0.00  0.00    -0.090 HD
ENDBRANCH   5  18
BRANCH   3  22
ATOM     22  C   LIG d   1      -2.034  88.757 117.984  0.00  0.00     0.382 C 
ATOM     23  O   LIG d   1      -2.999  89.284 117.380  0.00  0.00    -0.241 OA
ATOM     24  O   LIG d   1      -2.250  87.860 118.820  0.00  0.00    -0.241 OA
ENDBRANCH   3  22
TORSDOF 7
ENDMDL
MODEL 6
REMARK VINA RESULT:      -4.7      2.450      4.483
REMARK  7 active torsions:
REMARK  status: ('A' for Active; 'I' for Inactive)
REMARK    1  A    between atoms: C_2  and  C_3 
REMARK    2  A    between atoms: C_3  and  O_6 
REMARK    3  A    between atoms: C_3  and  C_4 
REMARK    4  A    between atoms: C_7  and  O_6 
REMARK    5  A    between atoms: C_9  and  C_10 
REMARK    6  A    between atoms: N_15  and  C_14 
REMARK    7  A    between atoms: N_20  and  C_19 
REMARK       I    between atoms: C_22  and  N_20 
ROOT
ATOM      1  C   LIG d   1      -4.711  93.348 119.434  0.00  0.00     0.161 C 
ATOM      2  C   LIG d   1      -4.096  92.208 118.889  0.00  0.00     0.016 C 
ATOM      3  C   LIG d   1      -4.506  91.608 117.677  0.00  0.00     0.038 C 
ATOM      4  C   LIG d   1      -5.468  92.199 116.845  0.00  0.00     0.028 C 
ATOM      5  C   LIG d   1      -6.466  93.071 117.598  0.00  0.00    -0.047 C 
ATOM      6  C   LIG d   1      -5.689  94.071 118.485  0.00  0.00     0.091 C 
ENDROOT
BRANCH   1   7
ATOM      7  O   LIG d   1      -3.706  94.264 119.911  0.00  0.00    -0.368 OA
BRANCH   7   8
ATOM      8  C   LIG d   1      -2.834  94.835 118.905  0.00  0.00     0.119 C 
BRANCH   8   9
ATOM      9  C   LIG d   1      -1.487  94.090 118.983  0.00  0.00     0.028 C 
ATOM     10  C   LIG d   1      -0.896  93.798 117.594  0.00  0.00     0.006 C 
ENDBRANCH   8   9
BRANCH   8  11
ATOM     11  C   LIG d   1      -2.507  96.298 119.215  0.00  0.00     0.028 C 
ATOM     12  C   LIG d   1      -3.754  97.197 119.227  0.00  0.00     0.006 C 
ENDBRANCH   8  11
ENDBRANCH   7   8
ENDBRANCH   1   7
BRANCH   6  13
ATOM     13  N   LIG d   1      -6.591  94.907 119.321  0.00  0.00    -0.311 N 
ATOM     14  C   LIG d   1      -7.122  96.054 118.903  0.00  0.00     0.210 C 
ATOM     15  C   LIG d   1      -8.007  96.768 119.930  0.00  0.00     0.109 C 
ATOM     16  O   LIG d   1      -6.970  96.533 117.769  0.00  0.00    -0.276 OA
ATOM     17  H   LIG d   1      -6.792  94.577 120.244  0.00  0.00     0.149 HD
ENDBRANCH   6  13
BRANCH   5  18
ATOM     18  N   LIG d   1      -7.325  93.733 116.598  0.00  0.00     0.381 N 
ATOM     19  H   LIG d   1      -7.062  93.438 115.678  0.00  0.00    -0.090 HD
ATOM     20  H   LIG d   1      -7.190  94.726 116.660  0.00  0.00    -0.090 HD
ATOM     21  H   LIG d   1      -8.281  93.508 116.766  0.00  0.00    -0.090 HD
ENDBRANCH   5  18
BRANCH   3  22
ATOM     22  C   LIG d   1      -3.978  90.380 117.305  0.00  0.00     0.382 C 
ATOM     23  O   LIG d   1      -4.240  89.902 116.175  0.00  0.00    -0.241 OA
ATOM     24  O   LIG d   1      -3.281  89.725 118.102  0.00  0.00    -0.241 OA
ENDBRANCH   3  22
TORSDOF 7
ENDMDL
MODEL 7
REMARK VINA RESULT:      -4.6      3.266      6.646
REMARK  7 active torsions:
REMARK  status: ('A' for Active; 'I' for Inactive)
REMARK    1  A    between atoms: C_2  and  C_3 
REMARK    2  A    between atoms: C_3  and  O_6 
REMARK    3  A    between atoms: C_3  and  C_4 
REMARK    4  A    between atoms: C_7  and  O_6 
REMARK    5  A    between atoms: C_9  and  C_10 
REMARK    6  A    between atoms: N_15  and  C_14 
REMARK    7  A    between atoms: N_20  and  C_19 
REMARK       I    between atoms: C_22  and  N_20 
ROOT
ATOM      1  C   LIG d   1       0.010  90.496 117.182  0.00  0.00     0.161 C 
ATOM      2  C   LIG d   1       1.409  90.477 117.310  0.00  0.00     0.016 C 
ATOM      3  C   LIG d   1       2.137  91.449 118.035  0.00  0.00     0.038 C 
ATOM      4  C   LIG d   1       1.499  92.426 118.813  0.00  0.00     0.028 C 
ATOM      5  C   LIG d   1       0.106  92.788 118.308  0.00  0.00    -0.047 C 
ATOM      6  C   LIG d   1      -0.711  91.490 118.116  0.00  0.00     0.091 C 
ENDROOT
BRANCH   1   7
ATOM      7  O   LIG d   1      -0.515  89.166 117.365  0.00  0.00    -0.368 OA
BRANCH   7   8
ATOM      8  C   LIG d   1       0.032  88.412 118.474  0.00  0.00     0.119 C 
BRANCH   8   9
ATOM      9  C   LIG d   1       0.351  86.995 117.958  0.00  0.00     0.028 C 
ATOM     10  C   LIG d   1       0.652  86.974 116.450  0.00  0.00     0.006 C 
ENDBRANCH   8   9
BRANCH   8  11
ATOM     11  C   LIG d   1      -1.008  88.216 119.581  0.00  0.00     0.028 C 
ATOM     12  C   LIG d   1      -2.452  88.274 119.059  0.00  0.00     0.006 C 
ENDBRANCH   8  11
ENDBRANCH   7   8
ENDBRANCH   1   7
BRANCH   6  13
ATOM     13  N   LIG d   1      -2.058  91.748 117.544  0.00  0.00    -0.311 N 
ATOM     14  C   LIG d   1      -3.156  91.885 118.286  0.00  0.00     0.210 C 
ATOM     15  C   LIG d   1      -4.445  92.126 117.494  0.00  0.00     0.109 C 
ATOM     16  O   LIG d   1      -3.179  91.862 119.525  0.00  0.00    -0.276 OA
ATOM     17  H   LIG d   1      -2.126  91.813 116.547  0.00  0.00     0.149 HD
ENDBRANCH   6  13
BRANCH   5  18
ATOM     18  N   LIG d   1      -0.497  93.712 119.287  0.00  0.00     0.381 N 
ATOM     19  H   LIG d   1      -1.386  93.360 119.582  0.00  0.00    -0.090 HD
ATOM     20  H   LIG d   1      -0.640  94.604 118.847  0.00  0.00    -0.090 HD
ATOM     21  H   LIG d   1       0.105  93.815 120.074  0.00  0.00    -0.090 HD
ENDBRANCH   5  18
BRANCH   3  22
ATOM     22  C   LIG d   1       3.521  91.472 117.954  0.00  0.00     0.382 C 
ATOM     23  O   LIG d   1       4.211  90.923 118.846  0.00  0.00    -0.241 OA
ATOM     24  O   LIG d   1       4.089  92.074 117.023  0.00  0.00    -0.241 OA
ENDBRANCH   3  22
TORSDOF 7
ENDMDL
MODEL 8
REMARK VINA RESULT:      -4.6      2.524      5.832
REMARK  7 active torsions:
REMARK  status: ('A' for Active; 'I' for Inactive)
REMARK    1  A    between atoms: C_2  and  C_3 
REMARK    2  A    between atoms: C_3  and  O_6 
REMARK    3  A    between atoms: C_3  and  C_4 
REMARK    4  A    between atoms: C_7  and  O_6 
REMARK    5  A    between atoms: C_9  and  C_10 
REMARK    6  A    between atoms: N_15  and  C_14 
REMARK    7  A    between atoms: N_20  and  C_19 
REMARK       I    between atoms: C_22  and  N_20 
ROOT
ATOM      1  C   LIG d   1      -4.265  92.654 119.100  0.00  0.00     0.161 C 
ATOM      2  C   LIG d   1      -4.274  94.058 119.108  0.00  0.00     0.016 C 
ATOM      3  C   LIG d   1      -3.107  94.845 118.970  0.00  0.00     0.038 C 
ATOM      4  C   LIG d   1      -1.862  94.277 118.661  0.00  0.00     0.028 C 
ATOM      5  C   LIG d   1      -1.716  92.838 119.145  0.00  0.00    -0.047 C 
ATOM      6  C   LIG d   1      -2.931  92.018 118.654  0.00  0.00     0.091 C 
ENDROOT
BRANCH   1   7
ATOM      7  O   LIG d   1      -5.350  92.162 118.289  0.00  0.00    -0.368 OA
BRANCH   7   8
ATOM      8  C   LIG d   1      -5.168  92.257 116.855  0.00  0.00     0.119 C 
BRANCH   8   9
ATOM      9  C   LIG d   1      -6.431  92.917 116.270  0.00  0.00     0.028 C 
ATOM     10  C   LIG d   1      -7.436  93.329 117.360  0.00  0.00     0.006 C 
ENDBRANCH   8   9
BRANCH   8  11
ATOM     11  C   LIG d   1      -5.100  90.870 116.210  0.00  0.00     0.028 C 
ATOM     12  C   LIG d   1      -6.173  90.662 115.129  0.00  0.00     0.006 C 
ENDBRANCH   8  11
ENDBRANCH   7   8
ENDBRANCH   1   7
BRANCH   6  13
ATOM     13  N   LIG d   1      -2.910  90.619 119.154  0.00  0.00    -0.311 N 
ATOM     14  C   LIG d   1      -2.363  89.608 118.481  0.00  0.00     0.210 C 
ATOM     15  C   LIG d   1      -2.468  88.242 119.167  0.00  0.00     0.109 C 
ATOM     16  O   LIG d   1      -1.772  89.718 117.396  0.00  0.00    -0.276 OA
ATOM     17  H   LIG d   1      -3.341  90.445 120.041  0.00  0.00     0.149 HD
ENDBRANCH   6  13
BRANCH   5  18
ATOM     18  N   LIG d   1      -0.430  92.325 118.637  0.00  0.00     0.381 N 
ATOM     19  H   LIG d   1       0.256  92.352 119.365  0.00  0.00    -0.090 HD
ATOM     20  H   LIG d   1      -0.117  92.917 117.888  0.00  0.00    -0.090 HD
ATOM     21  H   LIG d   1      -0.540  91.391 118.309  0.00  0.00    -0.090 HD
ENDBRANCH   5  18
BRANCH   3  22
ATOM     22  C   LIG d   1      -3.172  96.214 119.180  0.00  0.00     0.382 C 
ATOM     23  O   LIG d   1      -2.117  96.891 119.235  0.00  0.00    -0.241 OA
ATOM     24  O   LIG d   1      -4.270  96.774 119.360  0.00  0.00    -0.241 OA
ENDBRANCH   3  22
TORSDOF 7
ENDMDL
MODEL 9
REMARK VINA RESULT:      -4.6      2.509      4.002
REMARK  7 active torsions:
REMARK  status: ('A' for Active; 'I' for Inactive)
REMARK    1  A    between atoms: C_2  and  C_3 
REMARK    2  A    between atoms: C_3  and  O_6 
REMARK    3  A    between atoms: C_3  and  C_4 
REMARK    4  A    between atoms: C_7  and  O_6 
REMARK    5  A    between atoms: C_9  and  C_10 
REMARK    6  A    between atoms: N_15  and  C_14 
REMARK    7  A    between atoms: N_20  and  C_19 
REMARK       I    between atoms: C_22  and  N_20 
ROOT
ATOM      1  C   LIG d   1      -1.849  90.721 118.152  0.00  0.00     0.161 C 
ATOM      2  C   LIG d   1      -3.185  90.865 117.744  0.00  0.00     0.016 C 
ATOM      3  C   LIG d   1      -3.848  92.112 117.678  0.00  0.00     0.038 C 
ATOM      4  C   LIG d   1      -3.170  93.324 117.872  0.00  0.00     0.028 C 
ATOM      5  C   LIG d   1      -1.949  93.197 118.777  0.00  0.00    -0.047 C 
ATOM      6  C   LIG d   1      -1.060  92.043 118.261  0.00  0.00     0.091 C 
ENDROOT
BRANCH   1   7
ATOM      7  O   LIG d   1      -1.167  89.801 117.276  0.00  0.00    -0.368 OA
BRANCH   7   8
ATOM      8  C   LIG d   1      -1.188  88.408 117.673  0.00  0.00     0.119 C 
BRANCH   8   9
ATOM      9  C   LIG d   1      -1.137  88.365 119.213  0.00  0.00     0.028 C 
ATOM     10  C   LIG d   1      -2.129  87.350 119.805  0.00  0.00     0.006 C 
ENDBRANCH   8   9
BRANCH   8  11
ATOM     11  C   LIG d   1       0.073  87.676 117.205  0.00  0.00     0.028 C 
ATOM     12  C   LIG d   1       1.186  88.635 116.755  0.00  0.00     0.006 C 
ENDBRANCH   8  11
ENDBRANCH   7   8
ENDBRANCH   1   7
BRANCH   6  13
ATOM     13  N   LIG d   1       0.114  91.795 119.138  0.00  0.00    -0.311 N 
ATOM     14  C   LIG d   1       1.373  91.818 118.703  0.00  0.00     0.210 C 
ATOM     15  C   LIG d   1       2.431  91.516 119.768  0.00  0.00     0.109 C 
ATOM     16  O   LIG d   1       1.715  92.092 117.543  0.00  0.00    -0.276 OA
ATOM     17  H   LIG d   1      -0.071  91.596 120.102  0.00  0.00     0.149 HD
ENDBRANCH   6  13
BRANCH   5  18
ATOM     18  N   LIG d   1      -1.259  94.501 118.782  0.00  0.00     0.381 N 
ATOM     19  H   LIG d   1      -1.925  95.236 118.912  0.00  0.00    -0.090 HD
ATOM     20  H   LIG d   1      -0.811  94.635 117.893  0.00  0.00    -0.090 HD
ATOM     21  H   LIG d   1      -0.581  94.525 119.512  0.00  0.00    -0.090 HD
ENDBRANCH   5  18
BRANCH   3  22
ATOM     22  C   LIG d   1      -5.216  92.152 117.454  0.00  0.00     0.382 C 
ATOM     23  O   LIG d   1      -5.827  93.247 117.499  0.00  0.00    -0.241 OA
ATOM     24  O   LIG d   1      -5.854  91.101 117.252  0.00  0.00    -0.241 OA
ENDBRANCH   3  22
TORSDOF 7
ENDMDL
