MODEL 1
REMARK VINA RESULT:      -4.9      0.000      0.000
REMARK  7 active torsions:
REMARK  status: ('A' for Active; 'I' for Inactive)
REMARK    1  A    between atoms: C_2  and  C_3 
REMARK    2  A    between atoms: C_3  and  O_6 
REMARK    3  A    between atoms: C_3  and  C_4 
REMARK    4  A    between atoms: C_7  and  O_6 
REMARK    5  A    between atoms: C_9  and  C_10 
REMARK    6  A    between atoms: N_15  and  C_14 
REMARK    7  A    between atoms: N_20  and  C_19 
REMARK       I    between atoms: C_22  and  N_20 
ROOT
ATOM      1  C   LIG d   1      -3.823  92.064 118.070  0.00  0.00     0.161 C 
ATOM      2  C   LIG d   1      -4.931  92.194 117.216  0.00  0.00     0.016 C 
ATOM      3  C   LIG d   1      -5.376  91.163 116.356  0.00  0.00     0.038 C 
ATOM      4  C   LIG d   1      -4.830  89.872 116.403  0.00  0.00     0.028 C 
ATOM      5  C   LIG d   1      -3.384  89.842 116.887  0.00  0.00    -0.047 C 
ATOM      6  C   LIG d   1      -3.284  90.626 118.215  0.00  0.00     0.091 C 
ENDROOT
BRANCH   1   7
ATOM      7  O   LIG d   1      -4.137  92.616 119.364  0.00  0.00    -0.368 OA
BRANCH   7   8
ATOM      8  C   LIG d   1      -3.425  93.823 119.732  0.00  0.00     0.119 C 
BRANCH   8   9
ATOM      9  C   LIG d   1      -4.469  94.946 119.886  0.00  0.00     0.028 C 
ATOM     10  C   LIG d   1      -5.909  94.408 119.929  0.00  0.00     0.006 C 
ENDBRANCH   8   9
BRANCH   8  11
ATOM     11  C   LIG d   1      -2.494  94.285 118.607  0.00  0.00     0.028 C 
ATOM     12  C   LIG d   1      -1.010  94.232 119.003  0.00  0.00     0.006 C 
ENDBRANCH   8  11
ENDBRANCH   7   8
ENDBRANCH   1   7
BRANCH   6  13
ATOM     13  N   LIG d   1      -1.887  90.718 118.715  0.00  0.00    -0.311 N 
ATOM     14  C   LIG d   1      -1.334  89.810 119.516  0.00  0.00     0.210 C 
ATOM     15  C   LIG d   1       0.111  90.106 119.930  0.00  0.00     0.109 C 
ATOM     16  O   LIG d   1      -1.892  88.770 119.898  0.00  0.00    -0.276 OA
ATOM     17  H   LIG d   1      -1.352  91.514 118.429  0.00  0.00     0.149 HD
ENDBRANCH   6  13
BRANCH   5  18
ATOM     18  N   LIG d   1      -2.987  88.428 117.019  0.00  0.00     0.381 N 
ATOM     19  H   LIG d   1      -2.157  88.258 116.487  0.00  0.00    -0.090 HD
ATOM     20  H   LIG d   1      -3.721  87.848 116.651  0.00  0.00    -0.090 HD
ATOM     21  H   LIG d   1      -2.828  88.206 117.977  0.00  0.00    -0.090 HD
ENDBRANCH   5  18
BRANCH   3  22
ATOM     22  C   LIG d   1      -6.352  91.432 115.409  0.00  0.00     0.382 C 
ATOM     23  O   LIG d   1      -7.333  90.660 115.283  0.00  0.00    -0.241 OA
ATOM     24  O   LIG d   1      -6.241  92.412 114.648  0.00  0.00    -0.241 OA
ENDBRANCH   3  22
TORSDOF 7
ENDMDL
MODEL 2
REMARK VINA RESULT:      -4.8      2.135      4.543
REMARK  7 active torsions:
REMARK  status: ('A' for Active; 'I' for Inactive)
REMARK    1  A    between atoms: C_2  and  C_3 
REMARK    2  A    between atoms: C_3  and  O_6 
REMARK    3  A    between atoms: C_3  and  C_4 
REMARK    4  A    between atoms: C_7  and  O_6 
REMARK    5  A    between atoms: C_9  and  C_10 
REMARK    6  A    between atoms: N_15  and  C_14 
REMARK    7  A    between atoms: N_20  and  C_19 
REMARK       I    between atoms: C_22  and  N_20 
ROOT
ATOM      1  C   LIG d   1      -3.954  92.400 119.277  0.00  0.00     0.161 C 
ATOM      2  C   LIG d   1      -3.927  93.803 119.341  0.00  0.00     0.016 C 
ATOM      3  C   LIG d   1      -2.827  94.580 118.911  0.00  0.00     0.038 C 
ATOM      4  C   LIG d   1      -1.732  94.011 118.243  0.00  0.00     0.028 C 
ATOM      5  C   LIG d   1      -1.491  92.551 118.610  0.00  0.00    -0.047 C 
ATOM      6  C   LIG d   1      -2.814  91.768 118.449  0.00  0.00     0.091 C 
ENDROOT
BRANCH   1   7
ATOM      7  O   LIG d   1      -5.234  91.957 118.785  0.00  0.00    -0.368 OA
BRANCH   7   8
ATOM      8  C   LIG d   1      -5.680  92.553 117.542  0.00  0.00     0.119 C 
BRANCH   8   9
ATOM      9  C   LIG d   1      -7.137  93.012 117.745  0.00  0.00     0.028 C 
ATOM     10  C   LIG d   1      -7.245  94.525 118.003  0.00  0.00     0.006 C 
ENDBRANCH   8   9
BRANCH   8  11
ATOM     11  C   LIG d   1      -5.736  91.516 116.416  0.00  0.00     0.028 C 
ATOM     12  C   LIG d   1      -6.451  92.039 115.160  0.00  0.00     0.006 C 
ENDBRANCH   8  11
ENDBRANCH   7   8
ENDBRANCH   1   7
BRANCH   6  13
ATOM     13  N   LIG d   1      -2.687  90.348 118.869  0.00  0.00    -0.311 N 
ATOM     14  C   LIG d   1      -2.875  89.320 118.043  0.00  0.00     0.210 C 
ATOM     15  C   LIG d   1      -2.715  87.938 118.684  0.00  0.00     0.109 C 
ATOM     16  O   LIG d   1      -3.126  89.422 116.833  0.00  0.00    -0.276 OA
ATOM     17  H   LIG d   1      -2.455  90.175 119.827  0.00  0.00     0.149 HD
ENDBRANCH   6  13
BRANCH   5  18
ATOM     18  N   LIG d   1      -0.411  92.046 117.742  0.00  0.00     0.381 N 
ATOM     19  H   LIG d   1      -0.804  91.581 116.948  0.00  0.00    -0.090 HD
ATOM     20  H   LIG d   1       0.136  91.379 118.259  0.00  0.00    -0.090 HD
ATOM     21  H   LIG d   1       0.167  92.800 117.443  0.00  0.00    -0.090 HD
ENDBRANCH   5  18
BRANCH   3  22
ATOM     22  C   LIG d   1      -2.798  95.940 119.184  0.00  0.00     0.382 C 
ATOM     23  O   LIG d   1      -1.699  96.539 119.266  0.00  0.00    -0.241 OA
ATOM     24  O   LIG d   1      -3.855  96.565 119.393  0.00  0.00    -0.241 OA
ENDBRANCH   3  22
TORSDOF 7
ENDMDL
MODEL 3
REMARK VINA RESULT:      -4.6      2.666      4.847
REMARK  7 active torsions:
REMARK  status: ('A' for Active; 'I' for Inactive)
REMARK    1  A    between atoms: C_2  and  C_3 
REMARK    2  A    between atoms: C_3  and  O_6 
REMARK    3  A    between atoms: C_3  and  C_4 
REMARK    4  A    between atoms: C_7  and  O_6 
REMARK    5  A    between atoms: C_9  and  C_10 
REMARK    6  A    between atoms: N_15  and  C_14 
REMARK    7  A    between atoms: N_20  and  C_19 
REMARK       I    between atoms: C_22  and  N_20 
ROOT
ATOM      1  C   LIG d   1      -4.684  93.168 118.804  0.00  0.00     0.161 C 
ATOM      2  C   LIG d   1      -5.106  94.393 119.347  0.00  0.00     0.016 C 
ATOM      3  C   LIG d   1      -6.315  95.029 118.984  0.00  0.00     0.038 C 
ATOM      4  C   LIG d   1      -7.263  94.405 118.160  0.00  0.00     0.028 C 
ATOM      5  C   LIG d   1      -6.654  93.395 117.193  0.00  0.00    -0.047 C 
ATOM      6  C   LIG d   1      -5.757  92.419 117.987  0.00  0.00     0.091 C 
ENDROOT
BRANCH   1   7
ATOM      7  O   LIG d   1      -4.168  92.321 119.850  0.00  0.00    -0.368 OA
BRANCH   7   8
ATOM      8  C   LIG d   1      -2.738  92.093 119.839  0.00  0.00     0.119 C 
BRANCH   8   9
ATOM      9  C   LIG d   1      -2.159  92.839 118.622  0.00  0.00     0.028 C 
ATOM     10  C   LIG d   1      -1.113  93.893 119.022  0.00  0.00     0.006 C 
ENDBRANCH   8   9
BRANCH   8  11
ATOM     11  C   LIG d   1      -2.411  90.616 119.602  0.00  0.00     0.028 C 
ATOM     12  C   LIG d   1      -1.857  90.347 118.194  0.00  0.00     0.006 C 
ENDBRANCH   8  11
ENDBRANCH   7   8
ENDBRANCH   1   7
BRANCH   6  13
ATOM     13  N   LIG d   1      -5.056  91.449 117.105  0.00  0.00    -0.311 N 
ATOM     14  C   LIG d   1      -5.591  90.294 116.715  0.00  0.00     0.210 C 
ATOM     15  C   LIG d   1      -4.690  89.433 115.823  0.00  0.00     0.109 C 
ATOM     16  O   LIG d   1      -6.738  89.915 116.995  0.00  0.00    -0.276 OA
ATOM     17  H   LIG d   1      -4.132  91.691 116.805  0.00  0.00     0.149 HD
ENDBRANCH   6  13
BRANCH   5  18
ATOM     18  N   LIG d   1      -7.765  92.722 116.494  0.00  0.00     0.381 N 
ATOM     19  H   LIG d   1      -7.772  92.991 115.531  0.00  0.00    -0.090 HD
ATOM     20  H   LIG d   1      -8.633  93.011 116.909  0.00  0.00    -0.090 HD
ATOM     21  H   LIG d   1      -7.666  91.733 116.569  0.00  0.00    -0.090 HD
ENDBRANCH   5  18
BRANCH   3  22
ATOM     22  C   LIG d   1      -6.568  96.322 119.417  0.00  0.00     0.382 C 
ATOM     23  O   LIG d   1      -5.642  97.011 119.909  0.00  0.00    -0.241 OA
ATOM     24  O   LIG d   1      -7.720  96.793 119.361  0.00  0.00    -0.241 OA
ENDBRANCH   3  22
TORSDOF 7
ENDMDL
MODEL 4
REMARK VINA RESULT:      -4.5      2.218      2.986
REMARK  7 active torsions:
REMARK  status: ('A' for Active; 'I' for Inactive)
REMARK    1  A    between atoms: C_2  and  C_3 
REMARK    2  A    between atoms: C_3  and  O_6 
REMARK    3  A    between atoms: C_3  and  C_4 
REMARK    4  A    between atoms: C_7  and  O_6 
REMARK    5  A    between atoms: C_9  and  C_10 
REMARK    6  A    between atoms: N_15  and  C_14 
REMARK    7  A    between atoms: N_20  and  C_19 
REMARK       I    between atoms: C_22  and  N_20 
ROOT
ATOM      1  C   LIG d   1      -4.299  92.403 118.460  0.00  0.00     0.161 C 
ATOM      2  C   LIG d   1      -5.365  93.312 118.560  0.00  0.00     0.016 C 
ATOM      3  C   LIG d   1      -6.629  93.098 117.963  0.00  0.00     0.038 C 
ATOM      4  C   LIG d   1      -6.962  91.881 117.349  0.00  0.00     0.028 C 
ATOM      5  C   LIG d   1      -5.756  91.136 116.787  0.00  0.00    -0.047 C 
ATOM      6  C   LIG d   1      -4.679  91.020 117.889  0.00  0.00     0.091 C 
ENDROOT
BRANCH   1   7
ATOM      7  O   LIG d   1      -3.660  92.256 119.744  0.00  0.00    -0.368 OA
BRANCH   7   8
ATOM      8  C   LIG d   1      -2.323  92.801 119.857  0.00  0.00     0.119 C 
BRANCH   8   9
ATOM      9  C   LIG d   1      -2.022  93.563 118.552  0.00  0.00     0.028 C 
ATOM     10  C   LIG d   1      -1.912  95.082 118.772  0.00  0.00     0.006 C 
ENDBRANCH   8   9
BRANCH   8  11
ATOM     11  C   LIG d   1      -1.272  91.689 119.928  0.00  0.00     0.028 C 
ATOM     12  C   LIG d   1       0.155  92.200 119.676  0.00  0.00     0.006 C 
ENDBRANCH   8  11
ENDBRANCH   7   8
ENDBRANCH   1   7
BRANCH   6  13
ATOM     13  N   LIG d   1      -3.432  90.379 117.398  0.00  0.00    -0.311 N 
ATOM     14  C   LIG d   1      -2.929  89.259 117.917  0.00  0.00     0.210 C 
ATOM     15  C   LIG d   1      -1.624  88.778 117.275  0.00  0.00     0.109 C 
ATOM     16  O   LIG d   1      -3.458  88.602 118.826  0.00  0.00    -0.276 OA
ATOM     17  H   LIG d   1      -2.955  90.828 116.641  0.00  0.00     0.149 HD
ENDBRANCH   6  13
BRANCH   5  18
ATOM     18  N   LIG d   1      -6.229  89.826 116.300  0.00  0.00     0.381 N 
ATOM     19  H   LIG d   1      -6.011  89.727 115.329  0.00  0.00    -0.090 HD
ATOM     20  H   LIG d   1      -7.227  89.781 116.406  0.00  0.00    -0.090 HD
ATOM     21  H   LIG d   1      -5.798  89.094 116.821  0.00  0.00    -0.090 HD
ENDBRANCH   5  18
BRANCH   3  22
ATOM     22  C   LIG d   1      -7.562  94.123 117.943  0.00  0.00     0.382 C 
ATOM     23  O   LIG d   1      -7.180  95.318 117.961  0.00  0.00    -0.241 OA
ATOM     24  O   LIG d   1      -8.781  93.868 117.950  0.00  0.00    -0.241 OA
ENDBRANCH   3  22
TORSDOF 7
ENDMDL
MODEL 5
REMARK VINA RESULT:      -4.4      2.394      5.546
REMARK  7 active torsions:
REMARK  status: ('A' for Active; 'I' for Inactive)
REMARK    1  A    between atoms: C_2  and  C_3 
REMARK    2  A    between atoms: C_3  and  O_6 
REMARK    3  A    between atoms: C_3  and  C_4 
REMARK    4  A    between atoms: C_7  and  O_6 
REMARK    5  A    between atoms: C_9  and  C_10 
REMARK    6  A    between atoms: N_15  and  C_14 
REMARK    7  A    between atoms: N_20  and  C_19 
REMARK       I    between atoms: C_22  and  N_20 
ROOT
ATOM      1  C   LIG d   1      -4.126  91.664 118.049  0.00  0.00     0.161 C 
ATOM      2  C   LIG d   1      -3.486  92.795 118.583  0.00  0.00     0.016 C 
ATOM      3  C   LIG d   1      -4.182  93.921 119.080  0.00  0.00     0.038 C 
ATOM      4  C   LIG d   1      -5.578  93.928 119.217  0.00  0.00     0.028 C 
ATOM      5  C   LIG d   1      -6.289  93.014 118.225  0.00  0.00    -0.047 C 
ATOM      6  C   LIG d   1      -5.649  91.608 118.292  0.00  0.00     0.091 C 
ENDROOT
BRANCH   1   7
ATOM      7  O   LIG d   1      -3.495  90.466 118.543  0.00  0.00    -0.368 OA
BRANCH   7   8
ATOM      8  C   LIG d   1      -2.451  89.905 117.711  0.00  0.00     0.119 C 
BRANCH   8   9
ATOM      9  C   LIG d   1      -2.792  88.421 117.478  0.00  0.00     0.028 C 
ATOM     10  C   LIG d   1      -2.150  87.499 118.529  0.00  0.00     0.006 C 
ENDBRANCH   8   9
BRANCH   8  11
ATOM     11  C   LIG d   1      -1.102  89.903 118.435  0.00  0.00     0.028 C 
ATOM     12  C   LIG d   1      -0.081  90.860 117.799  0.00  0.00     0.006 C 
ENDBRANCH   8  11
ENDBRANCH   7   8
ENDBRANCH   1   7
BRANCH   6  13
ATOM     13  N   LIG d   1      -6.229  90.673 117.293  0.00  0.00    -0.311 N 
ATOM     14  C   LIG d   1      -6.301  90.944 115.991  0.00  0.00     0.210 C 
ATOM     15  C   LIG d   1      -6.955  89.851 115.138  0.00  0.00     0.109 C 
ATOM     16  O   LIG d   1      -5.857  91.971 115.456  0.00  0.00    -0.276 OA
ATOM     17  H   LIG d   1      -6.586  89.803 117.636  0.00  0.00     0.149 HD
ENDBRANCH   6  13
BRANCH   5  18
ATOM     18  N   LIG d   1      -7.723  93.013 118.569  0.00  0.00     0.381 N 
ATOM     19  H   LIG d   1      -8.248  92.584 117.833  0.00  0.00    -0.090 HD
ATOM     20  H   LIG d   1      -8.035  93.963 118.666  0.00  0.00    -0.090 HD
ATOM     21  H   LIG d   1      -7.869  92.518 119.422  0.00  0.00    -0.090 HD
ENDBRANCH   5  18
BRANCH   3  22
ATOM     22  C   LIG d   1      -3.481  95.071 119.410  0.00  0.00     0.382 C 
ATOM     23  O   LIG d   1      -4.101  96.099 119.775  0.00  0.00    -0.241 OA
ATOM     24  O   LIG d   1      -2.241  95.107 119.306  0.00  0.00    -0.241 OA
ENDBRANCH   3  22
TORSDOF 7
ENDMDL
MODEL 6
REMARK VINA RESULT:      -4.4      2.146      4.864
REMARK  7 active torsions:
REMARK  status: ('A' for Active; 'I' for Inactive)
REMARK    1  A    between atoms: C_2  and  C_3 
REMARK    2  A    between atoms: C_3  and  O_6 
REMARK    3  A    between atoms: C_3  and  C_4 
REMARK    4  A    between atoms: C_7  and  O_6 
REMARK    5  A    between atoms: C_9  and  C_10 
REMARK    6  A    between atoms: N_15  and  C_14 
REMARK    7  A    between atoms: N_20  and  C_19 
REMARK       I    between atoms: C_22  and  N_20 
ROOT
ATOM      1  C   LIG d   1      -3.829  92.363 118.482  0.00  0.00     0.161 C 
ATOM      2  C   LIG d   1      -3.732  93.755 118.646  0.00  0.00     0.016 C 
ATOM      3  C   LIG d   1      -2.516  94.424 118.915  0.00  0.00     0.038 C 
ATOM      4  C   LIG d   1      -1.282  93.758 118.889  0.00  0.00     0.028 C 
ATOM      5  C   LIG d   1      -1.387  92.275 119.227  0.00  0.00    -0.047 C 
ATOM      6  C   LIG d   1      -2.477  91.633 118.339  0.00  0.00     0.091 C 
ENDROOT
BRANCH   1   7
ATOM      7  O   LIG d   1      -4.682  92.062 117.360  0.00  0.00    -0.368 OA
BRANCH   7   8
ATOM      8  C   LIG d   1      -6.077  91.816 117.668  0.00  0.00     0.119 C 
BRANCH   8   9
ATOM      9  C   LIG d   1      -6.466  90.477 117.013  0.00  0.00     0.028 C 
ATOM     10  C   LIG d   1      -6.395  90.532 115.477  0.00  0.00     0.006 C 
ENDBRANCH   8   9
BRANCH   8  11
ATOM     11  C   LIG d   1      -6.984  92.865 117.017  0.00  0.00     0.028 C 
ATOM     12  C   LIG d   1      -8.026  93.437 117.990  0.00  0.00     0.006 C 
ENDBRANCH   8  11
ENDBRANCH   7   8
ENDBRANCH   1   7
BRANCH   6  13
ATOM     13  N   LIG d   1      -2.703  90.201 118.665  0.00  0.00    -0.311 N 
ATOM     14  C   LIG d   1      -2.079  89.201 118.045  0.00  0.00     0.210 C 
ATOM     15  C   LIG d   1      -2.472  87.799 118.521  0.00  0.00     0.109 C 
ATOM     16  O   LIG d   1      -1.212  89.343 117.169  0.00  0.00    -0.276 OA
ATOM     17  H   LIG d   1      -3.367  89.996 119.386  0.00  0.00     0.149 HD
ENDBRANCH   6  13
BRANCH   5  18
ATOM     18  N   LIG d   1      -0.053  91.677 119.028  0.00  0.00     0.381 N 
ATOM     19  H   LIG d   1      -0.115  90.919 118.378  0.00  0.00    -0.090 HD
ATOM     20  H   LIG d   1       0.275  91.314 119.905  0.00  0.00    -0.090 HD
ATOM     21  H   LIG d   1       0.582  92.365 118.687  0.00  0.00    -0.090 HD
ENDBRANCH   5  18
BRANCH   3  22
ATOM     22  C   LIG d   1      -2.532  95.769 119.255  0.00  0.00     0.382 C 
ATOM     23  O   LIG d   1      -1.461  96.421 119.280  0.00  0.00    -0.241 OA
ATOM     24  O   LIG d   1      -3.598  96.326 119.579  0.00  0.00    -0.241 OA
ENDBRANCH   3  22
TORSDOF 7
ENDMDL
MODEL 7
REMARK VINA RESULT:      -4.0      4.499      7.381
REMARK  7 active torsions:
REMARK  status: ('A' for Active; 'I' for Inactive)
REMARK    1  A    between atoms: C_2  and  C_3 
REMARK    2  A    between atoms: C_3  and  O_6 
REMARK    3  A    between atoms: C_3  and  C_4 
REMARK    4  A    between atoms: C_7  and  O_6 
REMARK    5  A    between atoms: C_9  and  C_10 
REMARK    6  A    between atoms: N_15  and  C_14 
REMARK    7  A    between atoms: N_20  and  C_19 
REMARK       I    between atoms: C_22  and  N_20 
ROOT
ATOM      1  C   LIG d   1       0.925  88.064 117.334  0.00  0.00     0.161 C 
ATOM      2  C   LIG d   1      -0.464  87.856 117.300  0.00  0.00     0.016 C 
ATOM      3  C   LIG d   1      -1.404  88.802 117.769  0.00  0.00     0.038 C 
ATOM      4  C   LIG d   1      -1.022  90.092 118.166  0.00  0.00     0.028 C 
ATOM      5  C   LIG d   1       0.407  90.166 118.691  0.00  0.00    -0.047 C 
ATOM      6  C   LIG d   1       1.355  89.509 117.661  0.00  0.00     0.091 C 
ENDROOT
BRANCH   1   7
ATOM      7  O   LIG d   1       1.513  87.636 116.090  0.00  0.00    -0.368 OA
BRANCH   7   8
ATOM      8  C   LIG d   1       2.362  86.464 116.156  0.00  0.00     0.119 C 
BRANCH   8   9
ATOM      9  C   LIG d   1       3.791  86.905 115.785  0.00  0.00     0.028 C 
ATOM     10  C   LIG d   1       3.803  88.116 114.837  0.00  0.00     0.006 C 
ENDBRANCH   8   9
BRANCH   8  11
ATOM     11  C   LIG d   1       1.969  85.430 115.096  0.00  0.00     0.028 C 
ATOM     12  C   LIG d   1       0.768  85.875 114.247  0.00  0.00     0.006 C 
ENDBRANCH   8  11
ENDBRANCH   7   8
ENDBRANCH   1   7
BRANCH   6  13
ATOM     13  N   LIG d   1       2.763  89.463 118.134  0.00  0.00    -0.311 N 
ATOM     14  C   LIG d   1       3.666  90.396 117.837  0.00  0.00     0.210 C 
ATOM     15  C   LIG d   1       5.065  90.146 118.410  0.00  0.00     0.109 C 
ATOM     16  O   LIG d   1       3.434  91.422 117.181  0.00  0.00    -0.276 OA
ATOM     17  H   LIG d   1       3.029  88.681 118.699  0.00  0.00     0.149 HD
ENDBRANCH   6  13
BRANCH   5  18
ATOM     18  N   LIG d   1       0.718  91.586 118.939  0.00  0.00     0.381 N 
ATOM     19  H   LIG d   1      -0.068  92.153 118.693  0.00  0.00    -0.090 HD
ATOM     20  H   LIG d   1       1.495  91.855 118.360  0.00  0.00    -0.090 HD
ATOM     21  H   LIG d   1       0.948  91.723 119.899  0.00  0.00    -0.090 HD
ENDBRANCH   5  18
BRANCH   3  22
ATOM     22  C   LIG d   1      -2.740  88.447 117.881  0.00  0.00     0.382 C 
ATOM     23  O   LIG d   1      -3.571  88.858 117.035  0.00  0.00    -0.241 OA
ATOM     24  O   LIG d   1      -3.132  87.756 118.841  0.00  0.00    -0.241 OA
ENDBRANCH   3  22
TORSDOF 7
ENDMDL
MODEL 8
REMARK VINA RESULT:      -4.0      7.565      9.346
REMARK  7 active torsions:
REMARK  status: ('A' for Active; 'I' for Inactive)
REMARK    1  A    between atoms: C_2  and  C_3 
REMARK    2  A    between atoms: C_3  and  O_6 
REMARK    3  A    between atoms: C_3  and  C_4 
REMARK    4  A    between atoms: C_7  and  O_6 
REMARK    5  A    between atoms: C_9  and  C_10 
REMARK    6  A    between atoms: N_15  and  C_14 
REMARK    7  A    between atoms: N_20  and  C_19 
REMARK       I    between atoms: C_22  and  N_20 
ROOT
ATOM      1  C   LIG d   1       5.393  90.124 115.922  0.00  0.00     0.161 C 
ATOM      2  C   LIG d   1       4.440  89.673 114.994  0.00  0.00     0.016 C 
ATOM      3  C   LIG d   1       4.129  88.307 114.799  0.00  0.00     0.038 C 
ATOM      4  C   LIG d   1       4.646  87.303 115.632  0.00  0.00     0.028 C 
ATOM      5  C   LIG d   1       5.993  87.662 116.250  0.00  0.00    -0.047 C 
ATOM      6  C   LIG d   1       5.885  89.052 116.917  0.00  0.00     0.091 C 
ENDROOT
BRANCH   1   7
ATOM      7  O   LIG d   1       4.879  91.269 116.632  0.00  0.00    -0.368 OA
BRANCH   7   8
ATOM      8  C   LIG d   1       4.254  90.997 117.910  0.00  0.00     0.119 C 
BRANCH   8   9
ATOM      9  C   LIG d   1       2.756  91.336 117.774  0.00  0.00     0.028 C 
ATOM     10  C   LIG d   1       1.883  90.079 117.621  0.00  0.00     0.006 C 
ENDBRANCH   8   9
BRANCH   8  11
ATOM     11  C   LIG d   1       4.783  91.934 119.000  0.00  0.00     0.028 C 
ATOM     12  C   LIG d   1       5.966  92.793 118.524  0.00  0.00     0.006 C 
ENDBRANCH   8  11
ENDBRANCH   7   8
ENDBRANCH   1   7
BRANCH   6  13
ATOM     13  N   LIG d   1       7.183  89.517 117.472  0.00  0.00    -0.311 N 
ATOM     14  C   LIG d   1       7.533  89.360 118.748  0.00  0.00     0.210 C 
ATOM     15  C   LIG d   1       8.907  89.929 119.116  0.00  0.00     0.109 C 
ATOM     16  O   LIG d   1       6.850  88.774 119.601  0.00  0.00    -0.276 OA
ATOM     17  H   LIG d   1       7.812  89.975 116.842  0.00  0.00     0.149 HD
ENDBRANCH   6  13
BRANCH   5  18
ATOM     18  N   LIG d   1       6.348  86.591 117.199  0.00  0.00     0.381 N 
ATOM     19  H   LIG d   1       7.343  86.510 117.262  0.00  0.00    -0.090 HD
ATOM     20  H   LIG d   1       5.981  85.720 116.859  0.00  0.00    -0.090 HD
ATOM     21  H   LIG d   1       5.966  86.791 118.098  0.00  0.00    -0.090 HD
ENDBRANCH   5  18
BRANCH   3  22
ATOM     22  C   LIG d   1       3.323  87.930 113.736  0.00  0.00     0.382 C 
ATOM     23  O   LIG d   1       2.858  88.802 112.962  0.00  0.00    -0.241 OA
ATOM     24  O   LIG d   1       3.019  86.734 113.566  0.00  0.00    -0.241 OA
ENDBRANCH   3  22
TORSDOF 7
ENDMDL
MODEL 9
REMARK VINA RESULT:      -3.9      5.347      8.194
REMARK  7 active torsions:
REMARK  status: ('A' for Active; 'I' for Inactive)
REMARK    1  A    between atoms: C_2  and  C_3 
REMARK    2  A    between atoms: C_3  and  O_6 
REMARK    3  A    between atoms: C_3  and  C_4 
REMARK    4  A    between atoms: C_7  and  O_6 
REMARK    5  A    between atoms: C_9  and  C_10 
REMARK    6  A    between atoms: N_15  and  C_14 
REMARK    7  A    between atoms: N_20  and  C_19 
REMARK       I    between atoms: C_22  and  N_20 
ROOT
ATOM      1  C   LIG d   1       2.836  89.742 117.363  0.00  0.00     0.161 C 
ATOM      2  C   LIG d   1       1.512  89.277 117.292  0.00  0.00     0.016 C 
ATOM      3  C   LIG d   1       0.397  90.038 117.711  0.00  0.00     0.038 C 
ATOM      4  C   LIG d   1       0.517  91.383 118.091  0.00  0.00     0.028 C 
ATOM      5  C   LIG d   1       1.890  91.732 118.657  0.00  0.00    -0.047 C 
ATOM      6  C   LIG d   1       2.977  91.247 117.671  0.00  0.00     0.091 C 
ENDROOT
BRANCH   1   7
ATOM      7  O   LIG d   1       3.535  89.411 116.147  0.00  0.00    -0.368 OA
BRANCH   7   8
ATOM      8  C   LIG d   1       3.278  88.094 115.601  0.00  0.00     0.119 C 
BRANCH   8   9
ATOM      9  C   LIG d   1       4.440  87.178 116.033  0.00  0.00     0.028 C 
ATOM     10  C   LIG d   1       4.231  85.719 115.594  0.00  0.00     0.006 C 
ENDBRANCH   8   9
BRANCH   8  11
ATOM     11  C   LIG d   1       3.320  88.107 114.071  0.00  0.00     0.028 C 
ATOM     12  C   LIG d   1       4.547  88.846 113.514  0.00  0.00     0.006 C 
ENDBRANCH   8  11
ENDBRANCH   7   8
ENDBRANCH   1   7
BRANCH   6  13
ATOM     13  N   LIG d   1       4.352  91.474 118.187  0.00  0.00    -0.311 N 
ATOM     14  C   LIG d   1       5.051  92.583 117.951  0.00  0.00     0.210 C 
ATOM     15  C   LIG d   1       6.456  92.604 118.559  0.00  0.00     0.109 C 
ATOM     16  O   LIG d   1       4.628  93.564 117.322  0.00  0.00    -0.276 OA
ATOM     17  H   LIG d   1       4.761  90.741 118.734  0.00  0.00     0.149 HD
ENDBRANCH   6  13
BRANCH   5  18
ATOM     18  N   LIG d   1       1.922  93.189 118.883  0.00  0.00     0.381 N 
ATOM     19  H   LIG d   1       1.386  93.418 119.696  0.00  0.00    -0.090 HD
ATOM     20  H   LIG d   1       1.507  93.650 118.092  0.00  0.00    -0.090 HD
ATOM     21  H   LIG d   1       2.863  93.496 118.999  0.00  0.00    -0.090 HD
ENDBRANCH   5  18
BRANCH   3  22
ATOM     22  C   LIG d   1      -0.852  89.441 117.790  0.00  0.00     0.382 C 
ATOM     23  O   LIG d   1      -1.074  88.369 117.178  0.00  0.00    -0.241 OA
ATOM     24  O   LIG d   1      -1.773  89.983 118.430  0.00  0.00    -0.241 OA
ENDBRANCH   3  22
TORSDOF 7
ENDMDL
