MODEL 1
REMARK VINA RESULT:      -5.0      0.000      0.000
REMARK  7 active torsions:
REMARK  status: ('A' for Active; 'I' for Inactive)
REMARK    1  A    between atoms: C_2  and  C_3 
REMARK    2  A    between atoms: C_3  and  O_6 
REMARK    3  A    between atoms: C_3  and  C_4 
REMARK    4  A    between atoms: C_7  and  O_6 
REMARK    5  A    between atoms: C_9  and  C_10 
REMARK    6  A    between atoms: N_15  and  C_14 
REMARK    7  A    between atoms: N_20  and  C_19 
REMARK       I    between atoms: C_22  and  N_20 
ROOT
ATOM      1  C   LIG d   1       3.855  88.926 115.865  0.00  0.00     0.161 C 
ATOM      2  C   LIG d   1       4.614  89.707 116.753  0.00  0.00     0.016 C 
ATOM      3  C   LIG d   1       5.952  90.089 116.505  0.00  0.00     0.038 C 
ATOM      4  C   LIG d   1       6.578  89.841 115.274  0.00  0.00     0.028 C 
ATOM      5  C   LIG d   1       6.023  88.620 114.548  0.00  0.00    -0.047 C 
ATOM      6  C   LIG d   1       4.484  88.739 114.469  0.00  0.00     0.091 C 
ENDROOT
BRANCH   1   7
ATOM      7  O   LIG d   1       2.526  89.471 115.747  0.00  0.00    -0.368 OA
BRANCH   7   8
ATOM      8  C   LIG d   1       1.886  89.864 116.986  0.00  0.00     0.119 C 
BRANCH   8   9
ATOM      9  C   LIG d   1       0.721  88.887 117.236  0.00  0.00     0.028 C 
ATOM     10  C   LIG d   1      -0.589  89.614 117.584  0.00  0.00     0.006 C 
ENDBRANCH   8   9
BRANCH   8  11
ATOM     11  C   LIG d   1       1.239  91.246 116.865  0.00  0.00     0.028 C 
ATOM     12  C   LIG d   1       2.066  92.353 117.538  0.00  0.00     0.006 C 
ENDBRANCH   8  11
ENDBRANCH   7   8
ENDBRANCH   1   7
BRANCH   6  13
ATOM     13  N   LIG d   1       3.854  87.545 113.847  0.00  0.00    -0.311 N 
ATOM     14  C   LIG d   1       2.881  87.617 112.942  0.00  0.00     0.210 C 
ATOM     15  C   LIG d   1       2.358  86.266 112.444  0.00  0.00     0.109 C 
ATOM     16  O   LIG d   1       2.422  88.673 112.479  0.00  0.00    -0.276 OA
ATOM     17  H   LIG d   1       4.188  86.648 114.142  0.00  0.00     0.149 HD
ENDBRANCH   6  13
BRANCH   5  18
ATOM     18  N   LIG d   1       6.668  88.559 113.223  0.00  0.00     0.381 N 
ATOM     19  H   LIG d   1       5.972  88.445 112.513  0.00  0.00    -0.090 HD
ATOM     20  H   LIG d   1       7.280  87.762 113.195  0.00  0.00    -0.090 HD
ATOM     21  H   LIG d   1       7.188  89.392 113.058  0.00  0.00    -0.090 HD
ENDBRANCH   5  18
BRANCH   3  22
ATOM     22  C   LIG d   1       6.692  90.693 117.510  0.00  0.00     0.382 C 
ATOM     23  O   LIG d   1       6.149  90.975 118.605  0.00  0.00    -0.241 OA
ATOM     24  O   LIG d   1       7.884  91.001 117.319  0.00  0.00    -0.241 OA
ENDBRANCH   3  22
TORSDOF 7
ENDMDL
MODEL 2
REMARK VINA RESULT:      -4.7      3.505      6.868
REMARK  7 active torsions:
REMARK  status: ('A' for Active; 'I' for Inactive)
REMARK    1  A    between atoms: C_2  and  C_3 
REMARK    2  A    between atoms: C_3  and  O_6 
REMARK    3  A    between atoms: C_3  and  C_4 
REMARK    4  A    between atoms: C_7  and  O_6 
REMARK    5  A    between atoms: C_9  and  C_10 
REMARK    6  A    between atoms: N_15  and  C_14 
REMARK    7  A    between atoms: N_20  and  C_19 
REMARK       I    between atoms: C_22  and  N_20 
ROOT
ATOM      1  C   LIG d   1       1.050  90.038 117.429  0.00  0.00     0.161 C 
ATOM      2  C   LIG d   1      -0.337  89.818 117.394  0.00  0.00     0.016 C 
ATOM      3  C   LIG d   1      -1.290  90.812 117.715  0.00  0.00     0.038 C 
ATOM      4  C   LIG d   1      -0.922  92.146 117.946  0.00  0.00     0.028 C 
ATOM      5  C   LIG d   1       0.496  92.297 118.486  0.00  0.00    -0.047 C 
ATOM      6  C   LIG d   1       1.468  91.516 117.572  0.00  0.00     0.091 C 
ENDROOT
BRANCH   1   7
ATOM      7  O   LIG d   1       1.667  89.453 116.265  0.00  0.00    -0.368 OA
BRANCH   7   8
ATOM      8  C   LIG d   1       2.523  88.309 116.503  0.00  0.00     0.119 C 
BRANCH   8   9
ATOM      9  C   LIG d   1       3.955  88.710 116.100  0.00  0.00     0.028 C 
ATOM     10  C   LIG d   1       3.976  89.832 115.048  0.00  0.00     0.006 C 
ENDBRANCH   8   9
BRANCH   8  11
ATOM     11  C   LIG d   1       2.157  87.138 115.586  0.00  0.00     0.028 C 
ATOM     12  C   LIG d   1       0.747  86.589 115.856  0.00  0.00     0.006 C 
ENDBRANCH   8  11
ENDBRANCH   7   8
ENDBRANCH   1   7
BRANCH   6  13
ATOM     13  N   LIG d   1       2.866  91.542 118.076  0.00  0.00    -0.311 N 
ATOM     14  C   LIG d   1       3.746  92.486 117.746  0.00  0.00     0.210 C 
ATOM     15  C   LIG d   1       5.139  92.313 118.361  0.00  0.00     0.109 C 
ATOM     16  O   LIG d   1       3.497  93.466 117.029  0.00  0.00    -0.276 OA
ATOM     17  H   LIG d   1       3.143  90.801 118.689  0.00  0.00     0.149 HD
ENDBRANCH   6  13
BRANCH   5  18
ATOM     18  N   LIG d   1       0.797  93.740 118.551  0.00  0.00     0.381 N 
ATOM     19  H   LIG d   1       0.200  94.180 119.223  0.00  0.00    -0.090 HD
ATOM     20  H   LIG d   1       0.617  94.150 117.652  0.00  0.00    -0.090 HD
ATOM     21  H   LIG d   1       1.751  93.878 118.803  0.00  0.00    -0.090 HD
ENDBRANCH   5  18
BRANCH   3  22
ATOM     22  C   LIG d   1      -2.627  90.466 117.844  0.00  0.00     0.382 C 
ATOM     23  O   LIG d   1      -3.472  91.337 118.163  0.00  0.00    -0.241 OA
ATOM     24  O   LIG d   1      -2.991  89.285 117.691  0.00  0.00    -0.241 OA
ENDBRANCH   3  22
TORSDOF 7
ENDMDL
MODEL 3
REMARK VINA RESULT:      -4.6      3.035      6.043
REMARK  7 active torsions:
REMARK  status: ('A' for Active; 'I' for Inactive)
REMARK    1  A    between atoms: C_2  and  C_3 
REMARK    2  A    between atoms: C_3  and  O_6 
REMARK    3  A    between atoms: C_3  and  C_4 
REMARK    4  A    between atoms: C_7  and  O_6 
REMARK    5  A    between atoms: C_9  and  C_10 
REMARK    6  A    between atoms: N_15  and  C_14 
REMARK    7  A    between atoms: N_20  and  C_19 
REMARK       I    between atoms: C_22  and  N_20 
ROOT
ATOM      1  C   LIG d   1       1.275  88.902 116.910  0.00  0.00     0.161 C 
ATOM      2  C   LIG d   1      -0.065  88.946 117.330  0.00  0.00     0.016 C 
ATOM      3  C   LIG d   1      -0.717  90.135 117.728  0.00  0.00     0.038 C 
ATOM      4  C   LIG d   1      -0.113  91.394 117.590  0.00  0.00     0.028 C 
ATOM      5  C   LIG d   1       1.410  91.345 117.647  0.00  0.00    -0.047 C 
ATOM      6  C   LIG d   1       1.916  90.281 116.646  0.00  0.00     0.091 C 
ENDROOT
BRANCH   1   7
ATOM      7  O   LIG d   1       1.395  88.063 115.744  0.00  0.00    -0.368 OA
BRANCH   7   8
ATOM      8  C   LIG d   1       1.760  86.682 115.988  0.00  0.00     0.119 C 
BRANCH   8   9
ATOM      9  C   LIG d   1       3.224  86.505 115.542  0.00  0.00     0.028 C 
ATOM     10  C   LIG d   1       3.416  86.766 114.039  0.00  0.00     0.006 C 
ENDBRANCH   8   9
BRANCH   8  11
ATOM     11  C   LIG d   1       0.949  85.728 115.106  0.00  0.00     0.028 C 
ATOM     12  C   LIG d   1      -0.568  85.909 115.270  0.00  0.00     0.006 C 
ENDBRANCH   8  11
ENDBRANCH   7   8
ENDBRANCH   1   7
BRANCH   6  13
ATOM     13  N   LIG d   1       3.391  90.109 116.699  0.00  0.00    -0.311 N 
ATOM     14  C   LIG d   1       4.168  90.106 115.617  0.00  0.00     0.210 C 
ATOM     15  C   LIG d   1       5.660  89.894 115.893  0.00  0.00     0.109 C 
ATOM     16  O   LIG d   1       3.767  90.291 114.458  0.00  0.00    -0.276 OA
ATOM     17  H   LIG d   1       3.804  89.985 117.603  0.00  0.00     0.149 HD
ENDBRANCH   6  13
BRANCH   5  18
ATOM     18  N   LIG d   1       1.911  92.701 117.351  0.00  0.00     0.381 N 
ATOM     19  H   LIG d   1       1.549  93.012 116.472  0.00  0.00    -0.090 HD
ATOM     20  H   LIG d   1       2.913  92.670 117.287  0.00  0.00    -0.090 HD
ATOM     21  H   LIG d   1       1.636  93.331 118.073  0.00  0.00    -0.090 HD
ENDBRANCH   5  18
BRANCH   3  22
ATOM     22  C   LIG d   1      -1.973  90.068 118.311  0.00  0.00     0.382 C 
ATOM     23  O   LIG d   1      -2.196  90.663 119.392  0.00  0.00    -0.241 OA
ATOM     24  O   LIG d   1      -2.875  89.383 117.791  0.00  0.00    -0.241 OA
ENDBRANCH   3  22
TORSDOF 7
ENDMDL
MODEL 4
REMARK VINA RESULT:      -4.5      1.898      4.897
REMARK  7 active torsions:
REMARK  status: ('A' for Active; 'I' for Inactive)
REMARK    1  A    between atoms: C_2  and  C_3 
REMARK    2  A    between atoms: C_3  and  O_6 
REMARK    3  A    between atoms: C_3  and  C_4 
REMARK    4  A    between atoms: C_7  and  O_6 
REMARK    5  A    between atoms: C_9  and  C_10 
REMARK    6  A    between atoms: N_15  and  C_14 
REMARK    7  A    between atoms: N_20  and  C_19 
REMARK       I    between atoms: C_22  and  N_20 
ROOT
ATOM      1  C   LIG d   1       3.938  90.612 116.236  0.00  0.00     0.161 C 
ATOM      2  C   LIG d   1       3.459  89.926 115.107  0.00  0.00     0.016 C 
ATOM      3  C   LIG d   1       4.218  88.964 114.402  0.00  0.00     0.038 C 
ATOM      4  C   LIG d   1       5.460  88.509 114.871  0.00  0.00     0.028 C 
ATOM      5  C   LIG d   1       6.198  89.537 115.722  0.00  0.00    -0.047 C 
ATOM      6  C   LIG d   1       5.247  90.049 116.828  0.00  0.00     0.091 C 
ENDROOT
BRANCH   1   7
ATOM      7  O   LIG d   1       2.912  90.663 117.247  0.00  0.00    -0.368 OA
BRANCH   7   8
ATOM      8  C   LIG d   1       2.026  91.809 117.199  0.00  0.00     0.119 C 
BRANCH   8   9
ATOM      9  C   LIG d   1       2.127  92.530 118.557  0.00  0.00     0.028 C 
ATOM     10  C   LIG d   1       1.058  93.622 118.722  0.00  0.00     0.006 C 
ENDBRANCH   8   9
BRANCH   8  11
ATOM     11  C   LIG d   1       0.562  91.376 117.077  0.00  0.00     0.028 C 
ATOM     12  C   LIG d   1       0.348  89.894 117.423  0.00  0.00     0.006 C 
ENDBRANCH   8  11
ENDBRANCH   7   8
ENDBRANCH   1   7
BRANCH   6  13
ATOM     13  N   LIG d   1       5.864  91.119 117.654  0.00  0.00    -0.311 N 
ATOM     14  C   LIG d   1       5.797  91.149 118.984  0.00  0.00     0.210 C 
ATOM     15  C   LIG d   1       6.483  92.351 119.640  0.00  0.00     0.109 C 
ATOM     16  O   LIG d   1       5.262  90.276 119.685  0.00  0.00    -0.276 OA
ATOM     17  H   LIG d   1       6.344  91.851 117.169  0.00  0.00     0.149 HD
ENDBRANCH   6  13
BRANCH   5  18
ATOM     18  N   LIG d   1       7.409  88.885 116.257  0.00  0.00     0.381 N 
ATOM     19  H   LIG d   1       8.191  89.086 115.667  0.00  0.00    -0.090 HD
ATOM     20  H   LIG d   1       7.266  87.890 116.264  0.00  0.00    -0.090 HD
ATOM     21  H   LIG d   1       7.589  89.208 117.182  0.00  0.00    -0.090 HD
ENDBRANCH   5  18
BRANCH   3  22
ATOM     22  C   LIG d   1       3.753  88.475 113.191  0.00  0.00     0.382 C 
ATOM     23  O   LIG d   1       2.601  88.776 112.794  0.00  0.00    -0.241 OA
ATOM     24  O   LIG d   1       4.452  87.700 112.511  0.00  0.00    -0.241 OA
ENDBRANCH   3  22
TORSDOF 7
ENDMDL
MODEL 5
REMARK VINA RESULT:      -4.5      1.322      2.200
REMARK  7 active torsions:
REMARK  status: ('A' for Active; 'I' for Inactive)
REMARK    1  A    between atoms: C_2  and  C_3 
REMARK    2  A    between atoms: C_3  and  O_6 
REMARK    3  A    between atoms: C_3  and  C_4 
REMARK    4  A    between atoms: C_7  and  O_6 
REMARK    5  A    between atoms: C_9  and  C_10 
REMARK    6  A    between atoms: N_15  and  C_14 
REMARK    7  A    between atoms: N_20  and  C_19 
REMARK       I    between atoms: C_22  and  N_20 
ROOT
ATOM      1  C   LIG d   1       4.764  87.761 116.426  0.00  0.00     0.161 C 
ATOM      2  C   LIG d   1       5.734  88.373 117.239  0.00  0.00     0.016 C 
ATOM      3  C   LIG d   1       6.664  89.323 116.759  0.00  0.00     0.038 C 
ATOM      4  C   LIG d   1       6.590  89.842 115.458  0.00  0.00     0.028 C 
ATOM      5  C   LIG d   1       5.948  88.884 114.460  0.00  0.00    -0.047 C 
ATOM      6  C   LIG d   1       4.597  88.397 115.030  0.00  0.00     0.091 C 
ENDROOT
BRANCH   1   7
ATOM      7  O   LIG d   1       3.499  87.727 117.116  0.00  0.00    -0.368 OA
BRANCH   7   8
ATOM      8  C   LIG d   1       2.566  88.785 116.789  0.00  0.00     0.119 C 
BRANCH   8   9
ATOM      9  C   LIG d   1       2.726  89.889 117.852  0.00  0.00     0.028 C 
ATOM     10  C   LIG d   1       3.254  91.205 117.257  0.00  0.00     0.006 C 
ENDBRANCH   8   9
BRANCH   8  11
ATOM     11  C   LIG d   1       1.116  88.308 116.916  0.00  0.00     0.028 C 
ATOM     12  C   LIG d   1       0.871  86.958 116.224  0.00  0.00     0.006 C 
ENDBRANCH   8  11
ENDBRANCH   7   8
ENDBRANCH   1   7
BRANCH   6  13
ATOM     13  N   LIG d   1       3.941  87.391 114.154  0.00  0.00    -0.311 N 
ATOM     14  C   LIG d   1       3.054  87.707 113.212  0.00  0.00     0.210 C 
ATOM     15  C   LIG d   1       2.485  86.515 112.435  0.00  0.00     0.109 C 
ATOM     16  O   LIG d   1       2.709  88.862 112.924  0.00  0.00    -0.276 OA
ATOM     17  H   LIG d   1       4.187  86.431 114.298  0.00  0.00     0.149 HD
ENDBRANCH   6  13
BRANCH   5  18
ATOM     18  N   LIG d   1       5.809  89.603 113.179  0.00  0.00     0.381 N 
ATOM     19  H   LIG d   1       6.173  90.530 113.270  0.00  0.00    -0.090 HD
ATOM     20  H   LIG d   1       4.834  89.668 112.946  0.00  0.00    -0.090 HD
ATOM     21  H   LIG d   1       6.298  89.116 112.460  0.00  0.00    -0.090 HD
ENDBRANCH   5  18
BRANCH   3  22
ATOM     22  C   LIG d   1       7.708  89.734 117.574  0.00  0.00     0.382 C 
ATOM     23  O   LIG d   1       8.875  89.331 117.349  0.00  0.00    -0.241 OA
ATOM     24  O   LIG d   1       7.491  90.468 118.556  0.00  0.00    -0.241 OA
ENDBRANCH   3  22
TORSDOF 7
ENDMDL
MODEL 6
REMARK VINA RESULT:      -4.4      4.268      7.639
REMARK  7 active torsions:
REMARK  status: ('A' for Active; 'I' for Inactive)
REMARK    1  A    between atoms: C_2  and  C_3 
REMARK    2  A    between atoms: C_3  and  O_6 
REMARK    3  A    between atoms: C_3  and  C_4 
REMARK    4  A    between atoms: C_7  and  O_6 
REMARK    5  A    between atoms: C_9  and  C_10 
REMARK    6  A    between atoms: N_15  and  C_14 
REMARK    7  A    between atoms: N_20  and  C_19 
REMARK       I    between atoms: C_22  and  N_20 
ROOT
ATOM      1  C   LIG d   1       0.016  91.140 118.184  0.00  0.00     0.161 C 
ATOM      2  C   LIG d   1      -1.367  90.962 118.010  0.00  0.00     0.016 C 
ATOM      3  C   LIG d   1      -2.301  92.022 118.067  0.00  0.00     0.038 C 
ATOM      4  C   LIG d   1      -1.898  93.362 118.152  0.00  0.00     0.028 C 
ATOM      5  C   LIG d   1      -0.547  93.546 118.836  0.00  0.00    -0.047 C 
ATOM      6  C   LIG d   1       0.485  92.610 118.167  0.00  0.00     0.091 C 
ENDROOT
BRANCH   1   7
ATOM      7  O   LIG d   1       0.735  90.373 117.198  0.00  0.00    -0.368 OA
BRANCH   7   8
ATOM      8  C   LIG d   1       1.422  89.194 117.686  0.00  0.00     0.119 C 
BRANCH   8   9
ATOM      9  C   LIG d   1       2.908  89.332 117.300  0.00  0.00     0.028 C 
ATOM     10  C   LIG d   1       3.096  89.860 115.868  0.00  0.00     0.006 C 
ENDBRANCH   8   9
BRANCH   8  11
ATOM     11  C   LIG d   1       0.934  87.930 116.972  0.00  0.00     0.028 C 
ATOM     12  C   LIG d   1       1.715  86.673 117.387  0.00  0.00     0.006 C 
ENDBRANCH   8  11
ENDBRANCH   7   8
ENDBRANCH   1   7
BRANCH   6  13
ATOM     13  N   LIG d   1       1.814  92.665 118.830  0.00  0.00    -0.311 N 
ATOM     14  C   LIG d   1       2.947  92.933 118.182  0.00  0.00     0.210 C 
ATOM     15  C   LIG d   1       4.208  92.921 119.052  0.00  0.00     0.109 C 
ATOM     16  O   LIG d   1       3.022  93.212 116.976  0.00  0.00    -0.276 OA
ATOM     17  H   LIG d   1       1.841  92.483 119.814  0.00  0.00     0.149 HD
ENDBRANCH   6  13
BRANCH   5  18
ATOM     18  N   LIG d   1      -0.186  94.973 118.733  0.00  0.00     0.381 N 
ATOM     19  H   LIG d   1       0.216  95.156 117.836  0.00  0.00    -0.090 HD
ATOM     20  H   LIG d   1       0.500  95.186 119.436  0.00  0.00    -0.090 HD
ATOM     21  H   LIG d   1      -0.994  95.539 118.865  0.00  0.00    -0.090 HD
ENDBRANCH   5  18
BRANCH   3  22
ATOM     22  C   LIG d   1      -3.659  91.740 118.079  0.00  0.00     0.382 C 
ATOM     23  O   LIG d   1      -4.121  90.849 117.328  0.00  0.00    -0.241 OA
ATOM     24  O   LIG d   1      -4.434  92.398 118.800  0.00  0.00    -0.241 OA
ENDBRANCH   3  22
TORSDOF 7
ENDMDL
MODEL 7
REMARK VINA RESULT:      -4.3      7.608     10.302
REMARK  7 active torsions:
REMARK  status: ('A' for Active; 'I' for Inactive)
REMARK    1  A    between atoms: C_2  and  C_3 
REMARK    2  A    between atoms: C_3  and  O_6 
REMARK    3  A    between atoms: C_3  and  C_4 
REMARK    4  A    between atoms: C_7  and  O_6 
REMARK    5  A    between atoms: C_9  and  C_10 
REMARK    6  A    between atoms: N_15  and  C_14 
REMARK    7  A    between atoms: N_20  and  C_19 
REMARK       I    between atoms: C_22  and  N_20 
ROOT
ATOM      1  C   LIG d   1      -4.359  92.717 118.460  0.00  0.00     0.161 C 
ATOM      2  C   LIG d   1      -5.058  92.021 117.459  0.00  0.00     0.016 C 
ATOM      3  C   LIG d   1      -4.613  90.799 116.906  0.00  0.00     0.038 C 
ATOM      4  C   LIG d   1      -3.507  90.109 117.425  0.00  0.00     0.028 C 
ATOM      5  C   LIG d   1      -2.484  91.020 118.094  0.00  0.00    -0.047 C 
ATOM      6  C   LIG d   1      -3.210  91.924 119.117  0.00  0.00     0.091 C 
ENDROOT
BRANCH   1   7
ATOM      7  O   LIG d   1      -5.281  93.187 119.463  0.00  0.00    -0.368 OA
BRANCH   7   8
ATOM      8  C   LIG d   1      -5.855  94.498 119.237  0.00  0.00     0.119 C 
BRANCH   8   9
ATOM      9  C   LIG d   1      -4.940  95.529 119.927  0.00  0.00     0.028 C 
ATOM     10  C   LIG d   1      -5.206  96.965 119.446  0.00  0.00     0.006 C 
ENDBRANCH   8   9
BRANCH   8  11
ATOM     11  C   LIG d   1      -7.215  94.638 119.926  0.00  0.00     0.028 C 
ATOM     12  C   LIG d   1      -8.359  94.916 118.937  0.00  0.00     0.006 C 
ENDBRANCH   8  11
ENDBRANCH   7   8
ENDBRANCH   1   7
BRANCH   6  13
ATOM     13  N   LIG d   1      -2.295  92.905 119.756  0.00  0.00    -0.311 N 
ATOM     14  C   LIG d   1      -1.590  93.804 119.072  0.00  0.00     0.210 C 
ATOM     15  C   LIG d   1      -0.693  94.707 119.924  0.00  0.00     0.109 C 
ATOM     16  O   LIG d   1      -1.647  93.961 117.843  0.00  0.00    -0.276 OA
ATOM     17  H   LIG d   1      -2.213  92.869 120.753  0.00  0.00     0.149 HD
ENDBRANCH   6  13
BRANCH   5  18
ATOM     18  N   LIG d   1      -1.456  90.160 118.711  0.00  0.00     0.381 N 
ATOM     19  H   LIG d   1      -0.548  90.446 118.405  0.00  0.00    -0.090 HD
ATOM     20  H   LIG d   1      -1.605  89.212 118.413  0.00  0.00    -0.090 HD
ATOM     21  H   LIG d   1      -1.515  90.217 119.704  0.00  0.00    -0.090 HD
ENDBRANCH   5  18
BRANCH   3  22
ATOM     22  C   LIG d   1      -5.253  90.274 115.793  0.00  0.00     0.382 C 
ATOM     23  O   LIG d   1      -5.178  89.046 115.548  0.00  0.00    -0.241 OA
ATOM     24  O   LIG d   1      -5.866  91.021 115.007  0.00  0.00    -0.241 OA
ENDBRANCH   3  22
TORSDOF 7
ENDMDL
MODEL 8
REMARK VINA RESULT:      -4.3      2.573      5.202
REMARK  7 active torsions:
REMARK  status: ('A' for Active; 'I' for Inactive)
REMARK    1  A    between atoms: C_2  and  C_3 
REMARK    2  A    between atoms: C_3  and  O_6 
REMARK    3  A    between atoms: C_3  and  C_4 
REMARK    4  A    between atoms: C_7  and  O_6 
REMARK    5  A    between atoms: C_9  and  C_10 
REMARK    6  A    between atoms: N_15  and  C_14 
REMARK    7  A    between atoms: N_20  and  C_19 
REMARK       I    between atoms: C_22  and  N_20 
ROOT
ATOM      1  C   LIG d   1       3.569  90.032 116.019  0.00  0.00     0.161 C 
ATOM      2  C   LIG d   1       2.445  90.831 116.287  0.00  0.00     0.016 C 
ATOM      3  C   LIG d   1       2.359  91.709 117.392  0.00  0.00     0.038 C 
ATOM      4  C   LIG d   1       3.459  91.961 118.225  0.00  0.00     0.028 C 
ATOM      5  C   LIG d   1       4.447  90.801 118.292  0.00  0.00    -0.047 C 
ATOM      6  C   LIG d   1       4.820  90.376 116.854  0.00  0.00     0.091 C 
ENDROOT
BRANCH   1   7
ATOM      7  O   LIG d   1       3.877  90.077 114.612  0.00  0.00    -0.368 OA
BRANCH   7   8
ATOM      8  C   LIG d   1       3.632  88.859 113.866  0.00  0.00     0.119 C 
BRANCH   8   9
ATOM      9  C   LIG d   1       3.166  87.787 114.871  0.00  0.00     0.028 C 
ATOM     10  C   LIG d   1       4.071  86.543 114.862  0.00  0.00     0.006 C 
ENDBRANCH   8   9
BRANCH   8  11
ATOM     11  C   LIG d   1       4.925  88.310 113.257  0.00  0.00     0.028 C 
ATOM     12  C   LIG d   1       6.080  89.323 113.296  0.00  0.00     0.006 C 
ENDBRANCH   8  11
ENDBRANCH   7   8
ENDBRANCH   1   7
BRANCH   6  13
ATOM     13  N   LIG d   1       5.718  89.192 116.828  0.00  0.00    -0.311 N 
ATOM     14  C   LIG d   1       7.045  89.279 116.760  0.00  0.00     0.210 C 
ATOM     15  C   LIG d   1       7.781  87.936 116.724  0.00  0.00     0.109 C 
ATOM     16  O   LIG d   1       7.685  90.342 116.759  0.00  0.00    -0.276 OA
ATOM     17  H   LIG d   1       5.284  88.290 116.857  0.00  0.00     0.149 HD
ENDBRANCH   6  13
BRANCH   5  18
ATOM     18  N   LIG d   1       5.609  91.250 119.082  0.00  0.00     0.381 N 
ATOM     19  H   LIG d   1       5.764  90.621 119.845  0.00  0.00    -0.090 HD
ATOM     20  H   LIG d   1       5.413  92.161 119.460  0.00  0.00    -0.090 HD
ATOM     21  H   LIG d   1       6.420  91.290 118.505  0.00  0.00    -0.090 HD
ENDBRANCH   5  18
BRANCH   3  22
ATOM     22  C   LIG d   1       1.150  92.316 117.695  0.00  0.00     0.382 C 
ATOM     23  O   LIG d   1       1.129  93.354 118.400  0.00  0.00    -0.241 OA
ATOM     24  O   LIG d   1       0.077  91.813 117.311  0.00  0.00    -0.241 OA
ENDBRANCH   3  22
TORSDOF 7
ENDMDL
MODEL 9
REMARK VINA RESULT:      -4.2      2.035      4.907
REMARK  7 active torsions:
REMARK  status: ('A' for Active; 'I' for Inactive)
REMARK    1  A    between atoms: C_2  and  C_3 
REMARK    2  A    between atoms: C_3  and  O_6 
REMARK    3  A    between atoms: C_3  and  C_4 
REMARK    4  A    between atoms: C_7  and  O_6 
REMARK    5  A    between atoms: C_9  and  C_10 
REMARK    6  A    between atoms: N_15  and  C_14 
REMARK    7  A    between atoms: N_20  and  C_19 
REMARK       I    between atoms: C_22  and  N_20 
ROOT
ATOM      1  C   LIG d   1       3.966  90.587 116.441  0.00  0.00     0.161 C 
ATOM      2  C   LIG d   1       3.562  89.957 115.251  0.00  0.00     0.016 C 
ATOM      3  C   LIG d   1       4.399  89.098 114.503  0.00  0.00     0.038 C 
ATOM      4  C   LIG d   1       5.655  88.688 114.976  0.00  0.00     0.028 C 
ATOM      5  C   LIG d   1       6.303  89.694 115.921  0.00  0.00    -0.047 C 
ATOM      6  C   LIG d   1       5.293  90.064 117.031  0.00  0.00     0.091 C 
ENDROOT
BRANCH   1   7
ATOM      7  O   LIG d   1       2.913  90.500 117.421  0.00  0.00    -0.368 OA
BRANCH   7   8
ATOM      8  C   LIG d   1       1.891  89.504 117.172  0.00  0.00     0.119 C 
BRANCH   8   9
ATOM      9  C   LIG d   1       0.523  90.186 117.369  0.00  0.00     0.028 C 
ATOM     10  C   LIG d   1       0.629  91.720 117.383  0.00  0.00     0.006 C 
ENDBRANCH   8   9
BRANCH   8  11
ATOM     11  C   LIG d   1       1.939  88.384 118.215  0.00  0.00     0.028 C 
ATOM     12  C   LIG d   1       2.634  87.115 117.696  0.00  0.00     0.006 C 
ENDBRANCH   8  11
ENDBRANCH   7   8
ENDBRANCH   1   7
BRANCH   6  13
ATOM     13  N   LIG d   1       5.817  91.107 117.951  0.00  0.00    -0.311 N 
ATOM     14  C   LIG d   1       6.440  90.829 119.095  0.00  0.00     0.210 C 
ATOM     15  C   LIG d   1       6.883  92.052 119.903  0.00  0.00     0.109 C 
ATOM     16  O   LIG d   1       6.695  89.686 119.502  0.00  0.00    -0.276 OA
ATOM     17  H   LIG d   1       5.681  92.062 117.683  0.00  0.00     0.149 HD
ENDBRANCH   6  13
BRANCH   5  18
ATOM     18  N   LIG d   1       7.538  89.081 116.445  0.00  0.00     0.381 N 
ATOM     19  H   LIG d   1       8.221  89.791 116.621  0.00  0.00    -0.090 HD
ATOM     20  H   LIG d   1       7.908  88.452 115.754  0.00  0.00    -0.090 HD
ATOM     21  H   LIG d   1       7.342  88.583 117.286  0.00  0.00    -0.090 HD
ENDBRANCH   5  18
BRANCH   3  22
ATOM     22  C   LIG d   1       3.998  88.671 113.246  0.00  0.00     0.382 C 
ATOM     23  O   LIG d   1       2.811  88.838 112.877  0.00  0.00    -0.241 OA
ATOM     24  O   LIG d   1       4.797  88.082 112.494  0.00  0.00    -0.241 OA
ENDBRANCH   3  22
TORSDOF 7
ENDMDL
