MODEL 1
REMARK VINA RESULT:      -5.7      0.000      0.000
REMARK  7 active torsions:
REMARK  status: ('A' for Active; 'I' for Inactive)
REMARK    1  A    between atoms: C_2  and  C_3 
REMARK    2  A    between atoms: C_3  and  O_6 
REMARK    3  A    between atoms: C_3  and  C_4 
REMARK    4  A    between atoms: C_7  and  O_6 
REMARK    5  A    between atoms: C_9  and  C_10 
REMARK    6  A    between atoms: N_15  and  C_14 
REMARK    7  A    between atoms: N_20  and  C_19 
REMARK       I    between atoms: C_22  and  N_20 
ROOT
ATOM      1  C   LIG d   1      -6.721  92.627 118.003  0.00  0.00     0.161 C 
ATOM      2  C   LIG d   1      -5.679  93.336 118.622  0.00  0.00     0.016 C 
ATOM      3  C   LIG d   1      -4.311  93.037 118.429  0.00  0.00     0.038 C 
ATOM      4  C   LIG d   1      -3.885  92.098 117.478  0.00  0.00     0.028 C 
ATOM      5  C   LIG d   1      -4.914  91.008 117.199  0.00  0.00    -0.047 C 
ATOM      6  C   LIG d   1      -6.272  91.672 116.877  0.00  0.00     0.091 C 
ENDROOT
BRANCH   1   7
ATOM      7  O   LIG d   1      -7.715  93.548 117.512  0.00  0.00    -0.368 OA
BRANCH   7   8
ATOM      8  C   LIG d   1      -8.044  94.655 118.386  0.00  0.00     0.119 C 
BRANCH   8   9
ATOM      9  C   LIG d   1      -9.083  94.148 119.405  0.00  0.00     0.028 C 
ATOM     10  C   LIG d   1     -10.019  95.266 119.895  0.00  0.00     0.006 C 
ENDBRANCH   8   9
BRANCH   8  11
ATOM     11  C   LIG d   1      -8.744  95.781 117.619  0.00  0.00     0.028 C 
ATOM     12  C   LIG d   1      -7.865  97.032 117.462  0.00  0.00     0.006 C 
ENDBRANCH   8  11
ENDBRANCH   7   8
ENDBRANCH   1   7
BRANCH   6  13
ATOM     13  N   LIG d   1      -7.356  90.675 116.674  0.00  0.00    -0.311 N 
ATOM     14  C   LIG d   1      -7.634  90.123 115.494  0.00  0.00     0.210 C 
ATOM     15  C   LIG d   1      -8.804  89.135 115.501  0.00  0.00     0.109 C 
ATOM     16  O   LIG d   1      -7.001  90.335 114.448  0.00  0.00    -0.276 OA
ATOM     17  H   LIG d   1      -7.900  90.423 117.476  0.00  0.00     0.149 HD
ENDBRANCH   6  13
BRANCH   5  18
ATOM     18  N   LIG d   1      -4.398  90.180 116.093  0.00  0.00     0.381 N 
ATOM     19  H   LIG d   1      -3.402  90.115 116.155  0.00  0.00    -0.090 HD
ATOM     20  H   LIG d   1      -4.632  90.620 115.221  0.00  0.00    -0.090 HD
ATOM     21  H   LIG d   1      -4.800  89.269 116.133  0.00  0.00    -0.090 HD
ENDBRANCH   5  18
BRANCH   3  22
ATOM     22  C   LIG d   1      -3.354  93.653 119.221  0.00  0.00     0.382 C 
ATOM     23  O   LIG d   1      -3.225  94.901 119.193  0.00  0.00    -0.241 OA
ATOM     24  O   LIG d   1      -2.587  92.973 119.930  0.00  0.00    -0.241 OA
ENDBRANCH   3  22
TORSDOF 7
ENDMDL
MODEL 2
REMARK VINA RESULT:      -5.3      2.259      5.339
REMARK  7 active torsions:
REMARK  status: ('A' for Active; 'I' for Inactive)
REMARK    1  A    between atoms: C_2  and  C_3 
REMARK    2  A    between atoms: C_3  and  O_6 
REMARK    3  A    between atoms: C_3  and  C_4 
REMARK    4  A    between atoms: C_7  and  O_6 
REMARK    5  A    between atoms: C_9  and  C_10 
REMARK    6  A    between atoms: N_15  and  C_14 
REMARK    7  A    between atoms: N_20  and  C_19 
REMARK       I    between atoms: C_22  and  N_20 
ROOT
ATOM      1  C   LIG d   1      -5.700  92.093 117.885  0.00  0.00     0.161 C 
ATOM      2  C   LIG d   1      -7.017  92.394 118.270  0.00  0.00     0.016 C 
ATOM      3  C   LIG d   1      -7.430  93.678 118.694  0.00  0.00     0.038 C 
ATOM      4  C   LIG d   1      -6.581  94.792 118.617  0.00  0.00     0.028 C 
ATOM      5  C   LIG d   1      -5.102  94.435 118.713  0.00  0.00    -0.047 C 
ATOM      6  C   LIG d   1      -4.787  93.321 117.689  0.00  0.00     0.091 C 
ENDROOT
BRANCH   1   7
ATOM      7  O   LIG d   1      -5.713  91.282 116.693  0.00  0.00    -0.368 OA
BRANCH   7   8
ATOM      8  C   LIG d   1      -6.949  91.278 115.938  0.00  0.00     0.119 C 
BRANCH   8   9
ATOM      9  C   LIG d   1      -7.135  89.861 115.362  0.00  0.00     0.028 C 
ATOM     10  C   LIG d   1      -8.499  89.252 115.730  0.00  0.00     0.006 C 
ENDBRANCH   8   9
BRANCH   8  11
ATOM     11  C   LIG d   1      -6.861  92.203 114.720  0.00  0.00     0.028 C 
ATOM     12  C   LIG d   1      -7.284  91.511 113.415  0.00  0.00     0.006 C 
ENDBRANCH   8  11
ENDBRANCH   7   8
ENDBRANCH   1   7
BRANCH   6  13
ATOM     13  N   LIG d   1      -3.379  92.853 117.775  0.00  0.00    -0.311 N 
ATOM     14  C   LIG d   1      -2.848  92.323 118.876  0.00  0.00     0.210 C 
ATOM     15  C   LIG d   1      -1.374  91.925 118.756  0.00  0.00     0.109 C 
ATOM     16  O   LIG d   1      -3.468  92.116 119.930  0.00  0.00    -0.276 OA
ATOM     17  H   LIG d   1      -2.814  92.954 116.955  0.00  0.00     0.149 HD
ENDBRANCH   6  13
BRANCH   5  18
ATOM     18  N   LIG d   1      -4.328  95.669 118.481  0.00  0.00     0.381 N 
ATOM     19  H   LIG d   1      -4.943  96.404 118.193  0.00  0.00    -0.090 HD
ATOM     20  H   LIG d   1      -3.667  95.504 117.743  0.00  0.00    -0.090 HD
ATOM     21  H   LIG d   1      -3.849  95.933 119.313  0.00  0.00    -0.090 HD
ENDBRANCH   5  18
BRANCH   3  22
ATOM     22  C   LIG d   1      -8.693  93.849 119.240  0.00  0.00     0.382 C 
ATOM     23  O   LIG d   1      -9.271  94.958 119.146  0.00  0.00    -0.241 OA
ATOM     24  O   LIG d   1      -9.243  92.921 119.862  0.00  0.00    -0.241 OA
ENDBRANCH   3  22
TORSDOF 7
ENDMDL
MODEL 3
REMARK VINA RESULT:      -5.3      2.037      5.117
REMARK  7 active torsions:
REMARK  status: ('A' for Active; 'I' for Inactive)
REMARK    1  A    between atoms: C_2  and  C_3 
REMARK    2  A    between atoms: C_3  and  O_6 
REMARK    3  A    between atoms: C_3  and  C_4 
REMARK    4  A    between atoms: C_7  and  O_6 
REMARK    5  A    between atoms: C_9  and  C_10 
REMARK    6  A    between atoms: N_15  and  C_14 
REMARK    7  A    between atoms: N_20  and  C_19 
REMARK       I    between atoms: C_22  and  N_20 
ROOT
ATOM      1  C   LIG d   1      -5.974  91.896 116.905  0.00  0.00     0.161 C 
ATOM      2  C   LIG d   1      -6.827  93.011 116.957  0.00  0.00     0.016 C 
ATOM      3  C   LIG d   1      -6.612  94.115 117.813  0.00  0.00     0.038 C 
ATOM      4  C   LIG d   1      -5.439  94.249 118.570  0.00  0.00     0.028 C 
ATOM      5  C   LIG d   1      -4.794  92.915 118.929  0.00  0.00    -0.047 C 
ATOM      6  C   LIG d   1      -4.630  92.074 117.642  0.00  0.00     0.091 C 
ENDROOT
BRANCH   1   7
ATOM      7  O   LIG d   1      -5.746  91.519 115.532  0.00  0.00    -0.368 OA
BRANCH   7   8
ATOM      8  C   LIG d   1      -6.441  90.334 115.073  0.00  0.00     0.119 C 
BRANCH   8   9
ATOM      9  C   LIG d   1      -7.202  90.713 113.787  0.00  0.00     0.028 C 
ATOM     10  C   LIG d   1      -7.470  92.224 113.688  0.00  0.00     0.006 C 
ENDBRANCH   8   9
BRANCH   8  11
ATOM     11  C   LIG d   1      -7.520  89.899 116.069  0.00  0.00     0.028 C 
ATOM     12  C   LIG d   1      -8.730  89.240 115.387  0.00  0.00     0.006 C 
ENDBRANCH   8  11
ENDBRANCH   7   8
ENDBRANCH   1   7
BRANCH   6  13
ATOM     13  N   LIG d   1      -4.084  90.719 117.916  0.00  0.00    -0.311 N 
ATOM     14  C   LIG d   1      -2.781  90.460 118.011  0.00  0.00     0.210 C 
ATOM     15  C   LIG d   1      -2.432  88.992 118.277  0.00  0.00     0.109 C 
ATOM     16  O   LIG d   1      -1.883  91.311 117.931  0.00  0.00    -0.276 OA
ATOM     17  H   LIG d   1      -4.744  89.975 118.025  0.00  0.00     0.149 HD
ENDBRANCH   6  13
BRANCH   5  18
ATOM     18  N   LIG d   1      -3.511  93.205 119.597  0.00  0.00     0.381 N 
ATOM     19  H   LIG d   1      -3.439  94.186 119.780  0.00  0.00    -0.090 HD
ATOM     20  H   LIG d   1      -2.759  92.942 118.985  0.00  0.00    -0.090 HD
ATOM     21  H   LIG d   1      -3.448  92.695 120.450  0.00  0.00    -0.090 HD
ENDBRANCH   5  18
BRANCH   3  22
ATOM     22  C   LIG d   1      -7.596  95.083 117.947  0.00  0.00     0.382 C 
ATOM     23  O   LIG d   1      -8.780  94.821 117.624  0.00  0.00    -0.241 OA
ATOM     24  O   LIG d   1      -7.307  96.227 118.345  0.00  0.00    -0.241 OA
ENDBRANCH   3  22
TORSDOF 7
ENDMDL
MODEL 4
REMARK VINA RESULT:      -5.1      1.903      4.911
REMARK  7 active torsions:
REMARK  status: ('A' for Active; 'I' for Inactive)
REMARK    1  A    between atoms: C_2  and  C_3 
REMARK    2  A    between atoms: C_3  and  O_6 
REMARK    3  A    between atoms: C_3  and  C_4 
REMARK    4  A    between atoms: C_7  and  O_6 
REMARK    5  A    between atoms: C_9  and  C_10 
REMARK    6  A    between atoms: N_15  and  C_14 
REMARK    7  A    between atoms: N_20  and  C_19 
REMARK       I    between atoms: C_22  and  N_20 
ROOT
ATOM      1  C   LIG d   1      -5.504  92.868 117.102  0.00  0.00     0.161 C 
ATOM      2  C   LIG d   1      -6.479  92.361 116.226  0.00  0.00     0.016 C 
ATOM      3  C   LIG d   1      -6.392  91.087 115.618  0.00  0.00     0.038 C 
ATOM      4  C   LIG d   1      -5.392  90.167 115.966  0.00  0.00     0.028 C 
ATOM      5  C   LIG d   1      -4.109  90.824 116.463  0.00  0.00    -0.047 C 
ATOM      6  C   LIG d   1      -4.463  91.834 117.579  0.00  0.00     0.091 C 
ENDROOT
BRANCH   1   7
ATOM      7  O   LIG d   1      -6.142  93.495 118.232  0.00  0.00    -0.368 OA
BRANCH   7   8
ATOM      8  C   LIG d   1      -6.985  94.636 117.937  0.00  0.00     0.119 C 
BRANCH   8   9
ATOM      9  C   LIG d   1      -6.429  95.838 118.724  0.00  0.00     0.028 C 
ATOM     10  C   LIG d   1      -5.055  95.546 119.349  0.00  0.00     0.006 C 
ENDBRANCH   8   9
BRANCH   8  11
ATOM     11  C   LIG d   1      -8.408  94.428 118.464  0.00  0.00     0.028 C 
ATOM     12  C   LIG d   1      -8.498  93.307 119.512  0.00  0.00     0.006 C 
ENDBRANCH   8  11
ENDBRANCH   7   8
ENDBRANCH   1   7
BRANCH   6  13
ATOM     13  N   LIG d   1      -3.274  92.583 118.063  0.00  0.00    -0.311 N 
ATOM     14  C   LIG d   1      -2.538  92.197 119.104  0.00  0.00     0.210 C 
ATOM     15  C   LIG d   1      -1.369  93.124 119.448  0.00  0.00     0.109 C 
ATOM     16  O   LIG d   1      -2.724  91.158 119.755  0.00  0.00    -0.276 OA
ATOM     17  H   LIG d   1      -3.034  93.422 117.573  0.00  0.00     0.149 HD
ENDBRANCH   6  13
BRANCH   5  18
ATOM     18  N   LIG d   1      -3.206  89.751 116.919  0.00  0.00     0.381 N 
ATOM     19  H   LIG d   1      -2.332  90.144 117.208  0.00  0.00    -0.090 HD
ATOM     20  H   LIG d   1      -3.033  89.125 116.153  0.00  0.00    -0.090 HD
ATOM     21  H   LIG d   1      -3.622  89.255 117.676  0.00  0.00    -0.090 HD
ENDBRANCH   5  18
BRANCH   3  22
ATOM     22  C   LIG d   1      -7.290  90.739 114.621  0.00  0.00     0.382 C 
ATOM     23  O   LIG d   1      -7.335  89.558 114.202  0.00  0.00    -0.241 OA
ATOM     24  O   LIG d   1      -8.027  91.601 114.105  0.00  0.00    -0.241 OA
ENDBRANCH   3  22
TORSDOF 7
ENDMDL
MODEL 5
REMARK VINA RESULT:      -4.9      2.227      5.075
REMARK  7 active torsions:
REMARK  status: ('A' for Active; 'I' for Inactive)
REMARK    1  A    between atoms: C_2  and  C_3 
REMARK    2  A    between atoms: C_3  and  O_6 
REMARK    3  A    between atoms: C_3  and  C_4 
REMARK    4  A    between atoms: C_7  and  O_6 
REMARK    5  A    between atoms: C_9  and  C_10 
REMARK    6  A    between atoms: N_15  and  C_14 
REMARK    7  A    between atoms: N_20  and  C_19 
REMARK       I    between atoms: C_22  and  N_20 
ROOT
ATOM      1  C   LIG d   1      -4.594  91.955 117.552  0.00  0.00     0.161 C 
ATOM      2  C   LIG d   1      -3.865  92.985 118.168  0.00  0.00     0.016 C 
ATOM      3  C   LIG d   1      -4.452  94.183 118.635  0.00  0.00     0.038 C 
ATOM      4  C   LIG d   1      -5.843  94.369 118.655  0.00  0.00     0.028 C 
ATOM      5  C   LIG d   1      -6.576  93.568 117.583  0.00  0.00    -0.047 C 
ATOM      6  C   LIG d   1      -6.127  92.091 117.665  0.00  0.00     0.091 C 
ENDROOT
BRANCH   1   7
ATOM      7  O   LIG d   1      -4.166  90.678 118.066  0.00  0.00    -0.368 OA
BRANCH   7   8
ATOM      8  C   LIG d   1      -2.736  90.445 118.082  0.00  0.00     0.119 C 
BRANCH   8   9
ATOM      9  C   LIG d   1      -2.478  89.101 117.374  0.00  0.00     0.028 C 
ATOM     10  C   LIG d   1      -0.991  88.708 117.387  0.00  0.00     0.006 C 
ENDBRANCH   8   9
BRANCH   8  11
ATOM     11  C   LIG d   1      -2.218  90.256 119.511  0.00  0.00     0.028 C 
ATOM     12  C   LIG d   1      -1.212  91.341 119.929  0.00  0.00     0.006 C 
ENDBRANCH   8  11
ENDBRANCH   7   8
ENDBRANCH   1   7
BRANCH   6  13
ATOM     13  N   LIG d   1      -6.733  91.255 116.597  0.00  0.00    -0.311 N 
ATOM     14  C   LIG d   1      -6.696  91.576 115.305  0.00  0.00     0.210 C 
ATOM     15  C   LIG d   1      -7.399  90.585 114.372  0.00  0.00     0.109 C 
ATOM     16  O   LIG d   1      -6.120  92.570 114.839  0.00  0.00    -0.276 OA
ATOM     17  H   LIG d   1      -7.194  90.413 116.883  0.00  0.00     0.149 HD
ENDBRANCH   6  13
BRANCH   5  18
ATOM     18  N   LIG d   1      -8.023  93.747 117.805  0.00  0.00     0.381 N 
ATOM     19  H   LIG d   1      -8.236  93.608 118.773  0.00  0.00    -0.090 HD
ATOM     20  H   LIG d   1      -8.521  93.057 117.271  0.00  0.00    -0.090 HD
ATOM     21  H   LIG d   1      -8.301  94.661 117.524  0.00  0.00    -0.090 HD
ENDBRANCH   5  18
BRANCH   3  22
ATOM     22  C   LIG d   1      -3.643  95.229 119.053  0.00  0.00     0.382 C 
ATOM     23  O   LIG d   1      -3.998  96.415 118.854  0.00  0.00    -0.241 OA
ATOM     24  O   LIG d   1      -2.541  95.000 119.587  0.00  0.00    -0.241 OA
ENDBRANCH   3  22
TORSDOF 7
ENDMDL
MODEL 6
REMARK VINA RESULT:      -4.8      2.359      5.316
REMARK  7 active torsions:
REMARK  status: ('A' for Active; 'I' for Inactive)
REMARK    1  A    between atoms: C_2  and  C_3 
REMARK    2  A    between atoms: C_3  and  O_6 
REMARK    3  A    between atoms: C_3  and  C_4 
REMARK    4  A    between atoms: C_7  and  O_6 
REMARK    5  A    between atoms: C_9  and  C_10 
REMARK    6  A    between atoms: N_15  and  C_14 
REMARK    7  A    between atoms: N_20  and  C_19 
REMARK       I    between atoms: C_22  and  N_20 
ROOT
ATOM      1  C   LIG d   1      -3.803  92.375 117.846  0.00  0.00     0.161 C 
ATOM      2  C   LIG d   1      -3.531  93.487 118.660  0.00  0.00     0.016 C 
ATOM      3  C   LIG d   1      -4.448  94.543 118.867  0.00  0.00     0.038 C 
ATOM      4  C   LIG d   1      -5.766  94.485 118.390  0.00  0.00     0.028 C 
ATOM      5  C   LIG d   1      -5.921  93.619 117.144  0.00  0.00    -0.047 C 
ATOM      6  C   LIG d   1      -5.276  92.240 117.407  0.00  0.00     0.091 C 
ENDROOT
BRANCH   1   7
ATOM      7  O   LIG d   1      -3.363  91.170 118.503  0.00  0.00    -0.368 OA
BRANCH   7   8
ATOM      8  C   LIG d   1      -2.063  90.666 118.107  0.00  0.00     0.119 C 
BRANCH   8   9
ATOM      9  C   LIG d   1      -2.256  89.214 117.627  0.00  0.00     0.028 C 
ATOM     10  C   LIG d   1      -0.920  88.475 117.442  0.00  0.00     0.006 C 
ENDBRANCH   8   9
BRANCH   8  11
ATOM     11  C   LIG d   1      -1.113  90.574 119.304  0.00  0.00     0.028 C 
ATOM     12  C   LIG d   1      -0.119  91.745 119.367  0.00  0.00     0.006 C 
ENDBRANCH   8  11
ENDBRANCH   7   8
ENDBRANCH   1   7
BRANCH   6  13
ATOM     13  N   LIG d   1      -5.310  91.360 116.210  0.00  0.00    -0.311 N 
ATOM     14  C   LIG d   1      -6.375  90.642 115.857  0.00  0.00     0.210 C 
ATOM     15  C   LIG d   1      -6.190  89.787 114.599  0.00  0.00     0.109 C 
ATOM     16  O   LIG d   1      -7.465  90.658 116.448  0.00  0.00    -0.276 OA
ATOM     17  H   LIG d   1      -4.477  91.312 115.656  0.00  0.00     0.149 HD
ENDBRANCH   6  13
BRANCH   5  18
ATOM     18  N   LIG d   1      -7.361  93.535 116.836  0.00  0.00     0.381 N 
ATOM     19  H   LIG d   1      -7.489  93.291 115.875  0.00  0.00    -0.090 HD
ATOM     20  H   LIG d   1      -7.780  94.435 116.991  0.00  0.00    -0.090 HD
ATOM     21  H   LIG d   1      -7.795  92.854 117.420  0.00  0.00    -0.090 HD
ENDBRANCH   5  18
BRANCH   3  22
ATOM     22  C   LIG d   1      -4.035  95.693 119.524  0.00  0.00     0.382 C 
ATOM     23  O   LIG d   1      -2.816  95.881 119.753  0.00  0.00    -0.241 OA
ATOM     24  O   LIG d   1      -4.871  96.522 119.930  0.00  0.00    -0.241 OA
ENDBRANCH   3  22
TORSDOF 7
ENDMDL
MODEL 7
REMARK VINA RESULT:      -4.6      7.522     10.903
REMARK  7 active torsions:
REMARK  status: ('A' for Active; 'I' for Inactive)
REMARK    1  A    between atoms: C_2  and  C_3 
REMARK    2  A    between atoms: C_3  and  O_6 
REMARK    3  A    between atoms: C_3  and  C_4 
REMARK    4  A    between atoms: C_7  and  O_6 
REMARK    5  A    between atoms: C_9  and  C_10 
REMARK    6  A    between atoms: N_15  and  C_14 
REMARK    7  A    between atoms: N_20  and  C_19 
REMARK       I    between atoms: C_22  and  N_20 
ROOT
ATOM      1  C   LIG d   1       1.209  87.907 116.772  0.00  0.00     0.161 C 
ATOM      2  C   LIG d   1      -0.184  87.903 116.952  0.00  0.00     0.016 C 
ATOM      3  C   LIG d   1      -0.891  88.954 117.578  0.00  0.00     0.038 C 
ATOM      4  C   LIG d   1      -0.266  90.159 117.935  0.00  0.00     0.028 C 
ATOM      5  C   LIG d   1       1.222  90.004 118.232  0.00  0.00    -0.047 C 
ATOM      6  C   LIG d   1       1.893  89.261 117.055  0.00  0.00     0.091 C 
ENDROOT
BRANCH   1   7
ATOM      7  O   LIG d   1       1.532  87.450 115.444  0.00  0.00    -0.368 OA
BRANCH   7   8
ATOM      8  C   LIG d   1       1.895  86.053 115.321  0.00  0.00     0.119 C 
BRANCH   8   9
ATOM      9  C   LIG d   1       3.422  85.987 115.122  0.00  0.00     0.028 C 
ATOM     10  C   LIG d   1       4.151  85.435 116.359  0.00  0.00     0.006 C 
ENDBRANCH   8   9
BRANCH   8  11
ATOM     11  C   LIG d   1       1.294  85.431 114.057  0.00  0.00     0.028 C 
ATOM     12  C   LIG d   1       2.145  85.690 112.803  0.00  0.00     0.006 C 
ENDBRANCH   8  11
ENDBRANCH   7   8
ENDBRANCH   1   7
BRANCH   6  13
ATOM     13  N   LIG d   1       3.334  88.994 117.302  0.00  0.00    -0.311 N 
ATOM     14  C   LIG d   1       4.290  89.246 116.409  0.00  0.00     0.210 C 
ATOM     15  C   LIG d   1       5.708  88.877 116.858  0.00  0.00     0.109 C 
ATOM     16  O   LIG d   1       4.102  89.769 115.300  0.00  0.00    -0.276 OA
ATOM     17  H   LIG d   1       3.580  88.598 118.188  0.00  0.00     0.149 HD
ENDBRANCH   6  13
BRANCH   5  18
ATOM     18  N   LIG d   1       1.774  91.354 118.454  0.00  0.00     0.381 N 
ATOM     19  H   LIG d   1       1.404  91.988 117.774  0.00  0.00    -0.090 HD
ATOM     20  H   LIG d   1       2.772  91.319 118.343  0.00  0.00    -0.090 HD
ATOM     21  H   LIG d   1       1.545  91.669 119.371  0.00  0.00    -0.090 HD
ENDBRANCH   5  18
BRANCH   3  22
ATOM     22  C   LIG d   1      -2.232  88.790 117.890  0.00  0.00     0.382 C 
ATOM     23  O   LIG d   1      -2.569  88.029 118.829  0.00  0.00    -0.241 OA
ATOM     24  O   LIG d   1      -3.112  89.360 117.217  0.00  0.00    -0.241 OA
ENDBRANCH   3  22
TORSDOF 7
ENDMDL
MODEL 8
REMARK VINA RESULT:      -4.4      9.229     12.342
REMARK  7 active torsions:
REMARK  status: ('A' for Active; 'I' for Inactive)
REMARK    1  A    between atoms: C_2  and  C_3 
REMARK    2  A    between atoms: C_3  and  O_6 
REMARK    3  A    between atoms: C_3  and  C_4 
REMARK    4  A    between atoms: C_7  and  O_6 
REMARK    5  A    between atoms: C_9  and  C_10 
REMARK    6  A    between atoms: N_15  and  C_14 
REMARK    7  A    between atoms: N_20  and  C_19 
REMARK       I    between atoms: C_22  and  N_20 
ROOT
ATOM      1  C   LIG d   1       3.579  87.216 116.668  0.00  0.00     0.161 C 
ATOM      2  C   LIG d   1       2.281  87.748 116.600  0.00  0.00     0.016 C 
ATOM      3  C   LIG d   1       1.944  89.041 117.064  0.00  0.00     0.038 C 
ATOM      4  C   LIG d   1       2.920  89.952 117.492  0.00  0.00     0.028 C 
ATOM      5  C   LIG d   1       4.171  89.282 118.050  0.00  0.00    -0.047 C 
ATOM      6  C   LIG d   1       4.678  88.237 117.030  0.00  0.00     0.091 C 
ENDROOT
BRANCH   1   7
ATOM      7  O   LIG d   1       3.900  86.552 115.430  0.00  0.00    -0.368 OA
BRANCH   7   8
ATOM      8  C   LIG d   1       3.204  87.028 114.252  0.00  0.00     0.119 C 
BRANCH   8   9
ATOM      9  C   LIG d   1       2.707  85.792 113.477  0.00  0.00     0.028 C 
ATOM     10  C   LIG d   1       1.190  85.582 113.619  0.00  0.00     0.006 C 
ENDBRANCH   8   9
BRANCH   8  11
ATOM     11  C   LIG d   1       4.157  87.750 113.295  0.00  0.00     0.028 C 
ATOM     12  C   LIG d   1       4.473  89.186 113.740  0.00  0.00     0.006 C 
ENDBRANCH   8  11
ENDBRANCH   7   8
ENDBRANCH   1   7
BRANCH   6  13
ATOM     13  N   LIG d   1       5.851  87.475 117.534  0.00  0.00    -0.311 N 
ATOM     14  C   LIG d   1       6.960  87.283 116.823  0.00  0.00     0.210 C 
ATOM     15  C   LIG d   1       8.041  86.452 117.523  0.00  0.00     0.109 C 
ATOM     16  O   LIG d   1       7.165  87.749 115.692  0.00  0.00    -0.276 OA
ATOM     17  H   LIG d   1       5.782  87.089 118.455  0.00  0.00     0.149 HD
ENDBRANCH   6  13
BRANCH   5  18
ATOM     18  N   LIG d   1       5.158  90.342 118.330  0.00  0.00     0.381 N 
ATOM     19  H   LIG d   1       5.378  90.832 117.486  0.00  0.00    -0.090 HD
ATOM     20  H   LIG d   1       6.000  89.919 118.678  0.00  0.00    -0.090 HD
ATOM     21  H   LIG d   1       4.794  90.978 119.005  0.00  0.00    -0.090 HD
ENDBRANCH   5  18
BRANCH   3  22
ATOM     22  C   LIG d   1       0.612  89.419 117.139  0.00  0.00     0.382 C 
ATOM     23  O   LIG d   1       0.302  90.525 117.643  0.00  0.00    -0.241 OA
ATOM     24  O   LIG d   1      -0.286  88.649 116.750  0.00  0.00    -0.241 OA
ENDBRANCH   3  22
TORSDOF 7
ENDMDL
MODEL 9
REMARK VINA RESULT:      -4.3      5.358      8.924
REMARK  7 active torsions:
REMARK  status: ('A' for Active; 'I' for Inactive)
REMARK    1  A    between atoms: C_2  and  C_3 
REMARK    2  A    between atoms: C_3  and  O_6 
REMARK    3  A    between atoms: C_3  and  C_4 
REMARK    4  A    between atoms: C_7  and  O_6 
REMARK    5  A    between atoms: C_9  and  C_10 
REMARK    6  A    between atoms: N_15  and  C_14 
REMARK    7  A    between atoms: N_20  and  C_19 
REMARK       I    between atoms: C_22  and  N_20 
ROOT
ATOM      1  C   LIG d   1      -0.853  89.680 117.953  0.00  0.00     0.161 C 
ATOM      2  C   LIG d   1      -2.208  89.844 117.617  0.00  0.00     0.016 C 
ATOM      3  C   LIG d   1      -2.933  91.032 117.866  0.00  0.00     0.038 C 
ATOM      4  C   LIG d   1      -2.309  92.198 118.334  0.00  0.00     0.028 C 
ATOM      5  C   LIG d   1      -1.056  91.924 119.159  0.00  0.00    -0.047 C 
ATOM      6  C   LIG d   1      -0.127  90.979 118.363  0.00  0.00     0.091 C 
ENDROOT
BRANCH   1   7
ATOM      7  O   LIG d   1      -0.155  89.036 116.870  0.00  0.00    -0.368 OA
BRANCH   7   8
ATOM      8  C   LIG d   1       0.174  87.639 117.064  0.00  0.00     0.119 C 
BRANCH   8   9
ATOM      9  C   LIG d   1       0.058  87.342 118.572  0.00  0.00     0.028 C 
ATOM     10  C   LIG d   1       1.390  86.873 119.182  0.00  0.00     0.006 C 
ENDBRANCH   8   9
BRANCH   8  11
ATOM     11  C   LIG d   1       1.636  87.355 116.707  0.00  0.00     0.028 C 
ATOM     12  C   LIG d   1       1.783  86.454 115.471  0.00  0.00     0.006 C 
ENDBRANCH   8  11
ENDBRANCH   7   8
ENDBRANCH   1   7
BRANCH   6  13
ATOM     13  N   LIG d   1       1.084  90.593 119.133  0.00  0.00    -0.311 N 
ATOM     14  C   LIG d   1       2.300  90.512 118.596  0.00  0.00     0.210 C 
ATOM     15  C   LIG d   1       3.406  90.077 119.561  0.00  0.00     0.109 C 
ATOM     16  O   LIG d   1       2.572  90.791 117.418  0.00  0.00    -0.276 OA
ATOM     17  H   LIG d   1       0.959  90.380 120.103  0.00  0.00     0.149 HD
ENDBRANCH   6  13
BRANCH   5  18
ATOM     18  N   LIG d   1      -0.431  93.225 119.465  0.00  0.00     0.381 N 
ATOM     19  H   LIG d   1      -0.067  93.215 120.396  0.00  0.00    -0.090 HD
ATOM     20  H   LIG d   1      -1.132  93.943 119.408  0.00  0.00    -0.090 HD
ATOM     21  H   LIG d   1       0.301  93.413 118.816  0.00  0.00    -0.090 HD
ENDBRANCH   5  18
BRANCH   3  22
ATOM     22  C   LIG d   1      -4.307  91.049 117.683  0.00  0.00     0.382 C 
ATOM     23  O   LIG d   1      -4.834  90.304 116.821  0.00  0.00    -0.241 OA
ATOM     24  O   LIG d   1      -5.022  91.831 118.338  0.00  0.00    -0.241 OA
ENDBRANCH   3  22
TORSDOF 7
ENDMDL
