MODEL 1
REMARK VINA RESULT:      -5.5      0.000      0.000
REMARK  7 active torsions:
REMARK  status: ('A' for Active; 'I' for Inactive)
REMARK    1  A    between atoms: C_2  and  C_3 
REMARK    2  A    between atoms: C_3  and  O_6 
REMARK    3  A    between atoms: C_3  and  C_4 
REMARK    4  A    between atoms: C_7  and  O_6 
REMARK    5  A    between atoms: C_9  and  C_10 
REMARK    6  A    between atoms: N_15  and  C_14 
REMARK    7  A    between atoms: N_20  and  C_19 
REMARK       I    between atoms: C_22  and  N_20 
ROOT
ATOM      1  C   LIG d   1      -3.531  91.815 117.184  0.00  0.00     0.161 C 
ATOM      2  C   LIG d   1      -4.679  92.547 116.839  0.00  0.00     0.016 C 
ATOM      3  C   LIG d   1      -5.702  92.043 116.003  0.00  0.00     0.038 C 
ATOM      4  C   LIG d   1      -5.718  90.707 115.575  0.00  0.00     0.028 C 
ATOM      5  C   LIG d   1      -4.329  90.084 115.482  0.00  0.00    -0.047 C 
ATOM      6  C   LIG d   1      -3.584  90.317 116.816  0.00  0.00     0.091 C 
ENDROOT
BRANCH   1   7
ATOM      7  O   LIG d   1      -3.252  91.977 118.588  0.00  0.00    -0.368 OA
BRANCH   7   8
ATOM      8  C   LIG d   1      -2.034  92.688 118.918  0.00  0.00     0.119 C 
BRANCH   8   9
ATOM      9  C   LIG d   1      -2.416  93.853 119.852  0.00  0.00     0.028 C 
ATOM     10  C   LIG d   1      -3.175  94.970 119.117  0.00  0.00     0.006 C 
ENDBRANCH   8   9
BRANCH   8  11
ATOM     11  C   LIG d   1      -1.420  93.347 117.679  0.00  0.00     0.028 C 
ATOM     12  C   LIG d   1       0.011  92.863 117.394  0.00  0.00     0.006 C 
ENDBRANCH   8  11
ENDBRANCH   7   8
ENDBRANCH   1   7
BRANCH   6  13
ATOM     13  N   LIG d   1      -2.187  89.813 116.781  0.00  0.00    -0.311 N 
ATOM     14  C   LIG d   1      -1.826  88.622 117.256  0.00  0.00     0.210 C 
ATOM     15  C   LIG d   1      -0.331  88.306 117.139  0.00  0.00     0.109 C 
ATOM     16  O   LIG d   1      -2.606  87.784 117.733  0.00  0.00    -0.276 OA
ATOM     17  H   LIG d   1      -1.494  90.415 116.382  0.00  0.00     0.149 HD
ENDBRANCH   6  13
BRANCH   5  18
ATOM     18  N   LIG d   1      -4.502  88.655 115.159  0.00  0.00     0.381 N 
ATOM     19  H   LIG d   1      -4.347  88.508 114.181  0.00  0.00    -0.090 HD
ATOM     20  H   LIG d   1      -5.447  88.386 115.371  0.00  0.00    -0.090 HD
ATOM     21  H   LIG d   1      -3.864  88.106 115.691  0.00  0.00    -0.090 HD
ENDBRANCH   5  18
BRANCH   3  22
ATOM     22  C   LIG d   1      -6.703  92.891 115.555  0.00  0.00     0.382 C 
ATOM     23  O   LIG d   1      -7.292  93.648 116.363  0.00  0.00    -0.241 OA
ATOM     24  O   LIG d   1      -7.056  92.876 114.360  0.00  0.00    -0.241 OA
ENDBRANCH   3  22
TORSDOF 7
ENDMDL
MODEL 2
REMARK VINA RESULT:      -5.2      2.313      3.677
REMARK  7 active torsions:
REMARK  status: ('A' for Active; 'I' for Inactive)
REMARK    1  A    between atoms: C_2  and  C_3 
REMARK    2  A    between atoms: C_3  and  O_6 
REMARK    3  A    between atoms: C_3  and  C_4 
REMARK    4  A    between atoms: C_7  and  O_6 
REMARK    5  A    between atoms: C_9  and  C_10 
REMARK    6  A    between atoms: N_15  and  C_14 
REMARK    7  A    between atoms: N_20  and  C_19 
REMARK       I    between atoms: C_22  and  N_20 
ROOT
ATOM      1  C   LIG d   1      -5.496  92.130 117.889  0.00  0.00     0.161 C 
ATOM      2  C   LIG d   1      -6.458  91.567 117.034  0.00  0.00     0.016 C 
ATOM      3  C   LIG d   1      -6.153  90.595 116.054  0.00  0.00     0.038 C 
ATOM      4  C   LIG d   1      -4.884  90.005 115.964  0.00  0.00     0.028 C 
ATOM      5  C   LIG d   1      -3.761  90.904 116.469  0.00  0.00    -0.047 C 
ATOM      6  C   LIG d   1      -4.127  91.418 117.880  0.00  0.00     0.091 C 
ENDROOT
BRANCH   1   7
ATOM      7  O   LIG d   1      -6.016  92.199 119.232  0.00  0.00    -0.368 OA
BRANCH   7   8
ATOM      8  C   LIG d   1      -6.366  93.520 119.713  0.00  0.00     0.119 C 
BRANCH   8   9
ATOM      9  C   LIG d   1      -7.900  93.645 119.650  0.00  0.00     0.028 C 
ATOM     10  C   LIG d   1      -8.369  94.538 118.489  0.00  0.00     0.006 C 
ENDBRANCH   8   9
BRANCH   8  11
ATOM     11  C   LIG d   1      -5.831  94.612 118.781  0.00  0.00     0.028 C 
ATOM     12  C   LIG d   1      -4.739  95.472 119.436  0.00  0.00     0.006 C 
ENDBRANCH   8  11
ENDBRANCH   7   8
ENDBRANCH   1   7
BRANCH   6  13
ATOM     13  N   LIG d   1      -3.120  92.373 118.415  0.00  0.00    -0.311 N 
ATOM     14  C   LIG d   1      -2.126  92.013 119.224  0.00  0.00     0.210 C 
ATOM     15  C   LIG d   1      -1.212  93.157 119.675  0.00  0.00     0.109 C 
ATOM     16  O   LIG d   1      -1.894  90.849 119.586  0.00  0.00    -0.276 OA
ATOM     17  H   LIG d   1      -3.215  93.333 118.147  0.00  0.00     0.149 HD
ENDBRANCH   6  13
BRANCH   5  18
ATOM     18  N   LIG d   1      -2.514  90.116 116.446  0.00  0.00     0.381 N 
ATOM     19  H   LIG d   1      -1.811  90.579 116.988  0.00  0.00    -0.090 HD
ATOM     20  H   LIG d   1      -2.189  90.050 115.498  0.00  0.00    -0.090 HD
ATOM     21  H   LIG d   1      -2.680  89.205 116.813  0.00  0.00    -0.090 HD
ENDBRANCH   5  18
BRANCH   3  22
ATOM     22  C   LIG d   1      -7.116  90.231 115.124  0.00  0.00     0.382 C 
ATOM     23  O   LIG d   1      -7.361  90.983 114.150  0.00  0.00    -0.241 OA
ATOM     24  O   LIG d   1      -7.773  89.183 115.271  0.00  0.00    -0.241 OA
ENDBRANCH   3  22
TORSDOF 7
ENDMDL
MODEL 3
REMARK VINA RESULT:      -5.2      2.237      4.170
REMARK  7 active torsions:
REMARK  status: ('A' for Active; 'I' for Inactive)
REMARK    1  A    between atoms: C_2  and  C_3 
REMARK    2  A    between atoms: C_3  and  O_6 
REMARK    3  A    between atoms: C_3  and  C_4 
REMARK    4  A    between atoms: C_7  and  O_6 
REMARK    5  A    between atoms: C_9  and  C_10 
REMARK    6  A    between atoms: N_15  and  C_14 
REMARK    7  A    between atoms: N_20  and  C_19 
REMARK       I    between atoms: C_22  and  N_20 
ROOT
ATOM      1  C   LIG d   1      -4.164  90.691 117.017  0.00  0.00     0.161 C 
ATOM      2  C   LIG d   1      -5.140  90.167 116.153  0.00  0.00     0.016 C 
ATOM      3  C   LIG d   1      -6.253  90.909 115.695  0.00  0.00     0.038 C 
ATOM      4  C   LIG d   1      -6.385  92.282 115.951  0.00  0.00     0.028 C 
ATOM      5  C   LIG d   1      -5.691  92.728 117.234  0.00  0.00    -0.047 C 
ATOM      6  C   LIG d   1      -4.232  92.219 117.218  0.00  0.00     0.091 C 
ENDROOT
BRANCH   1   7
ATOM      7  O   LIG d   1      -2.852  90.303 116.565  0.00  0.00    -0.368 OA
BRANCH   7   8
ATOM      8  C   LIG d   1      -2.074  89.497 117.483  0.00  0.00     0.119 C 
BRANCH   8   9
ATOM      9  C   LIG d   1      -0.600  89.922 117.338  0.00  0.00     0.028 C 
ATOM     10  C   LIG d   1       0.051  90.255 118.691  0.00  0.00     0.006 C 
ENDBRANCH   8   9
BRANCH   8  11
ATOM     11  C   LIG d   1      -2.109  88.016 117.093  0.00  0.00     0.028 C 
ATOM     12  C   LIG d   1      -2.080  87.078 118.310  0.00  0.00     0.006 C 
ENDBRANCH   8  11
ENDBRANCH   7   8
ENDBRANCH   1   7
BRANCH   6  13
ATOM     13  N   LIG d   1      -3.506  92.540 118.474  0.00  0.00    -0.311 N 
ATOM     14  C   LIG d   1      -2.313  93.132 118.501  0.00  0.00     0.210 C 
ATOM     15  C   LIG d   1      -1.733  93.353 119.902  0.00  0.00     0.109 C 
ATOM     16  O   LIG d   1      -1.695  93.524 117.500  0.00  0.00    -0.276 OA
ATOM     17  H   LIG d   1      -3.950  92.285 119.335  0.00  0.00     0.149 HD
ENDBRANCH   6  13
BRANCH   5  18
ATOM     18  N   LIG d   1      -5.791  94.198 117.306  0.00  0.00     0.381 N 
ATOM     19  H   LIG d   1      -6.704  94.461 117.617  0.00  0.00    -0.090 HD
ATOM     20  H   LIG d   1      -5.648  94.579 116.387  0.00  0.00    -0.090 HD
ATOM     21  H   LIG d   1      -5.103  94.556 117.932  0.00  0.00    -0.090 HD
ENDBRANCH   5  18
BRANCH   3  22
ATOM     22  C   LIG d   1      -7.270  90.267 115.004  0.00  0.00     0.382 C 
ATOM     23  O   LIG d   1      -7.727  89.179 115.430  0.00  0.00    -0.241 OA
ATOM     24  O   LIG d   1      -7.705  90.740 113.937  0.00  0.00    -0.241 OA
ENDBRANCH   3  22
TORSDOF 7
ENDMDL
MODEL 4
REMARK VINA RESULT:      -5.1      2.527      4.579
REMARK  7 active torsions:
REMARK  status: ('A' for Active; 'I' for Inactive)
REMARK    1  A    between atoms: C_2  and  C_3 
REMARK    2  A    between atoms: C_3  and  O_6 
REMARK    3  A    between atoms: C_3  and  C_4 
REMARK    4  A    between atoms: C_7  and  O_6 
REMARK    5  A    between atoms: C_9  and  C_10 
REMARK    6  A    between atoms: N_15  and  C_14 
REMARK    7  A    between atoms: N_20  and  C_19 
REMARK       I    between atoms: C_22  and  N_20 
ROOT
ATOM      1  C   LIG d   1      -5.051  92.406 117.189  0.00  0.00     0.161 C 
ATOM      2  C   LIG d   1      -4.470  91.149 116.956  0.00  0.00     0.016 C 
ATOM      3  C   LIG d   1      -4.777  90.346 115.833  0.00  0.00     0.038 C 
ATOM      4  C   LIG d   1      -5.579  90.816 114.782  0.00  0.00     0.028 C 
ATOM      5  C   LIG d   1      -6.586  91.875 115.217  0.00  0.00    -0.047 C 
ATOM      6  C   LIG d   1      -5.844  92.983 115.998  0.00  0.00     0.091 C 
ENDROOT
BRANCH   1   7
ATOM      7  O   LIG d   1      -4.040  93.340 117.618  0.00  0.00    -0.368 OA
BRANCH   7   8
ATOM      8  C   LIG d   1      -3.495  93.125 118.943  0.00  0.00     0.119 C 
BRANCH   8   9
ATOM      9  C   LIG d   1      -3.997  94.271 119.842  0.00  0.00     0.028 C 
ATOM     10  C   LIG d   1      -4.348  95.535 119.039  0.00  0.00     0.006 C 
ENDBRANCH   8   9
BRANCH   8  11
ATOM     11  C   LIG d   1      -1.969  93.247 118.944  0.00  0.00     0.028 C 
ATOM     12  C   LIG d   1      -1.373  93.280 117.528  0.00  0.00     0.006 C 
ENDBRANCH   8  11
ENDBRANCH   7   8
ENDBRANCH   1   7
BRANCH   6  13
ATOM     13  N   LIG d   1      -6.769  94.017 116.531  0.00  0.00    -0.311 N 
ATOM     14  C   LIG d   1      -7.433  93.885 117.678  0.00  0.00     0.210 C 
ATOM     15  C   LIG d   1      -8.349  95.060 118.034  0.00  0.00     0.109 C 
ATOM     16  O   LIG d   1      -7.326  92.921 118.450  0.00  0.00    -0.276 OA
ATOM     17  H   LIG d   1      -6.891  94.847 115.984  0.00  0.00     0.149 HD
ENDBRANCH   6  13
BRANCH   5  18
ATOM     18  N   LIG d   1      -7.259  92.375 114.002  0.00  0.00     0.381 N 
ATOM     19  H   LIG d   1      -7.725  93.237 114.204  0.00  0.00    -0.090 HD
ATOM     20  H   LIG d   1      -7.948  91.704 113.713  0.00  0.00    -0.090 HD
ATOM     21  H   LIG d   1      -6.592  92.512 113.275  0.00  0.00    -0.090 HD
ENDBRANCH   5  18
BRANCH   3  22
ATOM     22  C   LIG d   1      -4.311  89.041 115.773  0.00  0.00     0.382 C 
ATOM     23  O   LIG d   1      -4.710  88.274 114.864  0.00  0.00    -0.241 OA
ATOM     24  O   LIG d   1      -3.532  88.608 116.643  0.00  0.00    -0.241 OA
ENDBRANCH   3  22
TORSDOF 7
ENDMDL
MODEL 5
REMARK VINA RESULT:      -5.0      2.326      4.486
REMARK  7 active torsions:
REMARK  status: ('A' for Active; 'I' for Inactive)
REMARK    1  A    between atoms: C_2  and  C_3 
REMARK    2  A    between atoms: C_3  and  O_6 
REMARK    3  A    between atoms: C_3  and  C_4 
REMARK    4  A    between atoms: C_7  and  O_6 
REMARK    5  A    between atoms: C_9  and  C_10 
REMARK    6  A    between atoms: N_15  and  C_14 
REMARK    7  A    between atoms: N_20  and  C_19 
REMARK       I    between atoms: C_22  and  N_20 
ROOT
ATOM      1  C   LIG d   1      -2.605  90.399 117.503  0.00  0.00     0.161 C 
ATOM      2  C   LIG d   1      -3.777  89.992 116.843  0.00  0.00     0.016 C 
ATOM      3  C   LIG d   1      -4.824  90.878 116.499  0.00  0.00     0.038 C 
ATOM      4  C   LIG d   1      -4.702  92.267 116.658  0.00  0.00     0.028 C 
ATOM      5  C   LIG d   1      -3.749  92.667 117.780  0.00  0.00    -0.047 C 
ATOM      6  C   LIG d   1      -2.406  91.927 117.585  0.00  0.00     0.091 C 
ENDROOT
BRANCH   1   7
ATOM      7  O   LIG d   1      -1.459  89.776 116.891  0.00  0.00    -0.368 OA
BRANCH   7   8
ATOM      8  C   LIG d   1      -0.742  88.818 117.708  0.00  0.00     0.119 C 
BRANCH   8   9
ATOM      9  C   LIG d   1       0.764  89.085 117.520  0.00  0.00     0.028 C 
ATOM     10  C   LIG d   1       1.096  89.607 116.112  0.00  0.00     0.006 C 
ENDBRANCH   8   9
BRANCH   8  11
ATOM     11  C   LIG d   1      -0.965  87.386 117.214  0.00  0.00     0.028 C 
ATOM     12  C   LIG d   1      -2.011  86.625 118.044  0.00  0.00     0.006 C 
ENDBRANCH   8  11
ENDBRANCH   7   8
ENDBRANCH   1   7
BRANCH   6  13
ATOM     13  N   LIG d   1      -1.446  92.196 118.687  0.00  0.00    -0.311 N 
ATOM     14  C   LIG d   1      -0.206  92.641 118.486  0.00  0.00     0.210 C 
ATOM     15  C   LIG d   1       0.625  92.834 119.758  0.00  0.00     0.109 C 
ATOM     16  O   LIG d   1       0.273  92.924 117.378  0.00  0.00    -0.276 OA
ATOM     17  H   LIG d   1      -1.762  92.023 119.621  0.00  0.00     0.149 HD
ENDBRANCH   6  13
BRANCH   5  18
ATOM     18  N   LIG d   1      -3.611  94.135 117.744  0.00  0.00     0.381 N 
ATOM     19  H   LIG d   1      -4.458  94.563 118.061  0.00  0.00    -0.090 HD
ATOM     20  H   LIG d   1      -3.447  94.423 116.796  0.00  0.00    -0.090 HD
ATOM     21  H   LIG d   1      -2.850  94.420 118.321  0.00  0.00    -0.090 HD
ENDBRANCH   5  18
BRANCH   3  22
ATOM     22  C   LIG d   1      -6.025  90.372 116.026  0.00  0.00     0.382 C 
ATOM     23  O   LIG d   1      -6.073  89.212 115.552  0.00  0.00    -0.241 OA
ATOM     24  O   LIG d   1      -7.051  91.078 116.026  0.00  0.00    -0.241 OA
ENDBRANCH   3  22
TORSDOF 7
ENDMDL
MODEL 6
REMARK VINA RESULT:      -5.0      2.616      5.008
REMARK  7 active torsions:
REMARK  status: ('A' for Active; 'I' for Inactive)
REMARK    1  A    between atoms: C_2  and  C_3 
REMARK    2  A    between atoms: C_3  and  O_6 
REMARK    3  A    between atoms: C_3  and  C_4 
REMARK    4  A    between atoms: C_7  and  O_6 
REMARK    5  A    between atoms: C_9  and  C_10 
REMARK    6  A    between atoms: N_15  and  C_14 
REMARK    7  A    between atoms: N_20  and  C_19 
REMARK       I    between atoms: C_22  and  N_20 
ROOT
ATOM      1  C   LIG d   1      -4.961  92.873 117.610  0.00  0.00     0.161 C 
ATOM      2  C   LIG d   1      -6.214  93.497 117.498  0.00  0.00     0.016 C 
ATOM      3  C   LIG d   1      -6.488  94.789 118.003  0.00  0.00     0.038 C 
ATOM      4  C   LIG d   1      -5.478  95.610 118.525  0.00  0.00     0.028 C 
ATOM      5  C   LIG d   1      -4.308  94.831 119.117  0.00  0.00    -0.047 C 
ATOM      6  C   LIG d   1      -3.817  93.798 118.077  0.00  0.00     0.091 C 
ENDROOT
BRANCH   1   7
ATOM      7  O   LIG d   1      -4.616  92.242 116.361  0.00  0.00    -0.368 OA
BRANCH   7   8
ATOM      8  C   LIG d   1      -5.332  91.022 116.044  0.00  0.00     0.119 C 
BRANCH   8   9
ATOM      9  C   LIG d   1      -4.284  89.915 115.822  0.00  0.00     0.028 C 
ATOM     10  C   LIG d   1      -3.378  89.709 117.048  0.00  0.00     0.006 C 
ENDBRANCH   8   9
BRANCH   8  11
ATOM     11  C   LIG d   1      -6.080  91.145 114.714  0.00  0.00     0.028 C 
ATOM     12  C   LIG d   1      -7.126  90.036 114.513  0.00  0.00     0.006 C 
ENDBRANCH   8  11
ENDBRANCH   7   8
ENDBRANCH   1   7
BRANCH   6  13
ATOM     13  N   LIG d   1      -2.729  92.935 118.606  0.00  0.00    -0.311 N 
ATOM     14  C   LIG d   1      -1.517  92.864 118.057  0.00  0.00     0.210 C 
ATOM     15  C   LIG d   1      -0.550  91.897 118.748  0.00  0.00     0.109 C 
ATOM     16  O   LIG d   1      -1.142  93.533 117.083  0.00  0.00    -0.276 OA
ATOM     17  H   LIG d   1      -2.937  92.381 119.413  0.00  0.00     0.149 HD
ENDBRANCH   6  13
BRANCH   5  18
ATOM     18  N   LIG d   1      -3.270  95.806 119.498  0.00  0.00     0.381 N 
ATOM     19  H   LIG d   1      -3.567  96.321 120.302  0.00  0.00    -0.090 HD
ATOM     20  H   LIG d   1      -3.138  96.453 118.740  0.00  0.00    -0.090 HD
ATOM     21  H   LIG d   1      -2.414  95.335 119.694  0.00  0.00    -0.090 HD
ENDBRANCH   5  18
BRANCH   3  22
ATOM     22  C   LIG d   1      -7.794  95.255 118.026  0.00  0.00     0.382 C 
ATOM     23  O   LIG d   1      -8.738  94.491 117.714  0.00  0.00    -0.241 OA
ATOM     24  O   LIG d   1      -8.035  96.443 118.311  0.00  0.00    -0.241 OA
ENDBRANCH   3  22
TORSDOF 7
ENDMDL
MODEL 7
REMARK VINA RESULT:      -4.8      2.122      3.460
REMARK  7 active torsions:
REMARK  status: ('A' for Active; 'I' for Inactive)
REMARK    1  A    between atoms: C_2  and  C_3 
REMARK    2  A    between atoms: C_3  and  O_6 
REMARK    3  A    between atoms: C_3  and  C_4 
REMARK    4  A    between atoms: C_7  and  O_6 
REMARK    5  A    between atoms: C_9  and  C_10 
REMARK    6  A    between atoms: N_15  and  C_14 
REMARK    7  A    between atoms: N_20  and  C_19 
REMARK       I    between atoms: C_22  and  N_20 
ROOT
ATOM      1  C   LIG d   1      -4.794  92.592 117.617  0.00  0.00     0.161 C 
ATOM      2  C   LIG d   1      -5.766  92.574 116.603  0.00  0.00     0.016 C 
ATOM      3  C   LIG d   1      -5.871  91.539 115.645  0.00  0.00     0.038 C 
ATOM      4  C   LIG d   1      -5.100  90.370 115.728  0.00  0.00     0.028 C 
ATOM      5  C   LIG d   1      -3.764  90.575 116.434  0.00  0.00    -0.047 C 
ATOM      6  C   LIG d   1      -4.015  91.271 117.791  0.00  0.00     0.091 C 
ENDROOT
BRANCH   1   7
ATOM      7  O   LIG d   1      -5.397  92.987 118.865  0.00  0.00    -0.368 OA
BRANCH   7   8
ATOM      8  C   LIG d   1      -5.654  94.403 119.029  0.00  0.00     0.119 C 
BRANCH   8   9
ATOM      9  C   LIG d   1      -4.530  94.980 119.911  0.00  0.00     0.028 C 
ATOM     10  C   LIG d   1      -3.616  95.946 119.139  0.00  0.00     0.006 C 
ENDBRANCH   8   9
BRANCH   8  11
ATOM     11  C   LIG d   1      -6.948  94.647 119.811  0.00  0.00     0.028 C 
ATOM     12  C   LIG d   1      -8.125  93.804 119.295  0.00  0.00     0.006 C 
ENDBRANCH   8  11
ENDBRANCH   7   8
ENDBRANCH   1   7
BRANCH   6  13
ATOM     13  N   LIG d   1      -2.753  91.585 118.510  0.00  0.00    -0.311 N 
ATOM     14  C   LIG d   1      -1.936  92.576 118.158  0.00  0.00     0.210 C 
ATOM     15  C   LIG d   1      -0.678  92.714 119.021  0.00  0.00     0.109 C 
ATOM     16  O   LIG d   1      -2.150  93.375 117.234  0.00  0.00    -0.276 OA
ATOM     17  H   LIG d   1      -2.517  91.006 119.292  0.00  0.00     0.149 HD
ENDBRANCH   6  13
BRANCH   5  18
ATOM     18  N   LIG d   1      -3.127  89.252 116.573  0.00  0.00     0.381 N 
ATOM     19  H   LIG d   1      -3.297  88.706 115.752  0.00  0.00    -0.090 HD
ATOM     20  H   LIG d   1      -3.534  88.775 117.359  0.00  0.00    -0.090 HD
ATOM     21  H   LIG d   1      -2.146  89.359 116.712  0.00  0.00    -0.090 HD
ENDBRANCH   5  18
BRANCH   3  22
ATOM     22  C   LIG d   1      -6.728  91.688 114.565  0.00  0.00     0.382 C 
ATOM     23  O   LIG d   1      -6.962  92.830 114.103  0.00  0.00    -0.241 OA
ATOM     24  O   LIG d   1      -7.305  90.698 114.076  0.00  0.00    -0.241 OA
ENDBRANCH   3  22
TORSDOF 7
ENDMDL
MODEL 8
REMARK VINA RESULT:      -4.5      2.201      3.960
REMARK  7 active torsions:
REMARK  status: ('A' for Active; 'I' for Inactive)
REMARK    1  A    between atoms: C_2  and  C_3 
REMARK    2  A    between atoms: C_3  and  O_6 
REMARK    3  A    between atoms: C_3  and  C_4 
REMARK    4  A    between atoms: C_7  and  O_6 
REMARK    5  A    between atoms: C_9  and  C_10 
REMARK    6  A    between atoms: N_15  and  C_14 
REMARK    7  A    between atoms: N_20  and  C_19 
REMARK       I    between atoms: C_22  and  N_20 
ROOT
ATOM      1  C   LIG d   1      -3.468  91.492 117.494  0.00  0.00     0.161 C 
ATOM      2  C   LIG d   1      -3.518  92.673 118.254  0.00  0.00     0.016 C 
ATOM      3  C   LIG d   1      -4.536  93.644 118.115  0.00  0.00     0.038 C 
ATOM      4  C   LIG d   1      -5.663  93.427 117.308  0.00  0.00     0.028 C 
ATOM      5  C   LIG d   1      -5.401  92.477 116.145  0.00  0.00    -0.047 C 
ATOM      6  C   LIG d   1      -4.748  91.186 116.688  0.00  0.00     0.091 C 
ENDROOT
BRANCH   1   7
ATOM      7  O   LIG d   1      -3.133  90.378 118.345  0.00  0.00    -0.368 OA
BRANCH   7   8
ATOM      8  C   LIG d   1      -1.727  90.036 118.424  0.00  0.00     0.119 C 
BRANCH   8   9
ATOM      9  C   LIG d   1      -1.099  90.341 117.050  0.00  0.00     0.028 C 
ATOM     10  C   LIG d   1       0.270  91.031 117.172  0.00  0.00     0.006 C 
ENDBRANCH   8   9
BRANCH   8  11
ATOM     11  C   LIG d   1      -1.531  88.532 118.635  0.00  0.00     0.028 C 
ATOM     12  C   LIG d   1      -2.087  87.690 117.476  0.00  0.00     0.006 C 
ENDBRANCH   8  11
ENDBRANCH   7   8
ENDBRANCH   1   7
BRANCH   6  13
ATOM     13  N   LIG d   1      -4.381  90.237 115.605  0.00  0.00    -0.311 N 
ATOM     14  C   LIG d   1      -5.195  89.281 115.162  0.00  0.00     0.210 C 
ATOM     15  C   LIG d   1      -4.613  88.398 114.053  0.00  0.00     0.109 C 
ATOM     16  O   LIG d   1      -6.356  89.100 115.559  0.00  0.00    -0.276 OA
ATOM     17  H   LIG d   1      -3.468  90.332 115.205  0.00  0.00     0.149 HD
ENDBRANCH   6  13
BRANCH   5  18
ATOM     18  N   LIG d   1      -6.690  92.233 115.470  0.00  0.00     0.381 N 
ATOM     19  H   LIG d   1      -7.351  92.934 115.738  0.00  0.00    -0.090 HD
ATOM     20  H   LIG d   1      -7.044  91.338 115.759  0.00  0.00    -0.090 HD
ATOM     21  H   LIG d   1      -6.565  92.245 114.481  0.00  0.00    -0.090 HD
ENDBRANCH   5  18
BRANCH   3  22
ATOM     22  C   LIG d   1      -4.412  94.866 118.759  0.00  0.00     0.382 C 
ATOM     23  O   LIG d   1      -5.422  95.413 119.264  0.00  0.00    -0.241 OA
ATOM     24  O   LIG d   1      -3.312  95.449 118.801  0.00  0.00    -0.241 OA
ENDBRANCH   3  22
TORSDOF 7
ENDMDL
MODEL 9
REMARK VINA RESULT:      -4.5      5.136      7.534
REMARK  7 active torsions:
REMARK  status: ('A' for Active; 'I' for Inactive)
REMARK    1  A    between atoms: C_2  and  C_3 
REMARK    2  A    between atoms: C_3  and  O_6 
REMARK    3  A    between atoms: C_3  and  C_4 
REMARK    4  A    between atoms: C_7  and  O_6 
REMARK    5  A    between atoms: C_9  and  C_10 
REMARK    6  A    between atoms: N_15  and  C_14 
REMARK    7  A    between atoms: N_20  and  C_19 
REMARK       I    between atoms: C_22  and  N_20 
ROOT
ATOM      1  C   LIG d   1       1.680  88.580 116.062  0.00  0.00     0.161 C 
ATOM      2  C   LIG d   1       0.498  87.822 116.023  0.00  0.00     0.016 C 
ATOM      3  C   LIG d   1      -0.610  88.063 116.869  0.00  0.00     0.038 C 
ATOM      4  C   LIG d   1      -0.668  89.181 117.713  0.00  0.00     0.028 C 
ATOM      5  C   LIG d   1       0.704  89.682 118.151  0.00  0.00    -0.047 C 
ATOM      6  C   LIG d   1       1.591  89.873 116.899  0.00  0.00     0.091 C 
ENDROOT
BRANCH   1   7
ATOM      7  O   LIG d   1       2.112  88.881 114.720  0.00  0.00    -0.368 OA
BRANCH   7   8
ATOM      8  C   LIG d   1       3.300  88.190 114.263  0.00  0.00     0.119 C 
BRANCH   8   9
ATOM      9  C   LIG d   1       4.479  89.177 114.368  0.00  0.00     0.028 C 
ATOM     10  C   LIG d   1       5.409  89.113 113.145  0.00  0.00     0.006 C 
ENDBRANCH   8   9
BRANCH   8  11
ATOM     11  C   LIG d   1       3.201  87.833 112.777  0.00  0.00     0.028 C 
ATOM     12  C   LIG d   1       2.597  86.441 112.538  0.00  0.00     0.006 C 
ENDBRANCH   8  11
ENDBRANCH   7   8
ENDBRANCH   1   7
BRANCH   6  13
ATOM     13  N   LIG d   1       2.978  90.282 117.244  0.00  0.00    -0.311 N 
ATOM     14  C   LIG d   1       3.374  91.552 117.307  0.00  0.00     0.210 C 
ATOM     15  C   LIG d   1       4.851  91.751 117.661  0.00  0.00     0.109 C 
ATOM     16  O   LIG d   1       2.635  92.532 117.136  0.00  0.00    -0.276 OA
ATOM     17  H   LIG d   1       3.636  89.550 117.429  0.00  0.00     0.149 HD
ENDBRANCH   6  13
BRANCH   5  18
ATOM     18  N   LIG d   1       0.501  90.930 118.912  0.00  0.00     0.381 N 
ATOM     19  H   LIG d   1       0.165  91.648 118.302  0.00  0.00    -0.090 HD
ATOM     20  H   LIG d   1       1.383  91.226 119.291  0.00  0.00    -0.090 HD
ATOM     21  H   LIG d   1      -0.151  90.777 119.649  0.00  0.00    -0.090 HD
ENDBRANCH   5  18
BRANCH   3  22
ATOM     22  C   LIG d   1      -1.658  87.156 116.903  0.00  0.00     0.382 C 
ATOM     23  O   LIG d   1      -2.465  87.167 117.864  0.00  0.00    -0.241 OA
ATOM     24  O   LIG d   1      -1.780  86.298 116.009  0.00  0.00    -0.241 OA
ENDBRANCH   3  22
TORSDOF 7
ENDMDL
