MODEL 1
REMARK VINA RESULT:      -5.2      0.000      0.000
REMARK  7 active torsions:
REMARK  status: ('A' for Active; 'I' for Inactive)
REMARK    1  A    between atoms: C_2  and  C_3 
REMARK    2  A    between atoms: C_3  and  O_6 
REMARK    3  A    between atoms: C_3  and  C_4 
REMARK    4  A    between atoms: C_7  and  O_6 
REMARK    5  A    between atoms: C_9  and  C_10 
REMARK    6  A    between atoms: N_15  and  C_14 
REMARK    7  A    between atoms: N_20  and  C_19 
REMARK       I    between atoms: C_22  and  N_20 
ROOT
ATOM      1  C   LIG d   1       3.372  88.606 115.650  0.00  0.00     0.161 C 
ATOM      2  C   LIG d   1       2.484  87.670 115.094  0.00  0.00     0.016 C 
ATOM      3  C   LIG d   1       1.175  87.453 115.582  0.00  0.00     0.038 C 
ATOM      4  C   LIG d   1       0.608  88.271 116.571  0.00  0.00     0.028 C 
ATOM      5  C   LIG d   1       1.638  88.896 117.505  0.00  0.00    -0.047 C 
ATOM      6  C   LIG d   1       2.732  89.585 116.657  0.00  0.00     0.091 C 
ENDROOT
BRANCH   1   7
ATOM      7  O   LIG d   1       4.036  89.334 114.598  0.00  0.00    -0.368 OA
BRANCH   7   8
ATOM      8  C   LIG d   1       5.473  89.169 114.518  0.00  0.00     0.119 C 
BRANCH   8   9
ATOM      9  C   LIG d   1       5.820  88.831 113.055  0.00  0.00     0.028 C 
ATOM     10  C   LIG d   1       5.008  87.639 112.520  0.00  0.00     0.006 C 
ENDBRANCH   8   9
BRANCH   8  11
ATOM     11  C   LIG d   1       5.941  87.961 115.335  0.00  0.00     0.028 C 
ATOM     12  C   LIG d   1       7.359  88.138 115.903  0.00  0.00     0.006 C 
ENDBRANCH   8  11
ENDBRANCH   7   8
ENDBRANCH   1   7
BRANCH   6  13
ATOM     13  N   LIG d   1       3.824  90.150 117.491  0.00  0.00    -0.311 N 
ATOM     14  C   LIG d   1       4.156  91.440 117.490  0.00  0.00     0.210 C 
ATOM     15  C   LIG d   1       5.325  91.808 118.409  0.00  0.00     0.109 C 
ATOM     16  O   LIG d   1       3.572  92.319 116.839  0.00  0.00    -0.276 OA
ATOM     17  H   LIG d   1       4.330  89.511 118.073  0.00  0.00     0.149 HD
ENDBRANCH   6  13
BRANCH   5  18
ATOM     18  N   LIG d   1       0.924  89.829 118.396  0.00  0.00     0.381 N 
ATOM     19  H   LIG d   1       0.731  90.681 117.910  0.00  0.00    -0.090 HD
ATOM     20  H   LIG d   1       1.512  90.041 119.183  0.00  0.00    -0.090 HD
ATOM     21  H   LIG d   1       0.073  89.417 118.709  0.00  0.00    -0.090 HD
ENDBRANCH   5  18
BRANCH   3  22
ATOM     22  C   LIG d   1       0.433  86.382 115.107  0.00  0.00     0.382 C 
ATOM     23  O   LIG d   1      -0.017  85.527 115.908  0.00  0.00    -0.241 OA
ATOM     24  O   LIG d   1       0.246  86.236 113.884  0.00  0.00    -0.241 OA
ENDBRANCH   3  22
TORSDOF 7
ENDMDL
MODEL 2
REMARK VINA RESULT:      -5.0      1.811      4.859
REMARK  7 active torsions:
REMARK  status: ('A' for Active; 'I' for Inactive)
REMARK    1  A    between atoms: C_2  and  C_3 
REMARK    2  A    between atoms: C_3  and  O_6 
REMARK    3  A    between atoms: C_3  and  C_4 
REMARK    4  A    between atoms: C_7  and  O_6 
REMARK    5  A    between atoms: C_9  and  C_10 
REMARK    6  A    between atoms: N_15  and  C_14 
REMARK    7  A    between atoms: N_20  and  C_19 
REMARK       I    between atoms: C_22  and  N_20 
ROOT
ATOM      1  C   LIG d   1       3.114  89.000 116.021  0.00  0.00     0.161 C 
ATOM      2  C   LIG d   1       3.599  90.149 116.666  0.00  0.00     0.016 C 
ATOM      3  C   LIG d   1       2.763  91.107 117.283  0.00  0.00     0.038 C 
ATOM      4  C   LIG d   1       1.383  90.902 117.429  0.00  0.00     0.028 C 
ATOM      5  C   LIG d   1       0.787  90.002 116.352  0.00  0.00    -0.047 C 
ATOM      6  C   LIG d   1       1.620  88.703 116.267  0.00  0.00     0.091 C 
ENDROOT
BRANCH   1   7
ATOM      7  O   LIG d   1       3.917  87.860 116.383  0.00  0.00    -0.368 OA
BRANCH   7   8
ATOM      8  C   LIG d   1       4.866  87.406 115.386  0.00  0.00     0.119 C 
BRANCH   8   9
ATOM      9  C   LIG d   1       4.466  88.044 114.042  0.00  0.00     0.028 C 
ATOM     10  C   LIG d   1       5.618  88.839 113.403  0.00  0.00     0.006 C 
ENDBRANCH   8   9
BRANCH   8  11
ATOM     11  C   LIG d   1       4.761  85.894 115.164  0.00  0.00     0.028 C 
ATOM     12  C   LIG d   1       4.273  85.532 113.753  0.00  0.00     0.006 C 
ENDBRANCH   8  11
ENDBRANCH   7   8
ENDBRANCH   1   7
BRANCH   6  13
ATOM     13  N   LIG d   1       1.155  87.803 115.179  0.00  0.00    -0.311 N 
ATOM     14  C   LIG d   1       0.947  86.498 115.347  0.00  0.00     0.210 C 
ATOM     15  C   LIG d   1       0.489  85.750 114.091  0.00  0.00     0.109 C 
ATOM     16  O   LIG d   1       1.068  85.895 116.424  0.00  0.00    -0.276 OA
ATOM     17  H   LIG d   1       1.002  88.215 114.280  0.00  0.00     0.149 HD
ENDBRANCH   6  13
BRANCH   5  18
ATOM     18  N   LIG d   1      -0.625  89.762 116.704  0.00  0.00     0.381 N 
ATOM     19  H   LIG d   1      -0.815  88.779 116.693  0.00  0.00    -0.090 HD
ATOM     20  H   LIG d   1      -1.211  90.203 116.017  0.00  0.00    -0.090 HD
ATOM     21  H   LIG d   1      -0.821  90.135 117.606  0.00  0.00    -0.090 HD
ENDBRANCH   5  18
BRANCH   3  22
ATOM     22  C   LIG d   1       3.301  92.306 117.727  0.00  0.00     0.382 C 
ATOM     23  O   LIG d   1       4.007  93.000 116.956  0.00  0.00    -0.241 OA
ATOM     24  O   LIG d   1       3.127  92.679 118.903  0.00  0.00    -0.241 OA
ENDBRANCH   3  22
TORSDOF 7
ENDMDL
MODEL 3
REMARK VINA RESULT:      -4.9      2.245      4.238
REMARK  7 active torsions:
REMARK  status: ('A' for Active; 'I' for Inactive)
REMARK    1  A    between atoms: C_2  and  C_3 
REMARK    2  A    between atoms: C_3  and  O_6 
REMARK    3  A    between atoms: C_3  and  C_4 
REMARK    4  A    between atoms: C_7  and  O_6 
REMARK    5  A    between atoms: C_9  and  C_10 
REMARK    6  A    between atoms: N_15  and  C_14 
REMARK    7  A    between atoms: N_20  and  C_19 
REMARK       I    between atoms: C_22  and  N_20 
ROOT
ATOM      1  C   LIG d   1       1.803  88.523 116.051  0.00  0.00     0.161 C 
ATOM      2  C   LIG d   1       0.542  88.878 116.559  0.00  0.00     0.016 C 
ATOM      3  C   LIG d   1       0.298  90.077 117.267  0.00  0.00     0.038 C 
ATOM      4  C   LIG d   1       1.273  91.079 117.386  0.00  0.00     0.028 C 
ATOM      5  C   LIG d   1       2.700  90.546 117.328  0.00  0.00    -0.047 C 
ATOM      6  C   LIG d   1       2.852  89.654 116.075  0.00  0.00     0.091 C 
ENDROOT
BRANCH   1   7
ATOM      7  O   LIG d   1       1.662  87.997 114.717  0.00  0.00    -0.368 OA
BRANCH   7   8
ATOM      8  C   LIG d   1       1.781  86.560 114.581  0.00  0.00     0.119 C 
BRANCH   8   9
ATOM      9  C   LIG d   1       2.810  86.283 113.468  0.00  0.00     0.028 C 
ATOM     10  C   LIG d   1       3.992  85.431 113.961  0.00  0.00     0.006 C 
ENDBRANCH   8   9
BRANCH   8  11
ATOM     11  C   LIG d   1       0.472  85.936 114.088  0.00  0.00     0.028 C 
ATOM     12  C   LIG d   1      -0.494  85.594 115.233  0.00  0.00     0.006 C 
ENDBRANCH   8  11
ENDBRANCH   7   8
ENDBRANCH   1   7
BRANCH   6  13
ATOM     13  N   LIG d   1       4.195  89.023 115.987  0.00  0.00    -0.311 N 
ATOM     14  C   LIG d   1       4.913  88.983 114.866  0.00  0.00     0.210 C 
ATOM     15  C   LIG d   1       6.263  88.268 114.989  0.00  0.00     0.109 C 
ATOM     16  O   LIG d   1       4.576  89.499 113.790  0.00  0.00    -0.276 OA
ATOM     17  H   LIG d   1       4.559  88.607 116.821  0.00  0.00     0.149 HD
ENDBRANCH   6  13
BRANCH   5  18
ATOM     18  N   LIG d   1       3.610  91.707 117.325  0.00  0.00     0.381 N 
ATOM     19  H   LIG d   1       4.251  91.637 118.090  0.00  0.00    -0.090 HD
ATOM     20  H   LIG d   1       3.068  92.545 117.442  0.00  0.00    -0.090 HD
ATOM     21  H   LIG d   1       4.112  91.745 116.465  0.00  0.00    -0.090 HD
ENDBRANCH   5  18
BRANCH   3  22
ATOM     22  C   LIG d   1      -0.921  90.266 117.901  0.00  0.00     0.382 C 
ATOM     23  O   LIG d   1      -1.927  89.614 117.531  0.00  0.00    -0.241 OA
ATOM     24  O   LIG d   1      -1.037  91.111 118.808  0.00  0.00    -0.241 OA
ENDBRANCH   3  22
TORSDOF 7
ENDMDL
MODEL 4
REMARK VINA RESULT:      -4.8      2.727      5.650
REMARK  7 active torsions:
REMARK  status: ('A' for Active; 'I' for Inactive)
REMARK    1  A    between atoms: C_2  and  C_3 
REMARK    2  A    between atoms: C_3  and  O_6 
REMARK    3  A    between atoms: C_3  and  C_4 
REMARK    4  A    between atoms: C_7  and  O_6 
REMARK    5  A    between atoms: C_9  and  C_10 
REMARK    6  A    between atoms: N_15  and  C_14 
REMARK    7  A    between atoms: N_20  and  C_19 
REMARK       I    between atoms: C_22  and  N_20 
ROOT
ATOM      1  C   LIG d   1       1.136  89.571 116.472  0.00  0.00     0.161 C 
ATOM      2  C   LIG d   1       2.414  90.115 116.680  0.00  0.00     0.016 C 
ATOM      3  C   LIG d   1       2.640  91.333 117.362  0.00  0.00     0.038 C 
ATOM      4  C   LIG d   1       1.606  92.018 118.019  0.00  0.00     0.028 C 
ATOM      5  C   LIG d   1       0.232  91.771 117.406  0.00  0.00    -0.047 C 
ATOM      6  C   LIG d   1       0.006  90.247 117.277  0.00  0.00     0.091 C 
ENDROOT
BRANCH   1   7
ATOM      7  O   LIG d   1       1.160  88.154 116.735  0.00  0.00    -0.368 OA
BRANCH   7   8
ATOM      8  C   LIG d   1       1.173  87.290 115.571  0.00  0.00     0.119 C 
BRANCH   8   9
ATOM      9  C   LIG d   1       0.400  86.009 115.937  0.00  0.00     0.028 C 
ATOM     10  C   LIG d   1      -0.861  85.819 115.077  0.00  0.00     0.006 C 
ENDBRANCH   8   9
BRANCH   8  11
ATOM     11  C   LIG d   1       2.594  86.826 115.239  0.00  0.00     0.028 C 
ATOM     12  C   LIG d   1       2.998  87.133 113.788  0.00  0.00     0.006 C 
ENDBRANCH   8  11
ENDBRANCH   7   8
ENDBRANCH   1   7
BRANCH   6  13
ATOM     13  N   LIG d   1      -1.280  89.919 116.609  0.00  0.00    -0.311 N 
ATOM     14  C   LIG d   1      -2.412  89.686 117.271  0.00  0.00     0.210 C 
ATOM     15  C   LIG d   1      -3.618  89.346 116.391  0.00  0.00     0.109 C 
ATOM     16  O   LIG d   1      -2.538  89.760 118.503  0.00  0.00    -0.276 OA
ATOM     17  H   LIG d   1      -1.275  89.869 115.609  0.00  0.00     0.149 HD
ENDBRANCH   6  13
BRANCH   5  18
ATOM     18  N   LIG d   1      -0.766  92.432 118.268  0.00  0.00     0.381 N 
ATOM     19  H   LIG d   1      -1.361  91.745 118.686  0.00  0.00    -0.090 HD
ATOM     20  H   LIG d   1      -1.333  93.039 117.703  0.00  0.00    -0.090 HD
ATOM     21  H   LIG d   1      -0.307  92.960 118.978  0.00  0.00    -0.090 HD
ENDBRANCH   5  18
BRANCH   3  22
ATOM     22  C   LIG d   1       3.906  91.898 117.359  0.00  0.00     0.382 C 
ATOM     23  O   LIG d   1       4.063  93.083 116.976  0.00  0.00    -0.241 OA
ATOM     24  O   LIG d   1       4.900  91.225 117.692  0.00  0.00    -0.241 OA
ENDBRANCH   3  22
TORSDOF 7
ENDMDL
MODEL 5
REMARK VINA RESULT:      -4.8      2.656      3.713
REMARK  7 active torsions:
REMARK  status: ('A' for Active; 'I' for Inactive)
REMARK    1  A    between atoms: C_2  and  C_3 
REMARK    2  A    between atoms: C_3  and  O_6 
REMARK    3  A    between atoms: C_3  and  C_4 
REMARK    4  A    between atoms: C_7  and  O_6 
REMARK    5  A    between atoms: C_9  and  C_10 
REMARK    6  A    between atoms: N_15  and  C_14 
REMARK    7  A    between atoms: N_20  and  C_19 
REMARK       I    between atoms: C_22  and  N_20 
ROOT
ATOM      1  C   LIG d   1       0.865  89.487 117.142  0.00  0.00     0.161 C 
ATOM      2  C   LIG d   1      -0.511  89.225 117.032  0.00  0.00     0.016 C 
ATOM      3  C   LIG d   1      -1.507  90.042 117.615  0.00  0.00     0.038 C 
ATOM      4  C   LIG d   1      -1.199  91.268 118.223  0.00  0.00     0.028 C 
ATOM      5  C   LIG d   1       0.213  91.321 118.798  0.00  0.00    -0.047 C 
ATOM      6  C   LIG d   1       1.215  90.879 117.707  0.00  0.00     0.091 C 
ENDROOT
BRANCH   1   7
ATOM      7  O   LIG d   1       1.503  89.289 115.865  0.00  0.00    -0.368 OA
BRANCH   7   8
ATOM      8  C   LIG d   1       2.387  88.145 115.764  0.00  0.00     0.119 C 
BRANCH   8   9
ATOM      9  C   LIG d   1       3.793  88.675 115.422  0.00  0.00     0.028 C 
ATOM     10  C   LIG d   1       4.572  87.720 114.502  0.00  0.00     0.006 C 
ENDBRANCH   8   9
BRANCH   8  11
ATOM     11  C   LIG d   1       1.997  87.242 114.591  0.00  0.00     0.028 C 
ATOM     12  C   LIG d   1       0.747  86.395 114.880  0.00  0.00     0.006 C 
ENDBRANCH   8  11
ENDBRANCH   7   8
ENDBRANCH   1   7
BRANCH   6  13
ATOM     13  N   LIG d   1       2.612  90.822 118.211  0.00  0.00    -0.311 N 
ATOM     14  C   LIG d   1       3.591  91.599 117.750  0.00  0.00     0.210 C 
ATOM     15  C   LIG d   1       4.961  91.363 118.393  0.00  0.00     0.109 C 
ATOM     16  O   LIG d   1       3.447  92.483 116.892  0.00  0.00    -0.276 OA
ATOM     17  H   LIG d   1       2.811  90.154 118.930  0.00  0.00     0.149 HD
ENDBRANCH   6  13
BRANCH   5  18
ATOM     18  N   LIG d   1       0.448  92.696 119.276  0.00  0.00     0.381 N 
ATOM     19  H   LIG d   1       0.621  93.301 118.498  0.00  0.00    -0.090 HD
ATOM     20  H   LIG d   1       1.261  92.700 119.866  0.00  0.00    -0.090 HD
ATOM     21  H   LIG d   1      -0.344  93.019 119.788  0.00  0.00    -0.090 HD
ENDBRANCH   5  18
BRANCH   3  22
ATOM     22  C   LIG d   1      -2.826  89.614 117.627  0.00  0.00     0.382 C 
ATOM     23  O   LIG d   1      -3.460  89.567 118.708  0.00  0.00    -0.241 OA
ATOM     24  O   LIG d   1      -3.376  89.233 116.576  0.00  0.00    -0.241 OA
ENDBRANCH   3  22
TORSDOF 7
ENDMDL
MODEL 6
REMARK VINA RESULT:      -4.7      2.300      4.186
REMARK  7 active torsions:
REMARK  status: ('A' for Active; 'I' for Inactive)
REMARK    1  A    between atoms: C_2  and  C_3 
REMARK    2  A    between atoms: C_3  and  O_6 
REMARK    3  A    between atoms: C_3  and  C_4 
REMARK    4  A    between atoms: C_7  and  O_6 
REMARK    5  A    between atoms: C_9  and  C_10 
REMARK    6  A    between atoms: N_15  and  C_14 
REMARK    7  A    between atoms: N_20  and  C_19 
REMARK       I    between atoms: C_22  and  N_20 
ROOT
ATOM      1  C   LIG d   1       1.757  88.774 116.192  0.00  0.00     0.161 C 
ATOM      2  C   LIG d   1       0.503  89.185 116.671  0.00  0.00     0.016 C 
ATOM      3  C   LIG d   1       0.286  90.420 117.326  0.00  0.00     0.038 C 
ATOM      4  C   LIG d   1       1.287  91.399 117.412  0.00  0.00     0.028 C 
ATOM      5  C   LIG d   1       2.700  90.824 117.391  0.00  0.00    -0.047 C 
ATOM      6  C   LIG d   1       2.838  89.875 116.179  0.00  0.00     0.091 C 
ENDROOT
BRANCH   1   7
ATOM      7  O   LIG d   1       1.614  88.196 114.880  0.00  0.00    -0.368 OA
BRANCH   7   8
ATOM      8  C   LIG d   1       1.742  86.755 114.800  0.00  0.00     0.119 C 
BRANCH   8   9
ATOM      9  C   LIG d   1       0.320  86.162 114.824  0.00  0.00     0.028 C 
ATOM     10  C   LIG d   1      -0.062  85.499 113.490  0.00  0.00     0.006 C 
ENDBRANCH   8   9
BRANCH   8  11
ATOM     11  C   LIG d   1       2.438  86.188 116.041  0.00  0.00     0.028 C 
ATOM     12  C   LIG d   1       3.769  85.494 115.712  0.00  0.00     0.006 C 
ENDBRANCH   8  11
ENDBRANCH   7   8
ENDBRANCH   1   7
BRANCH   6  13
ATOM     13  N   LIG d   1       4.163  89.205 116.131  0.00  0.00    -0.311 N 
ATOM     14  C   LIG d   1       4.871  89.057 115.012  0.00  0.00     0.210 C 
ATOM     15  C   LIG d   1       6.202  88.319 115.182  0.00  0.00     0.109 C 
ATOM     16  O   LIG d   1       4.537  89.496 113.901  0.00  0.00    -0.276 OA
ATOM     17  H   LIG d   1       4.524  88.847 116.994  0.00  0.00     0.149 HD
ENDBRANCH   6  13
BRANCH   5  18
ATOM     18  N   LIG d   1       3.642  91.958 117.348  0.00  0.00     0.381 N 
ATOM     19  H   LIG d   1       4.481  91.721 117.839  0.00  0.00    -0.090 HD
ATOM     20  H   LIG d   1       3.221  92.748 117.805  0.00  0.00    -0.090 HD
ATOM     21  H   LIG d   1       3.856  92.188 116.402  0.00  0.00    -0.090 HD
ENDBRANCH   5  18
BRANCH   3  22
ATOM     22  C   LIG d   1      -0.933  90.669 117.938  0.00  0.00     0.382 C 
ATOM     23  O   LIG d   1      -1.725  89.723 118.166  0.00  0.00    -0.241 OA
ATOM     24  O   LIG d   1      -1.269  91.833 118.225  0.00  0.00    -0.241 OA
ENDBRANCH   3  22
TORSDOF 7
ENDMDL
MODEL 7
REMARK VINA RESULT:      -4.5      2.521      6.016
REMARK  7 active torsions:
REMARK  status: ('A' for Active; 'I' for Inactive)
REMARK    1  A    between atoms: C_2  and  C_3 
REMARK    2  A    between atoms: C_3  and  O_6 
REMARK    3  A    between atoms: C_3  and  C_4 
REMARK    4  A    between atoms: C_7  and  O_6 
REMARK    5  A    between atoms: C_9  and  C_10 
REMARK    6  A    between atoms: N_15  and  C_14 
REMARK    7  A    between atoms: N_20  and  C_19 
REMARK       I    between atoms: C_22  and  N_20 
ROOT
ATOM      1  C   LIG d   1       4.545  89.583 116.851  0.00  0.00     0.161 C 
ATOM      2  C   LIG d   1       5.922  89.845 116.944  0.00  0.00     0.016 C 
ATOM      3  C   LIG d   1       6.911  89.026 116.352  0.00  0.00     0.038 C 
ATOM      4  C   LIG d   1       6.581  87.967 115.494  0.00  0.00     0.028 C 
ATOM      5  C   LIG d   1       5.210  87.362 115.779  0.00  0.00    -0.047 C 
ATOM      6  C   LIG d   1       4.161  88.495 115.827  0.00  0.00     0.091 C 
ENDROOT
BRANCH   1   7
ATOM      7  O   LIG d   1       3.833  90.806 116.575  0.00  0.00    -0.368 OA
BRANCH   7   8
ATOM      8  C   LIG d   1       3.654  91.707 117.695  0.00  0.00     0.119 C 
BRANCH   8   9
ATOM      9  C   LIG d   1       2.162  92.087 117.750  0.00  0.00     0.028 C 
ATOM     10  C   LIG d   1       1.250  90.959 117.239  0.00  0.00     0.006 C 
ENDBRANCH   8   9
BRANCH   8  11
ATOM     11  C   LIG d   1       4.401  93.026 117.474  0.00  0.00     0.028 C 
ATOM     12  C   LIG d   1       5.424  93.324 118.582  0.00  0.00     0.006 C 
ENDBRANCH   8  11
ENDBRANCH   7   8
ENDBRANCH   1   7
BRANCH   6  13
ATOM     13  N   LIG d   1       2.806  87.999 116.184  0.00  0.00    -0.311 N 
ATOM     14  C   LIG d   1       1.870  87.711 115.281  0.00  0.00     0.210 C 
ATOM     15  C   LIG d   1       0.536  87.234 115.864  0.00  0.00     0.109 C 
ATOM     16  O   LIG d   1       2.027  87.776 114.053  0.00  0.00    -0.276 OA
ATOM     17  H   LIG d   1       2.603  87.888 117.158  0.00  0.00     0.149 HD
ENDBRANCH   6  13
BRANCH   5  18
ATOM     18  N   LIG d   1       4.936  86.364 114.727  0.00  0.00     0.381 N 
ATOM     19  H   LIG d   1       4.418  86.789 113.984  0.00  0.00    -0.090 HD
ATOM     20  H   LIG d   1       4.379  85.625 115.118  0.00  0.00    -0.090 HD
ATOM     21  H   LIG d   1       5.793  85.995 114.376  0.00  0.00    -0.090 HD
ENDBRANCH   5  18
BRANCH   3  22
ATOM     22  C   LIG d   1       8.248  89.240 116.650  0.00  0.00     0.382 C 
ATOM     23  O   LIG d   1       8.668  90.406 116.845  0.00  0.00    -0.241 OA
ATOM     24  O   LIG d   1       9.049  88.287 116.682  0.00  0.00    -0.241 OA
ENDBRANCH   3  22
TORSDOF 7
ENDMDL
MODEL 8
REMARK VINA RESULT:      -4.2      2.578      4.443
REMARK  7 active torsions:
REMARK  status: ('A' for Active; 'I' for Inactive)
REMARK    1  A    between atoms: C_2  and  C_3 
REMARK    2  A    between atoms: C_3  and  O_6 
REMARK    3  A    between atoms: C_3  and  C_4 
REMARK    4  A    between atoms: C_7  and  O_6 
REMARK    5  A    between atoms: C_9  and  C_10 
REMARK    6  A    between atoms: N_15  and  C_14 
REMARK    7  A    between atoms: N_20  and  C_19 
REMARK       I    between atoms: C_22  and  N_20 
ROOT
ATOM      1  C   LIG d   1       3.903  89.426 116.230  0.00  0.00     0.161 C 
ATOM      2  C   LIG d   1       2.813  90.251 116.555  0.00  0.00     0.016 C 
ATOM      3  C   LIG d   1       2.889  91.308 117.491  0.00  0.00     0.038 C 
ATOM      4  C   LIG d   1       4.108  91.710 118.058  0.00  0.00     0.028 C 
ATOM      5  C   LIG d   1       5.136  90.587 118.144  0.00  0.00    -0.047 C 
ATOM      6  C   LIG d   1       5.267  89.920 116.756  0.00  0.00     0.091 C 
ENDROOT
BRANCH   1   7
ATOM      7  O   LIG d   1       3.957  89.227 114.804  0.00  0.00    -0.368 OA
BRANCH   7   8
ATOM      8  C   LIG d   1       4.027  87.851 114.354  0.00  0.00     0.119 C 
BRANCH   8   9
ATOM      9  C   LIG d   1       4.861  87.829 113.059  0.00  0.00     0.028 C 
ATOM     10  C   LIG d   1       5.964  88.902 113.053  0.00  0.00     0.006 C 
ENDBRANCH   8   9
BRANCH   8  11
ATOM     11  C   LIG d   1       2.645  87.325 113.956  0.00  0.00     0.028 C 
ATOM     12  C   LIG d   1       2.046  86.373 115.003  0.00  0.00     0.006 C 
ENDBRANCH   8  11
ENDBRANCH   7   8
ENDBRANCH   1   7
BRANCH   6  13
ATOM     13  N   LIG d   1       6.191  88.755 116.771  0.00  0.00    -0.311 N 
ATOM     14  C   LIG d   1       7.500  88.855 116.548  0.00  0.00     0.210 C 
ATOM     15  C   LIG d   1       8.266  87.530 116.591  0.00  0.00     0.109 C 
ATOM     16  O   LIG d   1       8.104  89.920 116.350  0.00  0.00    -0.276 OA
ATOM     17  H   LIG d   1       5.789  87.857 116.955  0.00  0.00     0.149 HD
ENDBRANCH   6  13
BRANCH   5  18
ATOM     18  N   LIG d   1       6.400  91.176 118.624  0.00  0.00     0.381 N 
ATOM     19  H   LIG d   1       6.671  90.741 119.484  0.00  0.00    -0.090 HD
ATOM     20  H   LIG d   1       6.257  92.155 118.798  0.00  0.00    -0.090 HD
ATOM     21  H   LIG d   1       7.115  91.052 117.941  0.00  0.00    -0.090 HD
ENDBRANCH   5  18
BRANCH   3  22
ATOM     22  C   LIG d   1       1.730  91.950 117.898  0.00  0.00     0.382 C 
ATOM     23  O   LIG d   1       1.693  92.532 119.009  0.00  0.00    -0.241 OA
ATOM     24  O   LIG d   1       0.706  91.916 117.189  0.00  0.00    -0.241 OA
ENDBRANCH   3  22
TORSDOF 7
ENDMDL
MODEL 9
REMARK VINA RESULT:      -4.2      2.274      4.156
REMARK  7 active torsions:
REMARK  status: ('A' for Active; 'I' for Inactive)
REMARK    1  A    between atoms: C_2  and  C_3 
REMARK    2  A    between atoms: C_3  and  O_6 
REMARK    3  A    between atoms: C_3  and  C_4 
REMARK    4  A    between atoms: C_7  and  O_6 
REMARK    5  A    between atoms: C_9  and  C_10 
REMARK    6  A    between atoms: N_15  and  C_14 
REMARK    7  A    between atoms: N_20  and  C_19 
REMARK       I    between atoms: C_22  and  N_20 
ROOT
ATOM      1  C   LIG d   1       3.512  88.745 115.836  0.00  0.00     0.161 C 
ATOM      2  C   LIG d   1       2.928  89.873 116.434  0.00  0.00     0.016 C 
ATOM      3  C   LIG d   1       1.580  89.919 116.859  0.00  0.00     0.038 C 
ATOM      4  C   LIG d   1       0.762  88.779 116.852  0.00  0.00     0.028 C 
ATOM      5  C   LIG d   1       1.156  87.756 115.792  0.00  0.00    -0.047 C 
ATOM      6  C   LIG d   1       2.667  87.456 115.922  0.00  0.00     0.091 C 
ENDROOT
BRANCH   1   7
ATOM      7  O   LIG d   1       4.823  88.522 116.392  0.00  0.00    -0.368 OA
BRANCH   7   8
ATOM      8  C   LIG d   1       5.926  89.155 115.697  0.00  0.00     0.119 C 
BRANCH   8   9
ATOM      9  C   LIG d   1       6.294  88.259 114.498  0.00  0.00     0.028 C 
ATOM     10  C   LIG d   1       5.934  88.906 113.150  0.00  0.00     0.006 C 
ENDBRANCH   8   9
BRANCH   8  11
ATOM     11  C   LIG d   1       7.183  89.199 116.571  0.00  0.00     0.028 C 
ATOM     12  C   LIG d   1       7.190  88.115 117.661  0.00  0.00     0.006 C 
ENDBRANCH   8  11
ENDBRANCH   7   8
ENDBRANCH   1   7
BRANCH   6  13
ATOM     13  N   LIG d   1       3.153  86.528 114.869  0.00  0.00    -0.311 N 
ATOM     14  C   LIG d   1       2.992  86.749 113.565  0.00  0.00     0.210 C 
ATOM     15  C   LIG d   1       3.551  85.656 112.650  0.00  0.00     0.109 C 
ATOM     16  O   LIG d   1       2.467  87.763 113.079  0.00  0.00    -0.276 OA
ATOM     17  H   LIG d   1       3.619  85.696 115.173  0.00  0.00     0.149 HD
ENDBRANCH   6  13
BRANCH   5  18
ATOM     18  N   LIG d   1       0.311  86.563 115.988  0.00  0.00     0.381 N 
ATOM     19  H   LIG d   1      -0.622  86.756 115.683  0.00  0.00    -0.090 HD
ATOM     20  H   LIG d   1       0.283  86.342 116.967  0.00  0.00    -0.090 HD
ATOM     21  H   LIG d   1       0.683  85.794 115.476  0.00  0.00    -0.090 HD
ENDBRANCH   5  18
BRANCH   3  22
ATOM     22  C   LIG d   1       1.026  91.125 117.260  0.00  0.00     0.382 C 
ATOM     23  O   LIG d   1       1.734  92.160 117.293  0.00  0.00    -0.241 OA
ATOM     24  O   LIG d   1      -0.162  91.183 117.630  0.00  0.00    -0.241 OA
ENDBRANCH   3  22
TORSDOF 7
ENDMDL
