MODEL 1
REMARK VINA RESULT:      -4.9      0.000      0.000
REMARK  7 active torsions:
REMARK  status: ('A' for Active; 'I' for Inactive)
REMARK    1  A    between atoms: C_2  and  C_3 
REMARK    2  A    between atoms: C_3  and  O_6 
REMARK    3  A    between atoms: C_3  and  C_4 
REMARK    4  A    between atoms: C_7  and  O_6 
REMARK    5  A    between atoms: C_9  and  C_10 
REMARK    6  A    between atoms: N_15  and  C_14 
REMARK    7  A    between atoms: N_20  and  C_19 
REMARK       I    between atoms: C_22  and  N_20 
ROOT
ATOM      1  C   LIG d   1      -0.759  90.877 116.918  0.00  0.00     0.161 C 
ATOM      2  C   LIG d   1       0.566  91.225 117.231  0.00  0.00     0.016 C 
ATOM      3  C   LIG d   1       0.947  92.510 117.681  0.00  0.00     0.038 C 
ATOM      4  C   LIG d   1      -0.000  93.497 117.995  0.00  0.00     0.028 C 
ATOM      5  C   LIG d   1      -1.303  93.356 117.215  0.00  0.00    -0.047 C 
ATOM      6  C   LIG d   1      -1.820  91.906 117.360  0.00  0.00     0.091 C 
ENDROOT
BRANCH   1   7
ATOM      7  O   LIG d   1      -1.064  89.577 117.462  0.00  0.00    -0.368 OA
BRANCH   7   8
ATOM      8  C   LIG d   1      -0.681  89.358 118.842  0.00  0.00     0.119 C 
BRANCH   8   9
ATOM      9  C   LIG d   1      -0.125  87.925 118.946  0.00  0.00     0.028 C 
ATOM     10  C   LIG d   1       0.278  87.351 117.577  0.00  0.00     0.006 C 
ENDBRANCH   8   9
BRANCH   8  11
ATOM     11  C   LIG d   1      -1.898  89.389 119.770  0.00  0.00     0.028 C 
ATOM     12  C   LIG d   1      -3.145  88.747 119.140  0.00  0.00     0.006 C 
ENDBRANCH   8  11
ENDBRANCH   7   8
ENDBRANCH   1   7
BRANCH   6  13
ATOM     13  N   LIG d   1      -3.047  91.659 116.558  0.00  0.00    -0.311 N 
ATOM     14  C   LIG d   1      -4.279  91.750 117.056  0.00  0.00     0.210 C 
ATOM     15  C   LIG d   1      -5.402  91.435 116.064  0.00  0.00     0.109 C 
ATOM     16  O   LIG d   1      -4.548  92.092 118.218  0.00  0.00    -0.276 OA
ATOM     17  H   LIG d   1      -2.921  91.407 115.597  0.00  0.00     0.149 HD
ENDBRANCH   6  13
BRANCH   5  18
ATOM     18  N   LIG d   1      -2.247  94.361 117.738  0.00  0.00     0.381 N 
ATOM     19  H   LIG d   1      -1.870  94.783 118.563  0.00  0.00    -0.090 HD
ATOM     20  H   LIG d   1      -3.107  93.903 117.983  0.00  0.00    -0.090 HD
ATOM     21  H   LIG d   1      -2.418  95.059 117.049  0.00  0.00    -0.090 HD
ENDBRANCH   5  18
BRANCH   3  22
ATOM     22  C   LIG d   1       2.291  92.832 117.784  0.00  0.00     0.382 C 
ATOM     23  O   LIG d   1       2.678  93.640 118.663  0.00  0.00    -0.241 OA
ATOM     24  O   LIG d   1       3.117  92.359 116.980  0.00  0.00    -0.241 OA
ENDBRANCH   3  22
TORSDOF 7
ENDMDL
MODEL 2
REMARK VINA RESULT:      -4.4      1.181      2.077
REMARK  7 active torsions:
REMARK  status: ('A' for Active; 'I' for Inactive)
REMARK    1  A    between atoms: C_2  and  C_3 
REMARK    2  A    between atoms: C_3  and  O_6 
REMARK    3  A    between atoms: C_3  and  C_4 
REMARK    4  A    between atoms: C_7  and  O_6 
REMARK    5  A    between atoms: C_9  and  C_10 
REMARK    6  A    between atoms: N_15  and  C_14 
REMARK    7  A    between atoms: N_20  and  C_19 
REMARK       I    between atoms: C_22  and  N_20 
ROOT
ATOM      1  C   LIG d   1      -0.186  90.334 117.633  0.00  0.00     0.161 C 
ATOM      2  C   LIG d   1       1.198  90.508 117.798  0.00  0.00     0.016 C 
ATOM      3  C   LIG d   1       1.855  91.745 117.601  0.00  0.00     0.038 C 
ATOM      4  C   LIG d   1       1.146  92.933 117.371  0.00  0.00     0.028 C 
ATOM      5  C   LIG d   1      -0.205  92.712 116.699  0.00  0.00    -0.047 C 
ATOM      6  C   LIG d   1      -0.991  91.643 117.491  0.00  0.00     0.091 C 
ENDROOT
BRANCH   1   7
ATOM      7  O   LIG d   1      -0.711  89.538 118.715  0.00  0.00    -0.368 OA
BRANCH   7   8
ATOM      8  C   LIG d   1      -1.037  88.164 118.395  0.00  0.00     0.119 C 
BRANCH   8   9
ATOM      9  C   LIG d   1      -2.261  87.769 119.244  0.00  0.00     0.028 C 
ATOM     10  C   LIG d   1      -3.195  88.960 119.517  0.00  0.00     0.006 C 
ENDBRANCH   8   9
BRANCH   8  11
ATOM     11  C   LIG d   1       0.081  87.210 118.826  0.00  0.00     0.028 C 
ATOM     12  C   LIG d   1       0.841  86.605 117.636  0.00  0.00     0.006 C 
ENDBRANCH   8  11
ENDBRANCH   7   8
ENDBRANCH   1   7
BRANCH   6  13
ATOM     13  N   LIG d   1      -2.290  91.305 116.853  0.00  0.00    -0.311 N 
ATOM     14  C   LIG d   1      -3.438  91.905 117.165  0.00  0.00     0.210 C 
ATOM     15  C   LIG d   1      -4.663  91.392 116.402  0.00  0.00     0.109 C 
ATOM     16  O   LIG d   1      -3.552  92.835 117.978  0.00  0.00    -0.276 OA
ATOM     17  H   LIG d   1      -2.283  90.583 116.160  0.00  0.00     0.149 HD
ENDBRANCH   6  13
BRANCH   5  18
ATOM     18  N   LIG d   1      -0.894  94.015 116.644  0.00  0.00     0.381 N 
ATOM     19  H   LIG d   1      -0.758  94.506 117.505  0.00  0.00    -0.090 HD
ATOM     20  H   LIG d   1      -1.879  93.857 116.524  0.00  0.00    -0.090 HD
ATOM     21  H   LIG d   1      -0.542  94.556 115.886  0.00  0.00    -0.090 HD
ENDBRANCH   5  18
BRANCH   3  22
ATOM     22  C   LIG d   1       3.241  91.793 117.594  0.00  0.00     0.382 C 
ATOM     23  O   LIG d   1       3.902  90.889 118.160  0.00  0.00    -0.241 OA
ATOM     24  O   LIG d   1       3.837  92.751 117.067  0.00  0.00    -0.241 OA
ENDBRANCH   3  22
TORSDOF 7
ENDMDL
MODEL 3
REMARK VINA RESULT:      -4.4      4.195      5.762
REMARK  7 active torsions:
REMARK  status: ('A' for Active; 'I' for Inactive)
REMARK    1  A    between atoms: C_2  and  C_3 
REMARK    2  A    between atoms: C_3  and  O_6 
REMARK    3  A    between atoms: C_3  and  C_4 
REMARK    4  A    between atoms: C_7  and  O_6 
REMARK    5  A    between atoms: C_9  and  C_10 
REMARK    6  A    between atoms: N_15  and  C_14 
REMARK    7  A    between atoms: N_20  and  C_19 
REMARK       I    between atoms: C_22  and  N_20 
ROOT
ATOM      1  C   LIG d   1       2.828  88.978 116.510  0.00  0.00     0.161 C 
ATOM      2  C   LIG d   1       3.328  89.715 117.596  0.00  0.00     0.016 C 
ATOM      3  C   LIG d   1       4.486  90.523 117.521  0.00  0.00     0.038 C 
ATOM      4  C   LIG d   1       5.141  90.770 116.304  0.00  0.00     0.028 C 
ATOM      5  C   LIG d   1       4.969  89.647 115.286  0.00  0.00    -0.047 C 
ATOM      6  C   LIG d   1       3.465  89.322 115.147  0.00  0.00     0.091 C 
ENDROOT
BRANCH   1   7
ATOM      7  O   LIG d   1       1.395  89.118 116.443  0.00  0.00    -0.368 OA
BRANCH   7   8
ATOM      8  C   LIG d   1       0.791  89.976 117.442  0.00  0.00     0.119 C 
BRANCH   8   9
ATOM      9  C   LIG d   1      -0.451  89.246 117.989  0.00  0.00     0.028 C 
ATOM     10  C   LIG d   1      -0.274  87.719 118.007  0.00  0.00     0.006 C 
ENDBRANCH   8   9
BRANCH   8  11
ATOM     11  C   LIG d   1       0.260  91.270 116.818  0.00  0.00     0.028 C 
ATOM     12  C   LIG d   1       1.013  92.519 117.303  0.00  0.00     0.006 C 
ENDBRANCH   8  11
ENDBRANCH   7   8
ENDBRANCH   1   7
BRANCH   6  13
ATOM     13  N   LIG d   1       3.215  88.178 114.232  0.00  0.00    -0.311 N 
ATOM     14  C   LIG d   1       2.322  88.211 113.243  0.00  0.00     0.210 C 
ATOM     15  C   LIG d   1       2.208  86.916 112.432  0.00  0.00     0.109 C 
ATOM     16  O   LIG d   1       1.638  89.200 112.941  0.00  0.00    -0.276 OA
ATOM     17  H   LIG d   1       3.749  87.345 114.386  0.00  0.00     0.149 HD
ENDBRANCH   6  13
BRANCH   5  18
ATOM     18  N   LIG d   1       5.584  90.095 114.022  0.00  0.00     0.381 N 
ATOM     19  H   LIG d   1       4.950  89.940 113.264  0.00  0.00    -0.090 HD
ATOM     20  H   LIG d   1       6.414  89.554 113.854  0.00  0.00    -0.090 HD
ATOM     21  H   LIG d   1       5.815  91.062 114.079  0.00  0.00    -0.090 HD
ENDBRANCH   5  18
BRANCH   3  22
ATOM     22  C   LIG d   1       5.024  91.063 118.679  0.00  0.00     0.382 C 
ATOM     23  O   LIG d   1       4.445  92.016 119.254  0.00  0.00    -0.241 OA
ATOM     24  O   LIG d   1       6.104  90.638 119.131  0.00  0.00    -0.241 OA
ENDBRANCH   3  22
TORSDOF 7
ENDMDL
MODEL 4
REMARK VINA RESULT:      -4.3      5.359      8.362
REMARK  7 active torsions:
REMARK  status: ('A' for Active; 'I' for Inactive)
REMARK    1  A    between atoms: C_2  and  C_3 
REMARK    2  A    between atoms: C_3  and  O_6 
REMARK    3  A    between atoms: C_3  and  C_4 
REMARK    4  A    between atoms: C_7  and  O_6 
REMARK    5  A    between atoms: C_9  and  C_10 
REMARK    6  A    between atoms: N_15  and  C_14 
REMARK    7  A    between atoms: N_20  and  C_19 
REMARK       I    between atoms: C_22  and  N_20 
ROOT
ATOM      1  C   LIG d   1       5.025  90.208 115.520  0.00  0.00     0.161 C 
ATOM      2  C   LIG d   1       3.966  89.783 114.701  0.00  0.00     0.016 C 
ATOM      3  C   LIG d   1       3.540  88.437 114.614  0.00  0.00     0.038 C 
ATOM      4  C   LIG d   1       4.051  87.442 115.461  0.00  0.00     0.028 C 
ATOM      5  C   LIG d   1       5.469  87.727 115.944  0.00  0.00    -0.047 C 
ATOM      6  C   LIG d   1       5.521  89.156 116.534  0.00  0.00     0.091 C 
ENDROOT
BRANCH   1   7
ATOM      7  O   LIG d   1       4.659  91.425 116.200  0.00  0.00    -0.368 OA
BRANCH   7   8
ATOM      8  C   LIG d   1       3.897  91.268 117.422  0.00  0.00     0.119 C 
BRANCH   8   9
ATOM      9  C   LIG d   1       2.519  91.919 117.195  0.00  0.00     0.028 C 
ATOM     10  C   LIG d   1       1.394  90.879 117.065  0.00  0.00     0.006 C 
ENDBRANCH   8   9
BRANCH   8  11
ATOM     11  C   LIG d   1       4.530  92.050 118.577  0.00  0.00     0.028 C 
ATOM     12  C   LIG d   1       5.761  92.861 118.144  0.00  0.00     0.006 C 
ENDBRANCH   8  11
ENDBRANCH   7   8
ENDBRANCH   1   7
BRANCH   6  13
ATOM     13  N   LIG d   1       6.892  89.546 116.953  0.00  0.00    -0.311 N 
ATOM     14  C   LIG d   1       7.331  89.449 118.207  0.00  0.00     0.210 C 
ATOM     15  C   LIG d   1       8.770  89.925 118.427  0.00  0.00     0.109 C 
ATOM     16  O   LIG d   1       6.675  88.985 119.152  0.00  0.00    -0.276 OA
ATOM     17  H   LIG d   1       7.501  89.905 116.244  0.00  0.00     0.149 HD
ENDBRANCH   6  13
BRANCH   5  18
ATOM     18  N   LIG d   1       5.825  86.684 116.924  0.00  0.00     0.381 N 
ATOM     19  H   LIG d   1       5.000  86.366 117.394  0.00  0.00    -0.090 HD
ATOM     20  H   LIG d   1       6.445  87.079 117.609  0.00  0.00    -0.090 HD
ATOM     21  H   LIG d   1       6.269  85.921 116.464  0.00  0.00    -0.090 HD
ENDBRANCH   5  18
BRANCH   3  22
ATOM     22  C   LIG d   1       2.621  88.068 113.644  0.00  0.00     0.382 C 
ATOM     23  O   LIG d   1       2.493  86.860 113.329  0.00  0.00    -0.241 OA
ATOM     24  O   LIG d   1       1.950  88.932 113.048  0.00  0.00    -0.241 OA
ENDBRANCH   3  22
TORSDOF 7
ENDMDL
MODEL 5
REMARK VINA RESULT:      -4.2      4.184      6.457
REMARK  7 active torsions:
REMARK  status: ('A' for Active; 'I' for Inactive)
REMARK    1  A    between atoms: C_2  and  C_3 
REMARK    2  A    between atoms: C_3  and  O_6 
REMARK    3  A    between atoms: C_3  and  C_4 
REMARK    4  A    between atoms: C_7  and  O_6 
REMARK    5  A    between atoms: C_9  and  C_10 
REMARK    6  A    between atoms: N_15  and  C_14 
REMARK    7  A    between atoms: N_20  and  C_19 
REMARK       I    between atoms: C_22  and  N_20 
ROOT
ATOM      1  C   LIG d   1       2.664  90.372 116.900  0.00  0.00     0.161 C 
ATOM      2  C   LIG d   1       2.446  89.752 115.658  0.00  0.00     0.016 C 
ATOM      3  C   LIG d   1       3.478  89.168 114.888  0.00  0.00     0.038 C 
ATOM      4  C   LIG d   1       4.784  89.031 115.382  0.00  0.00     0.028 C 
ATOM      5  C   LIG d   1       5.156  90.090 116.413  0.00  0.00    -0.047 C 
ATOM      6  C   LIG d   1       4.063  90.133 117.505  0.00  0.00     0.091 C 
ENDROOT
BRANCH   1   7
ATOM      7  O   LIG d   1       1.640  89.971 117.832  0.00  0.00    -0.368 OA
BRANCH   7   8
ATOM      8  C   LIG d   1       0.654  90.979 118.168  0.00  0.00     0.119 C 
BRANCH   8   9
ATOM      9  C   LIG d   1      -0.719  90.456 117.703  0.00  0.00     0.028 C 
ATOM     10  C   LIG d   1      -0.917  88.965 118.019  0.00  0.00     0.006 C 
ENDBRANCH   8   9
BRANCH   8  11
ATOM     11  C   LIG d   1       0.886  92.270 117.377  0.00  0.00     0.028 C 
ATOM     12  C   LIG d   1       0.905  93.520 118.271  0.00  0.00     0.006 C 
ENDBRANCH   8  11
ENDBRANCH   7   8
ENDBRANCH   1   7
BRANCH   6  13
ATOM     13  N   LIG d   1       4.307  91.201 118.509  0.00  0.00    -0.311 N 
ATOM     14  C   LIG d   1       4.459  92.486 118.191  0.00  0.00     0.210 C 
ATOM     15  C   LIG d   1       4.721  93.419 119.378  0.00  0.00     0.109 C 
ATOM     16  O   LIG d   1       4.371  92.945 117.043  0.00  0.00    -0.276 OA
ATOM     17  H   LIG d   1       4.362  90.921 119.469  0.00  0.00     0.149 HD
ENDBRANCH   6  13
BRANCH   5  18
ATOM     18  N   LIG d   1       6.490  89.747 116.943  0.00  0.00     0.381 N 
ATOM     19  H   LIG d   1       7.198  90.090 116.326  0.00  0.00    -0.090 HD
ATOM     20  H   LIG d   1       6.572  88.747 116.994  0.00  0.00    -0.090 HD
ATOM     21  H   LIG d   1       6.609  90.144 117.850  0.00  0.00    -0.090 HD
ENDBRANCH   5  18
BRANCH   3  22
ATOM     22  C   LIG d   1       3.216  88.750 113.592  0.00  0.00     0.382 C 
ATOM     23  O   LIG d   1       4.135  88.256 112.895  0.00  0.00    -0.241 OA
ATOM     24  O   LIG d   1       2.084  88.902 113.096  0.00  0.00    -0.241 OA
ENDBRANCH   3  22
TORSDOF 7
ENDMDL
MODEL 6
REMARK VINA RESULT:      -4.2      1.797      4.914
REMARK  7 active torsions:
REMARK  status: ('A' for Active; 'I' for Inactive)
REMARK    1  A    between atoms: C_2  and  C_3 
REMARK    2  A    between atoms: C_3  and  O_6 
REMARK    3  A    between atoms: C_3  and  C_4 
REMARK    4  A    between atoms: C_7  and  O_6 
REMARK    5  A    between atoms: C_9  and  C_10 
REMARK    6  A    between atoms: N_15  and  C_14 
REMARK    7  A    between atoms: N_20  and  C_19 
REMARK       I    between atoms: C_22  and  N_20 
ROOT
ATOM      1  C   LIG d   1      -0.288  90.659 117.826  0.00  0.00     0.161 C 
ATOM      2  C   LIG d   1      -1.633  90.476 117.464  0.00  0.00     0.016 C 
ATOM      3  C   LIG d   1      -2.534  91.545 117.253  0.00  0.00     0.038 C 
ATOM      4  C   LIG d   1      -2.109  92.882 117.242  0.00  0.00     0.028 C 
ATOM      5  C   LIG d   1      -0.872  93.132 118.099  0.00  0.00    -0.047 C 
ATOM      6  C   LIG d   1       0.222  92.111 117.710  0.00  0.00     0.091 C 
ENDROOT
BRANCH   1   7
ATOM      7  O   LIG d   1       0.550  89.772 117.058  0.00  0.00    -0.368 OA
BRANCH   7   8
ATOM      8  C   LIG d   1       1.157  88.678 117.789  0.00  0.00     0.119 C 
BRANCH   8   9
ATOM      9  C   LIG d   1       2.581  88.484 117.233  0.00  0.00     0.028 C 
ATOM     10  C   LIG d   1       2.735  89.039 115.807  0.00  0.00     0.006 C 
ENDBRANCH   8   9
BRANCH   8  11
ATOM     11  C   LIG d   1       0.432  87.356 117.517  0.00  0.00     0.028 C 
ATOM     12  C   LIG d   1      -0.051  86.666 118.803  0.00  0.00     0.006 C 
ENDBRANCH   8  11
ENDBRANCH   7   8
ENDBRANCH   1   7
BRANCH   6  13
ATOM     13  N   LIG d   1       1.436  92.231 118.558  0.00  0.00    -0.311 N 
ATOM     14  C   LIG d   1       2.670  92.312 118.064  0.00  0.00     0.210 C 
ATOM     15  C   LIG d   1       3.782  92.409 119.114  0.00  0.00     0.109 C 
ATOM     16  O   LIG d   1       2.948  92.344 116.856  0.00  0.00    -0.276 OA
ATOM     17  H   LIG d   1       1.300  92.244 119.550  0.00  0.00     0.149 HD
ENDBRANCH   6  13
BRANCH   5  18
ATOM     18  N   LIG d   1      -0.459  94.532 117.887  0.00  0.00     0.381 N 
ATOM     19  H   LIG d   1      -0.629  94.795 116.937  0.00  0.00    -0.090 HD
ATOM     20  H   LIG d   1       0.527  94.610 118.064  0.00  0.00    -0.090 HD
ATOM     21  H   LIG d   1      -0.962  95.133 118.502  0.00  0.00    -0.090 HD
ENDBRANCH   5  18
BRANCH   3  22
ATOM     22  C   LIG d   1      -3.885  91.282 117.090  0.00  0.00     0.382 C 
ATOM     23  O   LIG d   1      -4.574  91.994 116.319  0.00  0.00    -0.241 OA
ATOM     24  O   LIG d   1      -4.434  90.370 117.737  0.00  0.00    -0.241 OA
ENDBRANCH   3  22
TORSDOF 7
ENDMDL
MODEL 7
REMARK VINA RESULT:      -4.1      3.762      6.524
REMARK  7 active torsions:
REMARK  status: ('A' for Active; 'I' for Inactive)
REMARK    1  A    between atoms: C_2  and  C_3 
REMARK    2  A    between atoms: C_3  and  O_6 
REMARK    3  A    between atoms: C_3  and  C_4 
REMARK    4  A    between atoms: C_7  and  O_6 
REMARK    5  A    between atoms: C_9  and  C_10 
REMARK    6  A    between atoms: N_15  and  C_14 
REMARK    7  A    between atoms: N_20  and  C_19 
REMARK       I    between atoms: C_22  and  N_20 
ROOT
ATOM      1  C   LIG d   1       2.486  90.468 116.555  0.00  0.00     0.161 C 
ATOM      2  C   LIG d   1       1.086  90.376 116.496  0.00  0.00     0.016 C 
ATOM      3  C   LIG d   1       0.218  91.251 117.189  0.00  0.00     0.038 C 
ATOM      4  C   LIG d   1       0.695  92.380 117.872  0.00  0.00     0.028 C 
ATOM      5  C   LIG d   1       2.126  92.223 118.376  0.00  0.00    -0.047 C 
ATOM      6  C   LIG d   1       3.022  91.761 117.205  0.00  0.00     0.091 C 
ENDROOT
BRANCH   1   7
ATOM      7  O   LIG d   1       3.042  90.304 115.235  0.00  0.00    -0.368 OA
BRANCH   7   8
ATOM      8  C   LIG d   1       3.608  89.003 114.940  0.00  0.00     0.119 C 
BRANCH   8   9
ATOM      9  C   LIG d   1       5.134  89.178 114.820  0.00  0.00     0.028 C 
ATOM     10  C   LIG d   1       5.890  88.572 116.015  0.00  0.00     0.006 C 
ENDBRANCH   8   9
BRANCH   8  11
ATOM     11  C   LIG d   1       3.150  88.494 113.570  0.00  0.00     0.028 C 
ATOM     12  C   LIG d   1       4.108  87.454 112.969  0.00  0.00     0.006 C 
ENDBRANCH   8  11
ENDBRANCH   7   8
ENDBRANCH   1   7
BRANCH   6  13
ATOM     13  N   LIG d   1       4.422  91.502 117.631  0.00  0.00    -0.311 N 
ATOM     14  C   LIG d   1       5.374  92.435 117.628  0.00  0.00     0.210 C 
ATOM     15  C   LIG d   1       6.753  91.952 118.086  0.00  0.00     0.109 C 
ATOM     16  O   LIG d   1       5.198  93.623 117.320  0.00  0.00    -0.276 OA
ATOM     17  H   LIG d   1       4.645  90.572 117.927  0.00  0.00     0.149 HD
ENDBRANCH   6  13
BRANCH   5  18
ATOM     18  N   LIG d   1       2.542  93.519 118.946  0.00  0.00     0.381 N 
ATOM     19  H   LIG d   1       3.054  93.368 119.792  0.00  0.00    -0.090 HD
ATOM     20  H   LIG d   1       1.721  94.056 119.166  0.00  0.00    -0.090 HD
ATOM     21  H   LIG d   1       3.106  94.014 118.291  0.00  0.00    -0.090 HD
ENDBRANCH   5  18
BRANCH   3  22
ATOM     22  C   LIG d   1      -1.140  90.978 117.236  0.00  0.00     0.382 C 
ATOM     23  O   LIG d   1      -1.538  89.797 117.385  0.00  0.00    -0.241 OA
ATOM     24  O   LIG d   1      -1.974  91.891 117.087  0.00  0.00    -0.241 OA
ENDBRANCH   3  22
TORSDOF 7
ENDMDL
MODEL 8
REMARK VINA RESULT:      -4.0      4.293      5.889
REMARK  7 active torsions:
REMARK  status: ('A' for Active; 'I' for Inactive)
REMARK    1  A    between atoms: C_2  and  C_3 
REMARK    2  A    between atoms: C_3  and  O_6 
REMARK    3  A    between atoms: C_3  and  C_4 
REMARK    4  A    between atoms: C_7  and  O_6 
REMARK    5  A    between atoms: C_9  and  C_10 
REMARK    6  A    between atoms: N_15  and  C_14 
REMARK    7  A    between atoms: N_20  and  C_19 
REMARK       I    between atoms: C_22  and  N_20 
ROOT
ATOM      1  C   LIG d   1       2.843  88.736 116.579  0.00  0.00     0.161 C 
ATOM      2  C   LIG d   1       3.243  89.518 117.676  0.00  0.00     0.016 C 
ATOM      3  C   LIG d   1       4.307  90.447 117.623  0.00  0.00     0.038 C 
ATOM      4  C   LIG d   1       4.950  90.769 116.418  0.00  0.00     0.028 C 
ATOM      5  C   LIG d   1       4.918  89.641 115.393  0.00  0.00    -0.047 C 
ATOM      6  C   LIG d   1       3.460  89.155 115.228  0.00  0.00     0.091 C 
ENDROOT
BRANCH   1   7
ATOM      7  O   LIG d   1       1.404  88.720 116.489  0.00  0.00    -0.368 OA
BRANCH   7   8
ATOM      8  C   LIG d   1       0.761  87.459 116.796  0.00  0.00     0.119 C 
BRANCH   8   9
ATOM      9  C   LIG d   1      -0.040  87.653 118.099  0.00  0.00     0.028 C 
ATOM     10  C   LIG d   1      -1.060  88.799 117.995  0.00  0.00     0.006 C 
ENDBRANCH   8   9
BRANCH   8  11
ATOM     11  C   LIG d   1       1.790  86.370 117.112  0.00  0.00     0.028 C 
ATOM     12  C   LIG d   1       1.364  85.468 118.280  0.00  0.00     0.006 C 
ENDBRANCH   8  11
ENDBRANCH   7   8
ENDBRANCH   1   7
BRANCH   6  13
ATOM     13  N   LIG d   1       3.350  87.995 114.305  0.00  0.00    -0.311 N 
ATOM     14  C   LIG d   1       2.533  87.970 113.253  0.00  0.00     0.210 C 
ATOM     15  C   LIG d   1       2.561  86.669 112.444  0.00  0.00     0.109 C 
ATOM     16  O   LIG d   1       1.813  88.914 112.894  0.00  0.00    -0.276 OA
ATOM     17  H   LIG d   1       3.922  87.198 114.504  0.00  0.00     0.149 HD
ENDBRANCH   6  13
BRANCH   5  18
ATOM     18  N   LIG d   1       5.500  90.159 114.141  0.00  0.00     0.381 N 
ATOM     19  H   LIG d   1       5.075  91.034 113.906  0.00  0.00    -0.090 HD
ATOM     20  H   LIG d   1       5.310  89.508 113.400  0.00  0.00    -0.090 HD
ATOM     21  H   LIG d   1       6.484  90.277 114.246  0.00  0.00    -0.090 HD
ENDBRANCH   5  18
BRANCH   3  22
ATOM     22  C   LIG d   1       4.765  91.035 118.792  0.00  0.00     0.382 C 
ATOM     23  O   LIG d   1       4.697  92.280 118.935  0.00  0.00    -0.241 OA
ATOM     24  O   LIG d   1       5.285  90.342 119.686  0.00  0.00    -0.241 OA
ENDBRANCH   3  22
TORSDOF 7
ENDMDL
MODEL 9
REMARK VINA RESULT:      -4.0      6.179      8.436
REMARK  7 active torsions:
REMARK  status: ('A' for Active; 'I' for Inactive)
REMARK    1  A    between atoms: C_2  and  C_3 
REMARK    2  A    between atoms: C_3  and  O_6 
REMARK    3  A    between atoms: C_3  and  C_4 
REMARK    4  A    between atoms: C_7  and  O_6 
REMARK    5  A    between atoms: C_9  and  C_10 
REMARK    6  A    between atoms: N_15  and  C_14 
REMARK    7  A    between atoms: N_20  and  C_19 
REMARK       I    between atoms: C_22  and  N_20 
ROOT
ATOM      1  C   LIG d   1       4.842  88.593 117.136  0.00  0.00     0.161 C 
ATOM      2  C   LIG d   1       4.180  89.822 116.987  0.00  0.00     0.016 C 
ATOM      3  C   LIG d   1       4.830  91.074 117.086  0.00  0.00     0.038 C 
ATOM      4  C   LIG d   1       6.225  91.178 117.191  0.00  0.00     0.028 C 
ATOM      5  C   LIG d   1       6.875  89.966 117.850  0.00  0.00    -0.047 C 
ATOM      6  C   LIG d   1       6.382  88.684 117.140  0.00  0.00     0.091 C 
ENDROOT
BRANCH   1   7
ATOM      7  O   LIG d   1       4.397  87.673 116.119  0.00  0.00    -0.368 OA
BRANCH   7   8
ATOM      8  C   LIG d   1       3.647  88.249 115.022  0.00  0.00     0.119 C 
BRANCH   8   9
ATOM      9  C   LIG d   1       2.343  87.440 114.878  0.00  0.00     0.028 C 
ATOM     10  C   LIG d   1       2.360  86.147 115.710  0.00  0.00     0.006 C 
ENDBRANCH   8   9
BRANCH   8  11
ATOM     11  C   LIG d   1       4.383  88.073 113.690  0.00  0.00     0.028 C 
ATOM     12  C   LIG d   1       5.596  89.007 113.552  0.00  0.00     0.006 C 
ENDBRANCH   8  11
ENDBRANCH   7   8
ENDBRANCH   1   7
BRANCH   6  13
ATOM     13  N   LIG d   1       6.905  87.447 117.776  0.00  0.00    -0.311 N 
ATOM     14  C   LIG d   1       8.009  86.823 117.369  0.00  0.00     0.210 C 
ATOM     15  C   LIG d   1       8.360  85.553 118.150  0.00  0.00     0.109 C 
ATOM     16  O   LIG d   1       8.749  87.219 116.455  0.00  0.00    -0.276 OA
ATOM     17  H   LIG d   1       6.383  87.074 118.545  0.00  0.00     0.149 HD
ENDBRANCH   6  13
BRANCH   5  18
ATOM     18  N   LIG d   1       8.337  90.145 117.769  0.00  0.00     0.381 N 
ATOM     19  H   LIG d   1       8.631  90.836 118.431  0.00  0.00    -0.090 HD
ATOM     20  H   LIG d   1       8.575  90.470 116.849  0.00  0.00    -0.090 HD
ATOM     21  H   LIG d   1       8.798  89.281 117.954  0.00  0.00    -0.090 HD
ENDBRANCH   5  18
BRANCH   3  22
ATOM     22  C   LIG d   1       4.079  92.238 117.121  0.00  0.00     0.382 C 
ATOM     23  O   LIG d   1       4.631  93.334 117.384  0.00  0.00    -0.241 OA
ATOM     24  O   LIG d   1       2.847  92.201 116.936  0.00  0.00    -0.241 OA
ENDBRANCH   3  22
TORSDOF 7
ENDMDL
