MODEL 1
REMARK VINA RESULT:      -5.2      0.000      0.000
REMARK  7 active torsions:
REMARK  status: ('A' for Active; 'I' for Inactive)
REMARK    1  A    between atoms: C_2  and  C_3 
REMARK    2  A    between atoms: C_3  and  O_6 
REMARK    3  A    between atoms: C_3  and  C_4 
REMARK    4  A    between atoms: C_7  and  O_6 
REMARK    5  A    between atoms: C_9  and  C_10 
REMARK    6  A    between atoms: N_15  and  C_14 
REMARK    7  A    between atoms: N_20  and  C_19 
REMARK       I    between atoms: C_22  and  N_20 
ROOT
ATOM      1  C   LIG d   1      -5.689  92.883 117.980  0.00  0.00     0.161 C 
ATOM      2  C   LIG d   1      -6.494  92.644 116.853  0.00  0.00     0.016 C 
ATOM      3  C   LIG d   1      -6.182  91.682 115.864  0.00  0.00     0.038 C 
ATOM      4  C   LIG d   1      -5.116  90.783 116.014  0.00  0.00     0.028 C 
ATOM      5  C   LIG d   1      -3.987  91.323 116.886  0.00  0.00    -0.047 C 
ATOM      6  C   LIG d   1      -4.581  91.836 118.217  0.00  0.00     0.091 C 
ENDROOT
BRANCH   1   7
ATOM      7  O   LIG d   1      -6.517  93.012 119.153  0.00  0.00    -0.368 OA
BRANCH   7   8
ATOM      8  C   LIG d   1      -6.689  94.355 119.667  0.00  0.00     0.119 C 
BRANCH   8   9
ATOM      9  C   LIG d   1      -8.113  94.814 119.297  0.00  0.00     0.028 C 
ATOM     10  C   LIG d   1      -8.121  95.816 118.130  0.00  0.00     0.006 C 
ENDBRANCH   8   9
BRANCH   8  11
ATOM     11  C   LIG d   1      -5.750  95.343 118.969  0.00  0.00     0.028 C 
ATOM     12  C   LIG d   1      -4.726  95.971 119.929  0.00  0.00     0.006 C 
ENDBRANCH   8  11
ENDBRANCH   7   8
ENDBRANCH   1   7
BRANCH   6  13
ATOM     13  N   LIG d   1      -3.555  92.458 119.094  0.00  0.00    -0.311 N 
ATOM     14  C   LIG d   1      -2.539  93.184 118.632  0.00  0.00     0.210 C 
ATOM     15  C   LIG d   1      -1.584  93.717 119.705  0.00  0.00     0.109 C 
ATOM     16  O   LIG d   1      -2.356  93.465 117.438  0.00  0.00    -0.276 OA
ATOM     17  H   LIG d   1      -3.645  92.307 120.080  0.00  0.00     0.149 HD
ENDBRANCH   6  13
BRANCH   5  18
ATOM     18  N   LIG d   1      -3.007  90.236 117.070  0.00  0.00     0.381 N 
ATOM     19  H   LIG d   1      -2.575  90.318 117.969  0.00  0.00    -0.090 HD
ATOM     20  H   LIG d   1      -2.294  90.318 116.368  0.00  0.00    -0.090 HD
ATOM     21  H   LIG d   1      -3.461  89.352 116.992  0.00  0.00    -0.090 HD
ENDBRANCH   5  18
BRANCH   3  22
ATOM     22  C   LIG d   1      -6.919  91.640 114.691  0.00  0.00     0.382 C 
ATOM     23  O   LIG d   1      -7.934  90.905 114.613  0.00  0.00    -0.241 OA
ATOM     24  O   LIG d   1      -6.557  92.293 113.694  0.00  0.00    -0.241 OA
ENDBRANCH   3  22
TORSDOF 7
ENDMDL
MODEL 2
REMARK VINA RESULT:      -4.8      7.348     10.084
REMARK  7 active torsions:
REMARK  status: ('A' for Active; 'I' for Inactive)
REMARK    1  A    between atoms: C_2  and  C_3 
REMARK    2  A    between atoms: C_3  and  O_6 
REMARK    3  A    between atoms: C_3  and  C_4 
REMARK    4  A    between atoms: C_7  and  O_6 
REMARK    5  A    between atoms: C_9  and  C_10 
REMARK    6  A    between atoms: N_15  and  C_14 
REMARK    7  A    between atoms: N_20  and  C_19 
REMARK       I    between atoms: C_22  and  N_20 
ROOT
ATOM      1  C   LIG d   1       2.425  89.681 115.452  0.00  0.00     0.161 C 
ATOM      2  C   LIG d   1       3.491  89.161 114.698  0.00  0.00     0.016 C 
ATOM      3  C   LIG d   1       4.848  89.456 114.963  0.00  0.00     0.038 C 
ATOM      4  C   LIG d   1       5.242  90.174 116.102  0.00  0.00     0.028 C 
ATOM      5  C   LIG d   1       4.176  91.140 116.608  0.00  0.00    -0.047 C 
ATOM      6  C   LIG d   1       2.841  90.377 116.765  0.00  0.00     0.091 C 
ENDROOT
BRANCH   1   7
ATOM      7  O   LIG d   1       1.463  88.642 115.718  0.00  0.00    -0.368 OA
BRANCH   7   8
ATOM      8  C   LIG d   1       1.820  87.692 116.753  0.00  0.00     0.119 C 
BRANCH   8   9
ATOM      9  C   LIG d   1       1.802  86.288 116.119  0.00  0.00     0.028 C 
ATOM     10  C   LIG d   1       1.101  86.271 114.750  0.00  0.00     0.006 C 
ENDBRANCH   8   9
BRANCH   8  11
ATOM     11  C   LIG d   1       0.762  87.650 117.860  0.00  0.00     0.028 C 
ATOM     12  C   LIG d   1      -0.541  88.364 117.466  0.00  0.00     0.006 C 
ENDBRANCH   8  11
ENDBRANCH   7   8
ENDBRANCH   1   7
BRANCH   6  13
ATOM     13  N   LIG d   1       1.724  91.267 117.176  0.00  0.00    -0.311 N 
ATOM     14  C   LIG d   1       1.341  91.426 118.441  0.00  0.00     0.210 C 
ATOM     15  C   LIG d   1       0.155  92.375 118.643  0.00  0.00     0.109 C 
ATOM     16  O   LIG d   1       1.891  90.897 119.419  0.00  0.00    -0.276 OA
ATOM     17  H   LIG d   1       1.242  91.759 116.449  0.00  0.00     0.149 HD
ENDBRANCH   6  13
BRANCH   5  18
ATOM     18  N   LIG d   1       4.663  91.719 117.874  0.00  0.00     0.381 N 
ATOM     19  H   LIG d   1       5.008  92.644 117.713  0.00  0.00    -0.090 HD
ATOM     20  H   LIG d   1       5.421  91.156 118.218  0.00  0.00    -0.090 HD
ATOM     21  H   LIG d   1       3.927  91.743 118.544  0.00  0.00    -0.090 HD
ENDBRANCH   5  18
BRANCH   3  22
ATOM     22  C   LIG d   1       5.825  89.063 114.062  0.00  0.00     0.382 C 
ATOM     23  O   LIG d   1       6.715  88.252 114.415  0.00  0.00    -0.241 OA
ATOM     24  O   LIG d   1       5.855  89.543 112.913  0.00  0.00    -0.241 OA
ENDBRANCH   3  22
TORSDOF 7
ENDMDL
MODEL 3
REMARK VINA RESULT:      -4.7      1.822      4.723
REMARK  7 active torsions:
REMARK  status: ('A' for Active; 'I' for Inactive)
REMARK    1  A    between atoms: C_2  and  C_3 
REMARK    2  A    between atoms: C_3  and  O_6 
REMARK    3  A    between atoms: C_3  and  C_4 
REMARK    4  A    between atoms: C_7  and  O_6 
REMARK    5  A    between atoms: C_9  and  C_10 
REMARK    6  A    between atoms: N_15  and  C_14 
REMARK    7  A    between atoms: N_20  and  C_19 
REMARK       I    between atoms: C_22  and  N_20 
ROOT
ATOM      1  C   LIG d   1      -5.535  92.524 117.741  0.00  0.00     0.161 C 
ATOM      2  C   LIG d   1      -6.735  93.240 117.600  0.00  0.00     0.016 C 
ATOM      3  C   LIG d   1      -6.956  94.510 118.179  0.00  0.00     0.038 C 
ATOM      4  C   LIG d   1      -5.930  95.223 118.817  0.00  0.00     0.028 C 
ATOM      5  C   LIG d   1      -4.854  94.326 119.420  0.00  0.00    -0.047 C 
ATOM      6  C   LIG d   1      -4.366  93.334 118.340  0.00  0.00     0.091 C 
ENDROOT
BRANCH   1   7
ATOM      7  O   LIG d   1      -5.153  91.955 116.473  0.00  0.00    -0.368 OA
BRANCH   7   8
ATOM      8  C   LIG d   1      -5.589  90.596 116.227  0.00  0.00     0.119 C 
BRANCH   8   9
ATOM      9  C   LIG d   1      -4.359  89.792 115.764  0.00  0.00     0.028 C 
ATOM     10  C   LIG d   1      -3.284  89.682 116.858  0.00  0.00     0.006 C 
ENDBRANCH   8   9
BRANCH   8  11
ATOM     11  C   LIG d   1      -6.579  90.530 115.060  0.00  0.00     0.028 C 
ATOM     12  C   LIG d   1      -6.645  91.841 114.261  0.00  0.00     0.006 C 
ENDBRANCH   8  11
ENDBRANCH   7   8
ENDBRANCH   1   7
BRANCH   6  13
ATOM     13  N   LIG d   1      -3.372  92.364 118.869  0.00  0.00    -0.311 N 
ATOM     14  C   LIG d   1      -2.055  92.545 118.787  0.00  0.00     0.210 C 
ATOM     15  C   LIG d   1      -1.208  91.414 119.378  0.00  0.00     0.109 C 
ATOM     16  O   LIG d   1      -1.508  93.551 118.309  0.00  0.00    -0.276 OA
ATOM     17  H   LIG d   1      -3.729  91.534 119.301  0.00  0.00     0.149 HD
ENDBRANCH   6  13
BRANCH   5  18
ATOM     18  N   LIG d   1      -3.780  95.200 119.930  0.00  0.00     0.381 N 
ATOM     19  H   LIG d   1      -3.003  94.644 120.226  0.00  0.00    -0.090 HD
ATOM     20  H   LIG d   1      -4.125  95.709 120.725  0.00  0.00    -0.090 HD
ATOM     21  H   LIG d   1      -3.491  95.836 119.219  0.00  0.00    -0.090 HD
ENDBRANCH   5  18
BRANCH   3  22
ATOM     22  C   LIG d   1      -8.228  95.064 118.158  0.00  0.00     0.382 C 
ATOM     23  O   LIG d   1      -8.386  96.256 117.800  0.00  0.00    -0.241 OA
ATOM     24  O   LIG d   1      -9.212  94.400 118.534  0.00  0.00    -0.241 OA
ENDBRANCH   3  22
TORSDOF 7
ENDMDL
MODEL 4
REMARK VINA RESULT:      -4.6      2.368      4.741
REMARK  7 active torsions:
REMARK  status: ('A' for Active; 'I' for Inactive)
REMARK    1  A    between atoms: C_2  and  C_3 
REMARK    2  A    between atoms: C_3  and  O_6 
REMARK    3  A    between atoms: C_3  and  C_4 
REMARK    4  A    between atoms: C_7  and  O_6 
REMARK    5  A    between atoms: C_9  and  C_10 
REMARK    6  A    between atoms: N_15  and  C_14 
REMARK    7  A    between atoms: N_20  and  C_19 
REMARK       I    between atoms: C_22  and  N_20 
ROOT
ATOM      1  C   LIG d   1      -3.403  93.090 119.428  0.00  0.00     0.161 C 
ATOM      2  C   LIG d   1      -3.317  94.485 119.280  0.00  0.00     0.016 C 
ATOM      3  C   LIG d   1      -2.377  95.122 118.437  0.00  0.00     0.038 C 
ATOM      4  C   LIG d   1      -1.552  94.396 117.565  0.00  0.00     0.028 C 
ATOM      5  C   LIG d   1      -1.254  92.981 118.049  0.00  0.00    -0.047 C 
ATOM      6  C   LIG d   1      -2.586  92.280 118.400  0.00  0.00     0.091 C 
ENDROOT
BRANCH   1   7
ATOM      7  O   LIG d   1      -4.784  92.681 119.405  0.00  0.00    -0.368 OA
BRANCH   7   8
ATOM      8  C   LIG d   1      -5.565  93.134 118.272  0.00  0.00     0.119 C 
BRANCH   8   9
ATOM      9  C   LIG d   1      -6.845  93.791 118.825  0.00  0.00     0.028 C 
ATOM     10  C   LIG d   1      -6.888  95.305 118.562  0.00  0.00     0.006 C 
ENDBRANCH   8   9
BRANCH   8  11
ATOM     11  C   LIG d   1      -6.049  91.955 117.422  0.00  0.00     0.028 C 
ATOM     12  C   LIG d   1      -6.780  92.402 116.146  0.00  0.00     0.006 C 
ENDBRANCH   8  11
ENDBRANCH   7   8
ENDBRANCH   1   7
BRANCH   6  13
ATOM     13  N   LIG d   1      -2.379  90.919 118.962  0.00  0.00    -0.311 N 
ATOM     14  C   LIG d   1      -2.801  89.807 118.364  0.00  0.00     0.210 C 
ATOM     15  C   LIG d   1      -2.502  88.511 119.123  0.00  0.00     0.109 C 
ATOM     16  O   LIG d   1      -3.366  89.768 117.260  0.00  0.00    -0.276 OA
ATOM     17  H   LIG d   1      -1.901  90.856 119.840  0.00  0.00     0.149 HD
ENDBRANCH   6  13
BRANCH   5  18
ATOM     18  N   LIG d   1      -0.502  92.294 116.982  0.00  0.00     0.381 N 
ATOM     19  H   LIG d   1      -1.127  91.747 116.426  0.00  0.00    -0.090 HD
ATOM     20  H   LIG d   1       0.169  91.676 117.404  0.00  0.00    -0.090 HD
ATOM     21  H   LIG d   1      -0.034  92.962 116.410  0.00  0.00    -0.090 HD
ENDBRANCH   5  18
BRANCH   3  22
ATOM     22  C   LIG d   1      -2.227  96.499 118.492  0.00  0.00     0.382 C 
ATOM     23  O   LIG d   1      -1.087  97.011 118.379  0.00  0.00    -0.241 OA
ATOM     24  O   LIG d   1      -3.212  97.234 118.698  0.00  0.00    -0.241 OA
ENDBRANCH   3  22
TORSDOF 7
ENDMDL
MODEL 5
REMARK VINA RESULT:      -4.5      6.932      9.212
REMARK  7 active torsions:
REMARK  status: ('A' for Active; 'I' for Inactive)
REMARK    1  A    between atoms: C_2  and  C_3 
REMARK    2  A    between atoms: C_3  and  O_6 
REMARK    3  A    between atoms: C_3  and  C_4 
REMARK    4  A    between atoms: C_7  and  O_6 
REMARK    5  A    between atoms: C_9  and  C_10 
REMARK    6  A    between atoms: N_15  and  C_14 
REMARK    7  A    between atoms: N_20  and  C_19 
REMARK       I    between atoms: C_22  and  N_20 
ROOT
ATOM      1  C   LIG d   1       2.721  90.134 116.707  0.00  0.00     0.161 C 
ATOM      2  C   LIG d   1       2.902  89.560 115.438  0.00  0.00     0.016 C 
ATOM      3  C   LIG d   1       4.173  89.299 114.876  0.00  0.00     0.038 C 
ATOM      4  C   LIG d   1       5.356  89.457 115.613  0.00  0.00     0.028 C 
ATOM      5  C   LIG d   1       5.249  90.507 116.713  0.00  0.00    -0.047 C 
ATOM      6  C   LIG d   1       3.998  90.209 117.571  0.00  0.00     0.091 C 
ENDROOT
BRANCH   1   7
ATOM      7  O   LIG d   1       1.678  89.435 117.415  0.00  0.00    -0.368 OA
BRANCH   7   8
ATOM      8  C   LIG d   1       0.323  89.873 117.149  0.00  0.00     0.119 C 
BRANCH   8   9
ATOM      9  C   LIG d   1       0.316  91.413 117.200  0.00  0.00     0.028 C 
ATOM     10  C   LIG d   1      -0.013  91.953 118.602  0.00  0.00     0.006 C 
ENDBRANCH   8   9
BRANCH   8  11
ATOM     11  C   LIG d   1      -0.634  89.427 118.258  0.00  0.00     0.028 C 
ATOM     12  C   LIG d   1      -1.925  88.794 117.712  0.00  0.00     0.006 C 
ENDBRANCH   8  11
ENDBRANCH   7   8
ENDBRANCH   1   7
BRANCH   6  13
ATOM     13  N   LIG d   1       3.772  91.238 118.619  0.00  0.00    -0.311 N 
ATOM     14  C   LIG d   1       3.685  92.542 118.361  0.00  0.00     0.210 C 
ATOM     15  C   LIG d   1       3.469  93.432 119.589  0.00  0.00     0.109 C 
ATOM     16  O   LIG d   1       3.734  93.043 117.227  0.00  0.00    -0.276 OA
ATOM     17  H   LIG d   1       3.689  90.916 119.564  0.00  0.00     0.149 HD
ENDBRANCH   6  13
BRANCH   5  18
ATOM     18  N   LIG d   1       6.504  90.470 117.488  0.00  0.00     0.381 N 
ATOM     19  H   LIG d   1       7.171  89.887 117.024  0.00  0.00    -0.090 HD
ATOM     20  H   LIG d   1       6.315  90.075 118.393  0.00  0.00    -0.090 HD
ATOM     21  H   LIG d   1       6.869  91.391 117.589  0.00  0.00    -0.090 HD
ENDBRANCH   5  18
BRANCH   3  22
ATOM     22  C   LIG d   1       4.271  88.913 113.547  0.00  0.00     0.382 C 
ATOM     23  O   LIG d   1       5.376  88.972 112.957  0.00  0.00    -0.241 OA
ATOM     24  O   LIG d   1       3.258  88.550 112.919  0.00  0.00    -0.241 OA
ENDBRANCH   3  22
TORSDOF 7
ENDMDL
MODEL 6
REMARK VINA RESULT:      -4.5      5.921      8.675
REMARK  7 active torsions:
REMARK  status: ('A' for Active; 'I' for Inactive)
REMARK    1  A    between atoms: C_2  and  C_3 
REMARK    2  A    between atoms: C_3  and  O_6 
REMARK    3  A    between atoms: C_3  and  C_4 
REMARK    4  A    between atoms: C_7  and  O_6 
REMARK    5  A    between atoms: C_9  and  C_10 
REMARK    6  A    between atoms: N_15  and  C_14 
REMARK    7  A    between atoms: N_20  and  C_19 
REMARK       I    between atoms: C_22  and  N_20 
ROOT
ATOM      1  C   LIG d   1       1.118  89.283 116.946  0.00  0.00     0.161 C 
ATOM      2  C   LIG d   1      -0.254  88.987 117.012  0.00  0.00     0.016 C 
ATOM      3  C   LIG d   1      -1.192  89.793 117.696  0.00  0.00     0.038 C 
ATOM      4  C   LIG d   1      -0.844  91.040 118.236  0.00  0.00     0.028 C 
ATOM      5  C   LIG d   1       0.626  91.140 118.631  0.00  0.00    -0.047 C 
ATOM      6  C   LIG d   1       1.498  90.697 117.434  0.00  0.00     0.091 C 
ENDROOT
BRANCH   1   7
ATOM      7  O   LIG d   1       1.599  89.070 115.604  0.00  0.00    -0.368 OA
BRANCH   7   8
ATOM      8  C   LIG d   1       2.588  88.024 115.441  0.00  0.00     0.119 C 
BRANCH   8   9
ATOM      9  C   LIG d   1       3.468  88.403 114.234  0.00  0.00     0.028 C 
ATOM     10  C   LIG d   1       4.173  89.757 114.424  0.00  0.00     0.006 C 
ENDBRANCH   8   9
BRANCH   8  11
ATOM     11  C   LIG d   1       1.933  86.692 115.062  0.00  0.00     0.028 C 
ATOM     12  C   LIG d   1       1.951  85.672 116.211  0.00  0.00     0.006 C 
ENDBRANCH   8  11
ENDBRANCH   7   8
ENDBRANCH   1   7
BRANCH   6  13
ATOM     13  N   LIG d   1       2.947  90.684 117.763  0.00  0.00    -0.311 N 
ATOM     14  C   LIG d   1       3.753  91.726 117.565  0.00  0.00     0.210 C 
ATOM     15  C   LIG d   1       5.216  91.495 117.955  0.00  0.00     0.109 C 
ATOM     16  O   LIG d   1       3.388  92.830 117.134  0.00  0.00    -0.276 OA
ATOM     17  H   LIG d   1       3.321  89.838 118.147  0.00  0.00     0.149 HD
ENDBRANCH   6  13
BRANCH   5  18
ATOM     18  N   LIG d   1       0.881  92.532 119.048  0.00  0.00     0.381 N 
ATOM     19  H   LIG d   1       1.621  92.553 119.721  0.00  0.00    -0.090 HD
ATOM     20  H   LIG d   1       0.052  92.899 119.480  0.00  0.00    -0.090 HD
ATOM     21  H   LIG d   1       1.126  93.086 118.257  0.00  0.00    -0.090 HD
ENDBRANCH   5  18
BRANCH   3  22
ATOM     22  C   LIG d   1      -2.488  89.335 117.879  0.00  0.00     0.382 C 
ATOM     23  O   LIG d   1      -3.409  89.743 117.132  0.00  0.00    -0.241 OA
ATOM     24  O   LIG d   1      -2.755  88.552 118.810  0.00  0.00    -0.241 OA
ENDBRANCH   3  22
TORSDOF 7
ENDMDL
MODEL 7
REMARK VINA RESULT:      -4.4      2.189      3.944
REMARK  7 active torsions:
REMARK  status: ('A' for Active; 'I' for Inactive)
REMARK    1  A    between atoms: C_2  and  C_3 
REMARK    2  A    between atoms: C_3  and  O_6 
REMARK    3  A    between atoms: C_3  and  C_4 
REMARK    4  A    between atoms: C_7  and  O_6 
REMARK    5  A    between atoms: C_9  and  C_10 
REMARK    6  A    between atoms: N_15  and  C_14 
REMARK    7  A    between atoms: N_20  and  C_19 
REMARK       I    between atoms: C_22  and  N_20 
ROOT
ATOM      1  C   LIG d   1      -3.248  92.972 118.334  0.00  0.00     0.161 C 
ATOM      2  C   LIG d   1      -4.600  93.353 118.361  0.00  0.00     0.016 C 
ATOM      3  C   LIG d   1      -5.627  92.626 117.716  0.00  0.00     0.038 C 
ATOM      4  C   LIG d   1      -5.391  91.378 117.121  0.00  0.00     0.028 C 
ATOM      5  C   LIG d   1      -3.957  91.201 116.633  0.00  0.00    -0.047 C 
ATOM      6  C   LIG d   1      -2.988  91.553 117.785  0.00  0.00     0.091 C 
ENDROOT
BRANCH   1   7
ATOM      7  O   LIG d   1      -2.674  93.113 119.648  0.00  0.00    -0.368 OA
BRANCH   7   8
ATOM      8  C   LIG d   1      -1.682  94.158 119.801  0.00  0.00     0.119 C 
BRANCH   8   9
ATOM      9  C   LIG d   1      -1.671  94.980 118.498  0.00  0.00     0.028 C 
ATOM     10  C   LIG d   1      -2.312  96.367 118.673  0.00  0.00     0.006 C 
ENDBRANCH   8   9
BRANCH   8  11
ATOM     11  C   LIG d   1      -0.272  93.574 119.925  0.00  0.00     0.028 C 
ATOM     12  C   LIG d   1       0.798  94.453 119.258  0.00  0.00     0.006 C 
ENDBRANCH   8  11
ENDBRANCH   7   8
ENDBRANCH   1   7
BRANCH   6  13
ATOM     13  N   LIG d   1      -1.563  91.488 117.367  0.00  0.00    -0.311 N 
ATOM     14  C   LIG d   1      -0.808  90.399 117.502  0.00  0.00     0.210 C 
ATOM     15  C   LIG d   1       0.639  90.552 117.025  0.00  0.00     0.109 C 
ATOM     16  O   LIG d   1      -1.209  89.311 117.942  0.00  0.00    -0.276 OA
ATOM     17  H   LIG d   1      -1.165  92.317 116.970  0.00  0.00     0.149 HD
ENDBRANCH   6  13
BRANCH   5  18
ATOM     18  N   LIG d   1      -3.814  89.810 116.163  0.00  0.00     0.381 N 
ATOM     19  H   LIG d   1      -4.356  89.200 116.741  0.00  0.00    -0.090 HD
ATOM     20  H   LIG d   1      -2.849  89.540 116.235  0.00  0.00    -0.090 HD
ATOM     21  H   LIG d   1      -4.117  89.738 115.216  0.00  0.00    -0.090 HD
ENDBRANCH   5  18
BRANCH   3  22
ATOM     22  C   LIG d   1      -6.900  93.168 117.626  0.00  0.00     0.382 C 
ATOM     23  O   LIG d   1      -7.821  92.518 117.074  0.00  0.00    -0.241 OA
ATOM     24  O   LIG d   1      -7.129  94.317 118.050  0.00  0.00    -0.241 OA
ENDBRANCH   3  22
TORSDOF 7
ENDMDL
MODEL 8
REMARK VINA RESULT:      -4.4      6.976      9.442
REMARK  7 active torsions:
REMARK  status: ('A' for Active; 'I' for Inactive)
REMARK    1  A    between atoms: C_2  and  C_3 
REMARK    2  A    between atoms: C_3  and  O_6 
REMARK    3  A    between atoms: C_3  and  C_4 
REMARK    4  A    between atoms: C_7  and  O_6 
REMARK    5  A    between atoms: C_9  and  C_10 
REMARK    6  A    between atoms: N_15  and  C_14 
REMARK    7  A    between atoms: N_20  and  C_19 
REMARK       I    between atoms: C_22  and  N_20 
ROOT
ATOM      1  C   LIG d   1       2.309  89.833 115.565  0.00  0.00     0.161 C 
ATOM      2  C   LIG d   1       1.191  90.005 116.398  0.00  0.00     0.016 C 
ATOM      3  C   LIG d   1       0.487  88.930 116.987  0.00  0.00     0.038 C 
ATOM      4  C   LIG d   1       0.949  87.608 116.905  0.00  0.00     0.028 C 
ATOM      5  C   LIG d   1       1.785  87.334 115.659  0.00  0.00    -0.047 C 
ATOM      6  C   LIG d   1       2.894  88.406 115.554  0.00  0.00     0.091 C 
ENDROOT
BRANCH   1   7
ATOM      7  O   LIG d   1       3.329  90.790 115.914  0.00  0.00    -0.368 OA
BRANCH   7   8
ATOM      8  C   LIG d   1       3.537  91.013 117.330  0.00  0.00     0.119 C 
BRANCH   8   9
ATOM      9  C   LIG d   1       3.550  92.536 117.562  0.00  0.00     0.028 C 
ATOM     10  C   LIG d   1       2.360  93.010 118.414  0.00  0.00     0.006 C 
ENDBRANCH   8   9
BRANCH   8  11
ATOM     11  C   LIG d   1       4.919  90.524 117.774  0.00  0.00     0.028 C 
ATOM     12  C   LIG d   1       4.852  89.256 118.640  0.00  0.00     0.006 C 
ENDBRANCH   8  11
ENDBRANCH   7   8
ENDBRANCH   1   7
BRANCH   6  13
ATOM     13  N   LIG d   1       3.706  88.261 114.318  0.00  0.00    -0.311 N 
ATOM     14  C   LIG d   1       5.028  88.104 114.323  0.00  0.00     0.210 C 
ATOM     15  C   LIG d   1       5.672  87.995 112.937  0.00  0.00     0.109 C 
ATOM     16  O   LIG d   1       5.726  88.013 115.344  0.00  0.00    -0.276 OA
ATOM     17  H   LIG d   1       3.217  88.293 113.445  0.00  0.00     0.149 HD
ENDBRANCH   6  13
BRANCH   5  18
ATOM     18  N   LIG d   1       2.315  85.962 115.770  0.00  0.00     0.381 N 
ATOM     19  H   LIG d   1       1.768  85.440 116.426  0.00  0.00    -0.090 HD
ATOM     20  H   LIG d   1       3.259  86.005 116.110  0.00  0.00    -0.090 HD
ATOM     21  H   LIG d   1       2.294  85.516 114.880  0.00  0.00    -0.090 HD
ENDBRANCH   5  18
BRANCH   3  22
ATOM     22  C   LIG d   1      -0.715  89.168 117.636  0.00  0.00     0.382 C 
ATOM     23  O   LIG d   1      -1.210  88.290 118.382  0.00  0.00    -0.241 OA
ATOM     24  O   LIG d   1      -1.333  90.234 117.448  0.00  0.00    -0.241 OA
ENDBRANCH   3  22
TORSDOF 7
ENDMDL
MODEL 9
REMARK VINA RESULT:      -4.3      8.375     11.111
REMARK  7 active torsions:
REMARK  status: ('A' for Active; 'I' for Inactive)
REMARK    1  A    between atoms: C_2  and  C_3 
REMARK    2  A    between atoms: C_3  and  O_6 
REMARK    3  A    between atoms: C_3  and  C_4 
REMARK    4  A    between atoms: C_7  and  O_6 
REMARK    5  A    between atoms: C_9  and  C_10 
REMARK    6  A    between atoms: N_15  and  C_14 
REMARK    7  A    between atoms: N_20  and  C_19 
REMARK       I    between atoms: C_22  and  N_20 
ROOT
ATOM      1  C   LIG d   1       3.294  88.731 115.601  0.00  0.00     0.161 C 
ATOM      2  C   LIG d   1       2.044  89.346 115.780  0.00  0.00     0.016 C 
ATOM      3  C   LIG d   1       1.713  90.119 116.916  0.00  0.00     0.038 C 
ATOM      4  C   LIG d   1       2.668  90.457 117.887  0.00  0.00     0.028 C 
ATOM      5  C   LIG d   1       3.799  89.441 118.003  0.00  0.00    -0.047 C 
ATOM      6  C   LIG d   1       4.384  89.179 116.596  0.00  0.00     0.091 C 
ENDROOT
BRANCH   1   7
ATOM      7  O   LIG d   1       3.743  88.923 114.245  0.00  0.00    -0.368 OA
BRANCH   7   8
ATOM      8  C   LIG d   1       3.689  87.759 113.384  0.00  0.00     0.119 C 
BRANCH   8   9
ATOM      9  C   LIG d   1       3.326  86.548 114.266  0.00  0.00     0.028 C 
ATOM     10  C   LIG d   1       4.408  85.456 114.237  0.00  0.00     0.006 C 
ENDBRANCH   8   9
BRANCH   8  11
ATOM     11  C   LIG d   1       5.066  87.435 112.797  0.00  0.00     0.028 C 
ATOM     12  C   LIG d   1       6.113  88.517 113.102  0.00  0.00     0.006 C 
ENDBRANCH   8  11
ENDBRANCH   7   8
ENDBRANCH   1   7
BRANCH   6  13
ATOM     13  N   LIG d   1       5.441  88.134 116.607  0.00  0.00    -0.311 N 
ATOM     14  C   LIG d   1       6.741  88.407 116.700  0.00  0.00     0.210 C 
ATOM     15  C   LIG d   1       7.662  87.184 116.673  0.00  0.00     0.109 C 
ATOM     16  O   LIG d   1       7.217  89.545 116.834  0.00  0.00    -0.276 OA
ATOM     17  H   LIG d   1       5.141  87.182 116.533  0.00  0.00     0.149 HD
ENDBRANCH   6  13
BRANCH   5  18
ATOM     18  N   LIG d   1       4.791  89.984 118.950  0.00  0.00     0.381 N 
ATOM     19  H   LIG d   1       4.519  90.904 119.234  0.00  0.00    -0.090 HD
ATOM     20  H   LIG d   1       5.681  90.047 118.487  0.00  0.00    -0.090 HD
ATOM     21  H   LIG d   1       4.863  89.390 119.746  0.00  0.00    -0.090 HD
ENDBRANCH   5  18
BRANCH   3  22
ATOM     22  C   LIG d   1       0.403  90.530 117.110  0.00  0.00     0.382 C 
ATOM     23  O   LIG d   1       0.128  91.754 117.143  0.00  0.00    -0.241 OA
ATOM     24  O   LIG d   1      -0.501  89.694 117.297  0.00  0.00    -0.241 OA
ENDBRANCH   3  22
TORSDOF 7
ENDMDL
