MODEL 1
REMARK VINA RESULT:      -4.9      0.000      0.000
REMARK  7 active torsions:
REMARK  status: ('A' for Active; 'I' for Inactive)
REMARK    1  A    between atoms: C_2  and  C_3 
REMARK    2  A    between atoms: C_3  and  O_6 
REMARK    3  A    between atoms: C_3  and  C_4 
REMARK    4  A    between atoms: C_7  and  O_6 
REMARK    5  A    between atoms: C_9  and  C_10 
REMARK    6  A    between atoms: N_15  and  C_14 
REMARK    7  A    between atoms: N_20  and  C_19 
REMARK       I    between atoms: C_22  and  N_20 
ROOT
ATOM      1  C   LIG d   1      -5.918  93.132 118.333  0.00  0.00     0.161 C 
ATOM      2  C   LIG d   1      -6.729  92.782 117.241  0.00  0.00     0.016 C 
ATOM      3  C   LIG d   1      -6.401  91.755 116.326  0.00  0.00     0.038 C 
ATOM      4  C   LIG d   1      -5.306  90.902 116.530  0.00  0.00     0.028 C 
ATOM      5  C   LIG d   1      -4.183  91.541 117.339  0.00  0.00    -0.047 C 
ATOM      6  C   LIG d   1      -4.776  92.140 118.635  0.00  0.00     0.091 C 
ENDROOT
BRANCH   1   7
ATOM      7  O   LIG d   1      -6.734  93.329 119.504  0.00  0.00    -0.368 OA
BRANCH   7   8
ATOM      8  C   LIG d   1      -6.918  94.701 119.930  0.00  0.00     0.119 C 
BRANCH   8   9
ATOM      9  C   LIG d   1      -8.381  95.085 119.636  0.00  0.00     0.028 C 
ATOM     10  C   LIG d   1      -8.505  96.070 118.461  0.00  0.00     0.006 C 
ENDBRANCH   8   9
BRANCH   8  11
ATOM     11  C   LIG d   1      -6.070  95.663 119.092  0.00  0.00     0.028 C 
ATOM     12  C   LIG d   1      -5.013  96.405 119.925  0.00  0.00     0.006 C 
ENDBRANCH   8  11
ENDBRANCH   7   8
ENDBRANCH   1   7
BRANCH   6  13
ATOM     13  N   LIG d   1      -3.758  92.858 119.445  0.00  0.00    -0.311 N 
ATOM     14  C   LIG d   1      -2.707  93.483 118.915  0.00  0.00     0.210 C 
ATOM     15  C   LIG d   1      -1.769  94.144 119.930  0.00  0.00     0.109 C 
ATOM     16  O   LIG d   1      -2.480  93.579 117.700  0.00  0.00    -0.276 OA
ATOM     17  H   LIG d   1      -3.881  92.857 120.438  0.00  0.00     0.149 HD
ENDBRANCH   6  13
BRANCH   5  18
ATOM     18  N   LIG d   1      -3.169  90.501 117.593  0.00  0.00     0.381 N 
ATOM     19  H   LIG d   1      -2.834  90.134 116.725  0.00  0.00    -0.090 HD
ATOM     20  H   LIG d   1      -3.595  89.751 118.109  0.00  0.00    -0.090 HD
ATOM     21  H   LIG d   1      -2.411  90.883 118.115  0.00  0.00    -0.090 HD
ENDBRANCH   5  18
BRANCH   3  22
ATOM     22  C   LIG d   1      -7.151  91.599 115.170  0.00  0.00     0.382 C 
ATOM     23  O   LIG d   1      -6.849  92.241 114.135  0.00  0.00    -0.241 OA
ATOM     24  O   LIG d   1      -8.153  90.858 115.162  0.00  0.00    -0.241 OA
ENDBRANCH   3  22
TORSDOF 7
ENDMDL
MODEL 2
REMARK VINA RESULT:      -4.6      9.381     12.072
REMARK  7 active torsions:
REMARK  status: ('A' for Active; 'I' for Inactive)
REMARK    1  A    between atoms: C_2  and  C_3 
REMARK    2  A    between atoms: C_3  and  O_6 
REMARK    3  A    between atoms: C_3  and  C_4 
REMARK    4  A    between atoms: C_7  and  O_6 
REMARK    5  A    between atoms: C_9  and  C_10 
REMARK    6  A    between atoms: N_15  and  C_14 
REMARK    7  A    between atoms: N_20  and  C_19 
REMARK       I    between atoms: C_22  and  N_20 
ROOT
ATOM      1  C   LIG d   1       4.329  87.861 116.213  0.00  0.00     0.161 C 
ATOM      2  C   LIG d   1       3.235  88.741 116.156  0.00  0.00     0.016 C 
ATOM      3  C   LIG d   1       3.195  89.978 116.838  0.00  0.00     0.038 C 
ATOM      4  C   LIG d   1       4.316  90.493 117.506  0.00  0.00     0.028 C 
ATOM      5  C   LIG d   1       5.268  89.414 118.012  0.00  0.00    -0.047 C 
ATOM      6  C   LIG d   1       5.604  88.456 116.847  0.00  0.00     0.091 C 
ENDROOT
BRANCH   1   7
ATOM      7  O   LIG d   1       4.616  87.352 114.895  0.00  0.00    -0.368 OA
BRANCH   7   8
ATOM      8  C   LIG d   1       3.559  87.491 113.914  0.00  0.00     0.119 C 
BRANCH   8   9
ATOM      9  C   LIG d   1       3.033  86.078 113.596  0.00  0.00     0.028 C 
ATOM     10  C   LIG d   1       1.579  85.875 114.056  0.00  0.00     0.006 C 
ENDBRANCH   8   9
BRANCH   8  11
ATOM     11  C   LIG d   1       4.098  88.031 112.587  0.00  0.00     0.028 C 
ATOM     12  C   LIG d   1       5.415  88.807 112.750  0.00  0.00     0.006 C 
ENDBRANCH   8  11
ENDBRANCH   7   8
ENDBRANCH   1   7
BRANCH   6  13
ATOM     13  N   LIG d   1       6.464  87.322 117.275  0.00  0.00    -0.311 N 
ATOM     14  C   LIG d   1       7.794  87.341 117.199  0.00  0.00     0.210 C 
ATOM     15  C   LIG d   1       8.487  86.060 117.675  0.00  0.00     0.109 C 
ATOM     16  O   LIG d   1       8.467  88.308 116.812  0.00  0.00    -0.276 OA
ATOM     17  H   LIG d   1       6.002  86.509 117.632  0.00  0.00     0.149 HD
ENDBRANCH   6  13
BRANCH   5  18
ATOM     18  N   LIG d   1       6.456  90.092 118.565  0.00  0.00     0.381 N 
ATOM     19  H   LIG d   1       6.809  90.752 117.901  0.00  0.00    -0.090 HD
ATOM     20  H   LIG d   1       7.170  89.406 118.738  0.00  0.00    -0.090 HD
ATOM     21  H   LIG d   1       6.219  90.557 119.413  0.00  0.00    -0.090 HD
ENDBRANCH   5  18
BRANCH   3  22
ATOM     22  C   LIG d   1       2.010  90.697 116.889  0.00  0.00     0.382 C 
ATOM     23  O   LIG d   1       1.045  90.366 116.160  0.00  0.00    -0.241 OA
ATOM     24  O   LIG d   1       1.910  91.699 117.622  0.00  0.00    -0.241 OA
ENDBRANCH   3  22
TORSDOF 7
ENDMDL
MODEL 3
REMARK VINA RESULT:      -4.6      4.059      7.831
REMARK  7 active torsions:
REMARK  status: ('A' for Active; 'I' for Inactive)
REMARK    1  A    between atoms: C_2  and  C_3 
REMARK    2  A    between atoms: C_3  and  O_6 
REMARK    3  A    between atoms: C_3  and  C_4 
REMARK    4  A    between atoms: C_7  and  O_6 
REMARK    5  A    between atoms: C_9  and  C_10 
REMARK    6  A    between atoms: N_15  and  C_14 
REMARK    7  A    between atoms: N_20  and  C_19 
REMARK       I    between atoms: C_22  and  N_20 
ROOT
ATOM      1  C   LIG d   1      -0.115  91.331 118.019  0.00  0.00     0.161 C 
ATOM      2  C   LIG d   1       1.238  91.655 118.210  0.00  0.00     0.016 C 
ATOM      3  C   LIG d   1       1.703  92.979 118.388  0.00  0.00     0.038 C 
ATOM      4  C   LIG d   1       0.823  94.060 118.539  0.00  0.00     0.028 C 
ATOM      5  C   LIG d   1      -0.521  93.848 117.850  0.00  0.00    -0.047 C 
ATOM      6  C   LIG d   1      -1.102  92.486 118.292  0.00  0.00     0.091 C 
ENDROOT
BRANCH   1   7
ATOM      7  O   LIG d   1      -0.459  90.180 118.815  0.00  0.00    -0.368 OA
BRANCH   7   8
ATOM      8  C   LIG d   1      -0.997  89.044 118.095  0.00  0.00     0.119 C 
BRANCH   8   9
ATOM      9  C   LIG d   1      -1.900  88.263 119.070  0.00  0.00     0.028 C 
ATOM     10  C   LIG d   1      -3.233  88.982 119.338  0.00  0.00     0.006 C 
ENDBRANCH   8   9
BRANCH   8  11
ATOM     11  C   LIG d   1       0.109  88.064 117.694  0.00  0.00     0.028 C 
ATOM     12  C   LIG d   1       0.077  86.762 118.510  0.00  0.00     0.006 C 
ENDBRANCH   8  11
ENDBRANCH   7   8
ENDBRANCH   1   7
BRANCH   6  13
ATOM     13  N   LIG d   1      -2.376  92.161 117.599  0.00  0.00    -0.311 N 
ATOM     14  C   LIG d   1      -3.577  92.443 118.103  0.00  0.00     0.210 C 
ATOM     15  C   LIG d   1      -4.761  92.005 117.236  0.00  0.00     0.109 C 
ATOM     16  O   LIG d   1      -3.773  93.042 119.171  0.00  0.00    -0.276 OA
ATOM     17  H   LIG d   1      -2.309  91.702 116.712  0.00  0.00     0.149 HD
ENDBRANCH   6  13
BRANCH   5  18
ATOM     18  N   LIG d   1      -1.388  94.988 118.203  0.00  0.00     0.381 N 
ATOM     19  H   LIG d   1      -1.823  94.821 119.088  0.00  0.00    -0.090 HD
ATOM     20  H   LIG d   1      -2.108  95.076 117.508  0.00  0.00    -0.090 HD
ATOM     21  H   LIG d   1      -0.850  95.826 118.242  0.00  0.00    -0.090 HD
ENDBRANCH   5  18
BRANCH   3  22
ATOM     22  C   LIG d   1       3.066  93.235 118.376  0.00  0.00     0.382 C 
ATOM     23  O   LIG d   1       3.702  93.196 117.296  0.00  0.00    -0.241 OA
ATOM     24  O   LIG d   1       3.675  93.461 119.439  0.00  0.00    -0.241 OA
ENDBRANCH   3  22
TORSDOF 7
ENDMDL
MODEL 4
REMARK VINA RESULT:      -4.5      5.440      8.260
REMARK  7 active torsions:
REMARK  status: ('A' for Active; 'I' for Inactive)
REMARK    1  A    between atoms: C_2  and  C_3 
REMARK    2  A    between atoms: C_3  and  O_6 
REMARK    3  A    between atoms: C_3  and  C_4 
REMARK    4  A    between atoms: C_7  and  O_6 
REMARK    5  A    between atoms: C_9  and  C_10 
REMARK    6  A    between atoms: N_15  and  C_14 
REMARK    7  A    between atoms: N_20  and  C_19 
REMARK       I    between atoms: C_22  and  N_20 
ROOT
ATOM      1  C   LIG d   1       0.422  90.031 117.663  0.00  0.00     0.161 C 
ATOM      2  C   LIG d   1      -0.981  90.007 117.600  0.00  0.00     0.016 C 
ATOM      3  C   LIG d   1      -1.794  91.122 117.909  0.00  0.00     0.038 C 
ATOM      4  C   LIG d   1      -1.248  92.390 118.157  0.00  0.00     0.028 C 
ATOM      5  C   LIG d   1       0.166  92.341 118.726  0.00  0.00    -0.047 C 
ATOM      6  C   LIG d   1       1.038  91.437 117.824  0.00  0.00     0.091 C 
ENDROOT
BRANCH   1   7
ATOM      7  O   LIG d   1       0.975  89.372 116.507  0.00  0.00    -0.368 OA
BRANCH   7   8
ATOM      8  C   LIG d   1       1.926  88.312 116.771  0.00  0.00     0.119 C 
BRANCH   8   9
ATOM      9  C   LIG d   1       3.022  88.393 115.690  0.00  0.00     0.028 C 
ATOM     10  C   LIG d   1       3.033  89.750 114.967  0.00  0.00     0.006 C 
ENDBRANCH   8   9
BRANCH   8  11
ATOM     11  C   LIG d   1       1.286  86.932 116.598  0.00  0.00     0.028 C 
ATOM     12  C   LIG d   1       1.660  86.265 115.264  0.00  0.00     0.006 C 
ENDBRANCH   8  11
ENDBRANCH   7   8
ENDBRANCH   1   7
BRANCH   6  13
ATOM     13  N   LIG d   1       2.415  91.266 118.356  0.00  0.00    -0.311 N 
ATOM     14  C   LIG d   1       3.435  92.052 118.014  0.00  0.00     0.210 C 
ATOM     15  C   LIG d   1       4.775  91.690 118.661  0.00  0.00     0.109 C 
ATOM     16  O   LIG d   1       3.350  93.033 117.260  0.00  0.00    -0.276 OA
ATOM     17  H   LIG d   1       2.567  90.513 118.997  0.00  0.00     0.149 HD
ENDBRANCH   6  13
BRANCH   5  18
ATOM     18  N   LIG d   1       0.662  93.728 118.807  0.00  0.00     0.381 N 
ATOM     19  H   LIG d   1      -0.024  94.308 119.245  0.00  0.00    -0.090 HD
ATOM     20  H   LIG d   1       0.818  94.072 117.876  0.00  0.00    -0.090 HD
ATOM     21  H   LIG d   1       1.512  93.756 119.326  0.00  0.00    -0.090 HD
ENDBRANCH   5  18
BRANCH   3  22
ATOM     22  C   LIG d   1      -3.167  90.964 118.011  0.00  0.00     0.382 C 
ATOM     23  O   LIG d   1      -3.661  89.815 118.106  0.00  0.00    -0.241 OA
ATOM     24  O   LIG d   1      -3.922  91.954 117.963  0.00  0.00    -0.241 OA
ENDBRANCH   3  22
TORSDOF 7
ENDMDL
MODEL 5
REMARK VINA RESULT:      -4.4      7.338      9.545
REMARK  7 active torsions:
REMARK  status: ('A' for Active; 'I' for Inactive)
REMARK    1  A    between atoms: C_2  and  C_3 
REMARK    2  A    between atoms: C_3  and  O_6 
REMARK    3  A    between atoms: C_3  and  C_4 
REMARK    4  A    between atoms: C_7  and  O_6 
REMARK    5  A    between atoms: C_9  and  C_10 
REMARK    6  A    between atoms: N_15  and  C_14 
REMARK    7  A    between atoms: N_20  and  C_19 
REMARK       I    between atoms: C_22  and  N_20 
ROOT
ATOM      1  C   LIG d   1       2.029  90.072 116.032  0.00  0.00     0.161 C 
ATOM      2  C   LIG d   1       1.032  90.042 117.021  0.00  0.00     0.016 C 
ATOM      3  C   LIG d   1       0.603  88.855 117.658  0.00  0.00     0.038 C 
ATOM      4  C   LIG d   1       1.254  87.628 117.456  0.00  0.00     0.028 C 
ATOM      5  C   LIG d   1       1.931  87.519 116.094  0.00  0.00    -0.047 C 
ATOM      6  C   LIG d   1       2.827  88.760 115.879  0.00  0.00     0.091 C 
ENDROOT
BRANCH   1   7
ATOM      7  O   LIG d   1       2.923  91.177 116.273  0.00  0.00    -0.368 OA
BRANCH   7   8
ATOM      8  C   LIG d   1       3.218  91.467 117.662  0.00  0.00     0.119 C 
BRANCH   8   9
ATOM      9  C   LIG d   1       3.280  93.000 117.811  0.00  0.00     0.028 C 
ATOM     10  C   LIG d   1       2.001  93.580 118.438  0.00  0.00     0.006 C 
ENDBRANCH   8   9
BRANCH   8  11
ATOM     11  C   LIG d   1       4.611  90.965 118.052  0.00  0.00     0.028 C 
ATOM     12  C   LIG d   1       5.558  92.101 118.472  0.00  0.00     0.006 C 
ENDBRANCH   8  11
ENDBRANCH   7   8
ENDBRANCH   1   7
BRANCH   6  13
ATOM     13  N   LIG d   1       3.462  88.775 114.535  0.00  0.00    -0.311 N 
ATOM     14  C   LIG d   1       4.776  88.667 114.344  0.00  0.00     0.210 C 
ATOM     15  C   LIG d   1       5.223  88.725 112.880  0.00  0.00     0.109 C 
ATOM     16  O   LIG d   1       5.610  88.495 115.245  0.00  0.00    -0.276 OA
ATOM     17  H   LIG d   1       2.856  88.878 113.745  0.00  0.00     0.149 HD
ENDBRANCH   6  13
BRANCH   5  18
ATOM     18  N   LIG d   1       2.685  86.251 116.072  0.00  0.00     0.381 N 
ATOM     19  H   LIG d   1       3.474  86.315 116.683  0.00  0.00    -0.090 HD
ATOM     20  H   LIG d   1       3.020  86.089 115.138  0.00  0.00    -0.090 HD
ATOM     21  H   LIG d   1       2.096  85.500 116.356  0.00  0.00    -0.090 HD
ENDBRANCH   5  18
BRANCH   3  22
ATOM     22  C   LIG d   1      -0.514  88.880 118.479  0.00  0.00     0.382 C 
ATOM     23  O   LIG d   1      -0.396  88.648 119.706  0.00  0.00    -0.241 OA
ATOM     24  O   LIG d   1      -1.645  89.088 118.000  0.00  0.00    -0.241 OA
ENDBRANCH   3  22
TORSDOF 7
ENDMDL
MODEL 6
REMARK VINA RESULT:      -4.4      8.444     11.603
REMARK  7 active torsions:
REMARK  status: ('A' for Active; 'I' for Inactive)
REMARK    1  A    between atoms: C_2  and  C_3 
REMARK    2  A    between atoms: C_3  and  O_6 
REMARK    3  A    between atoms: C_3  and  C_4 
REMARK    4  A    between atoms: C_7  and  O_6 
REMARK    5  A    between atoms: C_9  and  C_10 
REMARK    6  A    between atoms: N_15  and  C_14 
REMARK    7  A    between atoms: N_20  and  C_19 
REMARK       I    between atoms: C_22  and  N_20 
ROOT
ATOM      1  C   LIG d   1       4.746  89.694 118.415  0.00  0.00     0.161 C 
ATOM      2  C   LIG d   1       6.126  89.559 118.193  0.00  0.00     0.016 C 
ATOM      3  C   LIG d   1       6.674  88.981 117.025  0.00  0.00     0.038 C 
ATOM      4  C   LIG d   1       5.875  88.632 115.926  0.00  0.00     0.028 C 
ATOM      5  C   LIG d   1       4.439  88.284 116.306  0.00  0.00    -0.047 C 
ATOM      6  C   LIG d   1       3.862  89.421 117.180  0.00  0.00     0.091 C 
ENDROOT
BRANCH   1   7
ATOM      7  O   LIG d   1       4.463  91.000 118.955  0.00  0.00    -0.368 OA
BRANCH   7   8
ATOM      8  C   LIG d   1       4.792  92.126 118.105  0.00  0.00     0.119 C 
BRANCH   8   9
ATOM      9  C   LIG d   1       5.633  93.109 118.942  0.00  0.00     0.028 C 
ATOM     10  C   LIG d   1       7.141  92.966 118.676  0.00  0.00     0.006 C 
ENDBRANCH   8   9
BRANCH   8  11
ATOM     11  C   LIG d   1       3.536  92.906 117.704  0.00  0.00     0.028 C 
ATOM     12  C   LIG d   1       2.404  92.784 118.735  0.00  0.00     0.006 C 
ENDBRANCH   8  11
ENDBRANCH   7   8
ENDBRANCH   1   7
BRANCH   6  13
ATOM     13  N   LIG d   1       2.490  89.122 117.666  0.00  0.00    -0.311 N 
ATOM     14  C   LIG d   1       1.387  89.576 117.073  0.00  0.00     0.210 C 
ATOM     15  C   LIG d   1       0.075  89.166 117.748  0.00  0.00     0.109 C 
ATOM     16  O   LIG d   1       1.370  90.253 116.034  0.00  0.00    -0.276 OA
ATOM     17  H   LIG d   1       2.410  88.553 118.486  0.00  0.00     0.149 HD
ENDBRANCH   6  13
BRANCH   5  18
ATOM     18  N   LIG d   1       3.685  88.076 115.056  0.00  0.00     0.381 N 
ATOM     19  H   LIG d   1       2.816  88.570 115.098  0.00  0.00    -0.090 HD
ATOM     20  H   LIG d   1       3.486  87.096 114.955  0.00  0.00    -0.090 HD
ATOM     21  H   LIG d   1       4.219  88.396 114.278  0.00  0.00    -0.090 HD
ENDBRANCH   5  18
BRANCH   3  22
ATOM     22  C   LIG d   1       8.032  88.708 116.965  0.00  0.00     0.382 C 
ATOM     23  O   LIG d   1       8.864  89.612 117.216  0.00  0.00    -0.241 OA
ATOM     24  O   LIG d   1       8.435  87.582 116.618  0.00  0.00    -0.241 OA
ENDBRANCH   3  22
TORSDOF 7
ENDMDL
MODEL 7
REMARK VINA RESULT:      -4.4      3.149      5.052
REMARK  7 active torsions:
REMARK  status: ('A' for Active; 'I' for Inactive)
REMARK    1  A    between atoms: C_2  and  C_3 
REMARK    2  A    between atoms: C_3  and  O_6 
REMARK    3  A    between atoms: C_3  and  C_4 
REMARK    4  A    between atoms: C_7  and  O_6 
REMARK    5  A    between atoms: C_9  and  C_10 
REMARK    6  A    between atoms: N_15  and  C_14 
REMARK    7  A    between atoms: N_20  and  C_19 
REMARK       I    between atoms: C_22  and  N_20 
ROOT
ATOM      1  C   LIG d   1      -1.684  92.335 118.144  0.00  0.00     0.161 C 
ATOM      2  C   LIG d   1      -3.024  92.471 117.744  0.00  0.00     0.016 C 
ATOM      3  C   LIG d   1      -3.941  91.395 117.718  0.00  0.00     0.038 C 
ATOM      4  C   LIG d   1      -3.618  90.132 118.237  0.00  0.00     0.028 C 
ATOM      5  C   LIG d   1      -2.126  89.819 118.182  0.00  0.00    -0.047 C 
ATOM      6  C   LIG d   1      -1.343  90.990 118.818  0.00  0.00     0.091 C 
ENDROOT
BRANCH   1   7
ATOM      7  O   LIG d   1      -1.316  93.433 119.002  0.00  0.00    -0.368 OA
BRANCH   7   8
ATOM      8  C   LIG d   1      -0.613  94.530 118.367  0.00  0.00     0.119 C 
BRANCH   8   9
ATOM      9  C   LIG d   1       0.697  94.753 119.147  0.00  0.00     0.028 C 
ATOM     10  C   LIG d   1       1.887  94.006 118.521  0.00  0.00     0.006 C 
ENDBRANCH   8   9
BRANCH   8  11
ATOM     11  C   LIG d   1      -1.393  95.842 118.500  0.00  0.00     0.028 C 
ATOM     12  C   LIG d   1      -0.478  97.077 118.536  0.00  0.00     0.006 C 
ENDBRANCH   8  11
ENDBRANCH   7   8
ENDBRANCH   1   7
BRANCH   6  13
ATOM     13  N   LIG d   1       0.128  90.802 118.730  0.00  0.00    -0.311 N 
ATOM     14  C   LIG d   1       0.774  90.596 117.583  0.00  0.00     0.210 C 
ATOM     15  C   LIG d   1       2.288  90.407 117.719  0.00  0.00     0.109 C 
ATOM     16  O   LIG d   1       0.240  90.585 116.464  0.00  0.00    -0.276 OA
ATOM     17  H   LIG d   1       0.644  90.828 119.588  0.00  0.00     0.149 HD
ENDBRANCH   6  13
BRANCH   5  18
ATOM     18  N   LIG d   1      -1.915  88.535 118.879  0.00  0.00     0.381 N 
ATOM     19  H   LIG d   1      -0.974  88.483 119.214  0.00  0.00    -0.090 HD
ATOM     20  H   LIG d   1      -2.060  87.784 118.227  0.00  0.00    -0.090 HD
ATOM     21  H   LIG d   1      -2.552  88.452 119.640  0.00  0.00    -0.090 HD
ENDBRANCH   5  18
BRANCH   3  22
ATOM     22  C   LIG d   1      -5.185  91.567 117.131  0.00  0.00     0.382 C 
ATOM     23  O   LIG d   1      -5.939  92.492 117.518  0.00  0.00    -0.241 OA
ATOM     24  O   LIG d   1      -5.581  90.782 116.249  0.00  0.00    -0.241 OA
ENDBRANCH   3  22
TORSDOF 7
ENDMDL
MODEL 8
REMARK VINA RESULT:      -4.3      4.610      8.383
REMARK  7 active torsions:
REMARK  status: ('A' for Active; 'I' for Inactive)
REMARK    1  A    between atoms: C_2  and  C_3 
REMARK    2  A    between atoms: C_3  and  O_6 
REMARK    3  A    between atoms: C_3  and  C_4 
REMARK    4  A    between atoms: C_7  and  O_6 
REMARK    5  A    between atoms: C_9  and  C_10 
REMARK    6  A    between atoms: N_15  and  C_14 
REMARK    7  A    between atoms: N_20  and  C_19 
REMARK       I    between atoms: C_22  and  N_20 
ROOT
ATOM      1  C   LIG d   1       0.320  90.763 117.126  0.00  0.00     0.161 C 
ATOM      2  C   LIG d   1       1.640  91.177 117.374  0.00  0.00     0.016 C 
ATOM      3  C   LIG d   1       1.968  92.277 118.199  0.00  0.00     0.038 C 
ATOM      4  C   LIG d   1       0.998  92.950 118.957  0.00  0.00     0.028 C 
ATOM      5  C   LIG d   1      -0.398  92.889 118.348  0.00  0.00    -0.047 C 
ATOM      6  C   LIG d   1      -0.744  91.416 118.033  0.00  0.00     0.091 C 
ENDROOT
BRANCH   1   7
ATOM      7  O   LIG d   1       0.235  89.326 117.208  0.00  0.00    -0.368 OA
BRANCH   7   8
ATOM      8  C   LIG d   1       0.217  88.764 118.543  0.00  0.00     0.119 C 
BRANCH   8   9
ATOM      9  C   LIG d   1       1.565  88.051 118.763  0.00  0.00     0.028 C 
ATOM     10  C   LIG d   1       2.365  88.655 119.930  0.00  0.00     0.006 C 
ENDBRANCH   8   9
BRANCH   8  11
ATOM     11  C   LIG d   1      -0.847  87.670 118.673  0.00  0.00     0.028 C 
ATOM     12  C   LIG d   1      -1.943  88.023 119.690  0.00  0.00     0.006 C 
ENDBRANCH   8  11
ENDBRANCH   7   8
ENDBRANCH   1   7
BRANCH   6  13
ATOM     13  N   LIG d   1      -2.059  91.275 117.356  0.00  0.00    -0.311 N 
ATOM     14  C   LIG d   1      -3.212  91.154 118.012  0.00  0.00     0.210 C 
ATOM     15  C   LIG d   1      -4.450  91.000 117.122  0.00  0.00     0.109 C 
ATOM     16  O   LIG d   1      -3.331  91.192 119.246  0.00  0.00    -0.276 OA
ATOM     17  H   LIG d   1      -2.059  91.265 116.355  0.00  0.00     0.149 HD
ENDBRANCH   6  13
BRANCH   5  18
ATOM     18  N   LIG d   1      -1.331  93.510 119.307  0.00  0.00     0.381 N 
ATOM     19  H   LIG d   1      -0.816  93.988 120.019  0.00  0.00    -0.090 HD
ATOM     20  H   LIG d   1      -1.877  92.788 119.743  0.00  0.00    -0.090 HD
ATOM     21  H   LIG d   1      -1.931  94.150 118.834  0.00  0.00    -0.090 HD
ENDBRANCH   5  18
BRANCH   3  22
ATOM     22  C   LIG d   1       3.274  92.740 118.240  0.00  0.00     0.382 C 
ATOM     23  O   LIG d   1       3.817  93.177 117.197  0.00  0.00    -0.241 OA
ATOM     24  O   LIG d   1       3.931  92.685 119.297  0.00  0.00    -0.241 OA
ENDBRANCH   3  22
TORSDOF 7
ENDMDL
MODEL 9
REMARK VINA RESULT:      -4.3      8.038     10.037
REMARK  7 active torsions:
REMARK  status: ('A' for Active; 'I' for Inactive)
REMARK    1  A    between atoms: C_2  and  C_3 
REMARK    2  A    between atoms: C_3  and  O_6 
REMARK    3  A    between atoms: C_3  and  C_4 
REMARK    4  A    between atoms: C_7  and  O_6 
REMARK    5  A    between atoms: C_9  and  C_10 
REMARK    6  A    between atoms: N_15  and  C_14 
REMARK    7  A    between atoms: N_20  and  C_19 
REMARK       I    between atoms: C_22  and  N_20 
ROOT
ATOM      1  C   LIG d   1       3.834  89.556 116.613  0.00  0.00     0.161 C 
ATOM      2  C   LIG d   1       3.173  89.923 115.430  0.00  0.00     0.016 C 
ATOM      3  C   LIG d   1       2.898  89.019 114.378  0.00  0.00     0.038 C 
ATOM      4  C   LIG d   1       3.134  87.642 114.505  0.00  0.00     0.028 C 
ATOM      5  C   LIG d   1       4.260  87.307 115.477  0.00  0.00    -0.047 C 
ATOM      6  C   LIG d   1       4.000  88.035 116.816  0.00  0.00     0.091 C 
ENDROOT
BRANCH   1   7
ATOM      7  O   LIG d   1       3.167  90.143 117.748  0.00  0.00    -0.368 OA
BRANCH   7   8
ATOM      8  C   LIG d   1       2.360  91.315 117.477  0.00  0.00     0.119 C 
BRANCH   8   9
ATOM      9  C   LIG d   1       3.032  92.512 118.178  0.00  0.00     0.028 C 
ATOM     10  C   LIG d   1       2.065  93.689 118.386  0.00  0.00     0.006 C 
ENDBRANCH   8   9
BRANCH   8  11
ATOM     11  C   LIG d   1       0.974  91.197 118.117  0.00  0.00     0.028 C 
ATOM     12  C   LIG d   1       0.170  90.001 117.581  0.00  0.00     0.006 C 
ENDBRANCH   8  11
ENDBRANCH   7   8
ENDBRANCH   1   7
BRANCH   6  13
ATOM     13  N   LIG d   1       5.098  87.829 117.796  0.00  0.00    -0.311 N 
ATOM     14  C   LIG d   1       4.954  87.134 118.923  0.00  0.00     0.210 C 
ATOM     15  C   LIG d   1       6.206  87.061 119.802  0.00  0.00     0.109 C 
ATOM     16  O   LIG d   1       3.917  86.544 119.263  0.00  0.00    -0.276 OA
ATOM     17  H   LIG d   1       5.983  88.247 117.584  0.00  0.00     0.149 HD
ENDBRANCH   6  13
BRANCH   5  18
ATOM     18  N   LIG d   1       4.306  85.839 115.617  0.00  0.00     0.381 N 
ATOM     19  H   LIG d   1       5.173  85.492 115.257  0.00  0.00    -0.090 HD
ATOM     20  H   LIG d   1       3.558  85.437 115.081  0.00  0.00    -0.090 HD
ATOM     21  H   LIG d   1       4.211  85.585 116.576  0.00  0.00    -0.090 HD
ENDBRANCH   5  18
BRANCH   3  22
ATOM     22  C   LIG d   1       2.418  89.496 113.169  0.00  0.00     0.382 C 
ATOM     23  O   LIG d   1       1.728  88.752 112.430  0.00  0.00    -0.241 OA
ATOM     24  O   LIG d   1       2.702  90.647 112.786  0.00  0.00    -0.241 OA
ENDBRANCH   3  22
TORSDOF 7
ENDMDL
