MODEL 1
REMARK VINA RESULT:      -4.7      0.000      0.000
REMARK  7 active torsions:
REMARK  status: ('A' for Active; 'I' for Inactive)
REMARK    1  A    between atoms: C_2  and  C_3 
REMARK    2  A    between atoms: C_3  and  O_6 
REMARK    3  A    between atoms: C_3  and  C_4 
REMARK    4  A    between atoms: C_7  and  O_6 
REMARK    5  A    between atoms: C_9  and  C_10 
REMARK    6  A    between atoms: N_15  and  C_14 
REMARK    7  A    between atoms: N_20  and  C_19 
REMARK       I    between atoms: C_22  and  N_20 
ROOT
ATOM      1  C   LIG d   1       3.417  90.336 116.808  0.00  0.00     0.161 C 
ATOM      2  C   LIG d   1       2.478  91.219 117.367  0.00  0.00     0.016 C 
ATOM      3  C   LIG d   1       2.768  92.081 118.450  0.00  0.00     0.038 C 
ATOM      4  C   LIG d   1       4.070  92.228 118.952  0.00  0.00     0.028 C 
ATOM      5  C   LIG d   1       4.939  90.990 118.755  0.00  0.00    -0.047 C 
ATOM      6  C   LIG d   1       4.872  90.562 117.271  0.00  0.00     0.091 C 
ENDROOT
BRANCH   1   7
ATOM      7  O   LIG d   1       3.336  90.382 115.370  0.00  0.00    -0.368 OA
BRANCH   7   8
ATOM      8  C   LIG d   1       2.855  89.180 114.720  0.00  0.00     0.119 C 
BRANCH   8   9
ATOM      9  C   LIG d   1       2.424  88.197 115.826  0.00  0.00     0.028 C 
ATOM     10  C   LIG d   1       1.233  87.322 115.401  0.00  0.00     0.006 C 
ENDBRANCH   8   9
BRANCH   8  11
ATOM     11  C   LIG d   1       3.980  88.469 113.961  0.00  0.00     0.028 C 
ATOM     12  C   LIG d   1       5.018  89.444 113.384  0.00  0.00     0.006 C 
ENDBRANCH   8  11
ENDBRANCH   7   8
ENDBRANCH   1   7
BRANCH   6  13
ATOM     13  N   LIG d   1       5.627  89.310 117.008  0.00  0.00    -0.311 N 
ATOM     14  C   LIG d   1       6.917  89.287 116.678  0.00  0.00     0.210 C 
ATOM     15  C   LIG d   1       7.497  87.891 116.430  0.00  0.00     0.109 C 
ATOM     16  O   LIG d   1       7.645  90.288 116.598  0.00  0.00    -0.276 OA
ATOM     17  H   LIG d   1       5.122  88.448 117.081  0.00  0.00     0.149 HD
ENDBRANCH   6  13
BRANCH   5  18
ATOM     18  N   LIG d   1       6.304  91.329 119.198  0.00  0.00     0.381 N 
ATOM     19  H   LIG d   1       6.919  91.360 118.409  0.00  0.00    -0.090 HD
ATOM     20  H   LIG d   1       6.630  90.613 119.824  0.00  0.00    -0.090 HD
ATOM     21  H   LIG d   1       6.303  92.210 119.662  0.00  0.00    -0.090 HD
ENDBRANCH   5  18
BRANCH   3  22
ATOM     22  C   LIG d   1       1.741  92.778 119.067  0.00  0.00     0.382 C 
ATOM     23  O   LIG d   1       2.006  93.650 119.930  0.00  0.00    -0.241 OA
ATOM     24  O   LIG d   1       0.552  92.515 118.805  0.00  0.00    -0.241 OA
ENDBRANCH   3  22
TORSDOF 7
ENDMDL
MODEL 2
REMARK VINA RESULT:      -4.5      2.503      4.687
REMARK  7 active torsions:
REMARK  status: ('A' for Active; 'I' for Inactive)
REMARK    1  A    between atoms: C_2  and  C_3 
REMARK    2  A    between atoms: C_3  and  O_6 
REMARK    3  A    between atoms: C_3  and  C_4 
REMARK    4  A    between atoms: C_7  and  O_6 
REMARK    5  A    between atoms: C_9  and  C_10 
REMARK    6  A    between atoms: N_15  and  C_14 
REMARK    7  A    between atoms: N_20  and  C_19 
REMARK       I    between atoms: C_22  and  N_20 
ROOT
ATOM      1  C   LIG d   1       4.773  89.216 115.229  0.00  0.00     0.161 C 
ATOM      2  C   LIG d   1       4.523  90.304 116.081  0.00  0.00     0.016 C 
ATOM      3  C   LIG d   1       3.256  90.573 116.649  0.00  0.00     0.038 C 
ATOM      4  C   LIG d   1       2.182  89.679 116.523  0.00  0.00     0.028 C 
ATOM      5  C   LIG d   1       2.247  88.830 115.258  0.00  0.00    -0.047 C 
ATOM      6  C   LIG d   1       3.641  88.168 115.169  0.00  0.00     0.091 C 
ENDROOT
BRANCH   1   7
ATOM      7  O   LIG d   1       6.018  88.587 115.591  0.00  0.00    -0.368 OA
BRANCH   7   8
ATOM      8  C   LIG d   1       6.373  88.637 116.995  0.00  0.00     0.119 C 
BRANCH   8   9
ATOM      9  C   LIG d   1       7.800  89.211 117.092  0.00  0.00     0.028 C 
ATOM     10  C   LIG d   1       7.830  90.601 117.749  0.00  0.00     0.006 C 
ENDBRANCH   8   9
BRANCH   8  11
ATOM     11  C   LIG d   1       6.459  87.232 117.598  0.00  0.00     0.028 C 
ATOM     12  C   LIG d   1       6.253  86.122 116.554  0.00  0.00     0.006 C 
ENDBRANCH   8  11
ENDBRANCH   7   8
ENDBRANCH   1   7
BRANCH   6  13
ATOM     13  N   LIG d   1       3.819  87.386 113.917  0.00  0.00    -0.311 N 
ATOM     14  C   LIG d   1       3.480  86.103 113.801  0.00  0.00     0.210 C 
ATOM     15  C   LIG d   1       3.766  85.481 112.430  0.00  0.00     0.109 C 
ATOM     16  O   LIG d   1       2.941  85.430 114.692  0.00  0.00    -0.276 OA
ATOM     17  H   LIG d   1       4.221  87.863 113.134  0.00  0.00     0.149 HD
ENDBRANCH   6  13
BRANCH   5  18
ATOM     18  N   LIG d   1       1.146  87.850 115.322  0.00  0.00     0.381 N 
ATOM     19  H   LIG d   1       0.950  87.500 114.406  0.00  0.00    -0.090 HD
ATOM     20  H   LIG d   1       0.321  88.310 115.666  0.00  0.00    -0.090 HD
ATOM     21  H   LIG d   1       1.393  87.099 115.927  0.00  0.00    -0.090 HD
ENDBRANCH   5  18
BRANCH   3  22
ATOM     22  C   LIG d   1       3.044  91.768 117.320  0.00  0.00     0.382 C 
ATOM     23  O   LIG d   1       3.836  92.727 117.159  0.00  0.00    -0.241 OA
ATOM     24  O   LIG d   1       2.095  91.883 118.119  0.00  0.00    -0.241 OA
ENDBRANCH   3  22
TORSDOF 7
ENDMDL
MODEL 3
REMARK VINA RESULT:      -4.4      1.999      2.613
REMARK  7 active torsions:
REMARK  status: ('A' for Active; 'I' for Inactive)
REMARK    1  A    between atoms: C_2  and  C_3 
REMARK    2  A    between atoms: C_3  and  O_6 
REMARK    3  A    between atoms: C_3  and  C_4 
REMARK    4  A    between atoms: C_7  and  O_6 
REMARK    5  A    between atoms: C_9  and  C_10 
REMARK    6  A    between atoms: N_15  and  C_14 
REMARK    7  A    between atoms: N_20  and  C_19 
REMARK       I    between atoms: C_22  and  N_20 
ROOT
ATOM      1  C   LIG d   1       4.714  88.095 116.318  0.00  0.00     0.161 C 
ATOM      2  C   LIG d   1       3.848  89.200 116.363  0.00  0.00     0.016 C 
ATOM      3  C   LIG d   1       4.198  90.439 116.947  0.00  0.00     0.038 C 
ATOM      4  C   LIG d   1       5.501  90.707 117.393  0.00  0.00     0.028 C 
ATOM      5  C   LIG d   1       6.261  89.458 117.827  0.00  0.00    -0.047 C 
ATOM      6  C   LIG d   1       6.176  88.403 116.700  0.00  0.00     0.091 C 
ENDROOT
BRANCH   1   7
ATOM      7  O   LIG d   1       4.655  87.481 115.015  0.00  0.00    -0.368 OA
BRANCH   7   8
ATOM      8  C   LIG d   1       3.777  88.114 114.051  0.00  0.00     0.119 C 
BRANCH   8   9
ATOM      9  C   LIG d   1       2.799  87.039 113.540  0.00  0.00     0.028 C 
ATOM     10  C   LIG d   1       3.493  85.986 112.659  0.00  0.00     0.006 C 
ENDBRANCH   8   9
BRANCH   8  11
ATOM     11  C   LIG d   1       4.551  88.580 112.815  0.00  0.00     0.028 C 
ATOM     12  C   LIG d   1       5.696  89.547 113.157  0.00  0.00     0.006 C 
ENDBRANCH   8  11
ENDBRANCH   7   8
ENDBRANCH   1   7
BRANCH   6  13
ATOM     13  N   LIG d   1       6.823  87.119 117.077  0.00  0.00    -0.311 N 
ATOM     14  C   LIG d   1       8.082  86.814 116.770  0.00  0.00     0.210 C 
ATOM     15  C   LIG d   1       8.545  85.430 117.235  0.00  0.00     0.109 C 
ATOM     16  O   LIG d   1       8.870  87.572 116.184  0.00  0.00    -0.276 OA
ATOM     17  H   LIG d   1       6.265  86.458 117.582  0.00  0.00     0.149 HD
ENDBRANCH   6  13
BRANCH   5  18
ATOM     18  N   LIG d   1       7.645  89.863 118.137  0.00  0.00     0.381 N 
ATOM     19  H   LIG d   1       7.867  89.617 119.081  0.00  0.00    -0.090 HD
ATOM     20  H   LIG d   1       7.719  90.861 118.046  0.00  0.00    -0.090 HD
ATOM     21  H   LIG d   1       8.279  89.417 117.511  0.00  0.00    -0.090 HD
ENDBRANCH   5  18
BRANCH   3  22
ATOM     22  C   LIG d   1       3.228  91.414 117.125  0.00  0.00     0.382 C 
ATOM     23  O   LIG d   1       3.549  92.627 117.117  0.00  0.00    -0.241 OA
ATOM     24  O   LIG d   1       2.043  91.094 117.337  0.00  0.00    -0.241 OA
ENDBRANCH   3  22
TORSDOF 7
ENDMDL
MODEL 4
REMARK VINA RESULT:      -4.4      3.287      5.386
REMARK  7 active torsions:
REMARK  status: ('A' for Active; 'I' for Inactive)
REMARK    1  A    between atoms: C_2  and  C_3 
REMARK    2  A    between atoms: C_3  and  O_6 
REMARK    3  A    between atoms: C_3  and  C_4 
REMARK    4  A    between atoms: C_7  and  O_6 
REMARK    5  A    between atoms: C_9  and  C_10 
REMARK    6  A    between atoms: N_15  and  C_14 
REMARK    7  A    between atoms: N_20  and  C_19 
REMARK       I    between atoms: C_22  and  N_20 
ROOT
ATOM      1  C   LIG d   1       5.372  87.209 116.209  0.00  0.00     0.161 C 
ATOM      2  C   LIG d   1       6.350  87.860 116.979  0.00  0.00     0.016 C 
ATOM      3  C   LIG d   1       6.895  89.120 116.641  0.00  0.00     0.038 C 
ATOM      4  C   LIG d   1       6.386  89.889 115.584  0.00  0.00     0.028 C 
ATOM      5  C   LIG d   1       5.748  89.053 114.480  0.00  0.00    -0.047 C 
ATOM      6  C   LIG d   1       4.725  88.082 115.113  0.00  0.00     0.091 C 
ENDROOT
BRANCH   1   7
ATOM      7  O   LIG d   1       4.359  86.655 117.072  0.00  0.00    -0.368 OA
BRANCH   7   8
ATOM      8  C   LIG d   1       3.142  87.430 117.204  0.00  0.00     0.119 C 
BRANCH   8   9
ATOM      9  C   LIG d   1       3.205  88.164 118.558  0.00  0.00     0.028 C 
ATOM     10  C   LIG d   1       3.527  89.660 118.399  0.00  0.00     0.006 C 
ENDBRANCH   8   9
BRANCH   8  11
ATOM     11  C   LIG d   1       1.911  86.523 117.292  0.00  0.00     0.028 C 
ATOM     12  C   LIG d   1       0.964  86.685 116.092  0.00  0.00     0.006 C 
ENDBRANCH   8  11
ENDBRANCH   7   8
ENDBRANCH   1   7
BRANCH   6  13
ATOM     13  N   LIG d   1       4.116  87.168 114.112  0.00  0.00    -0.311 N 
ATOM     14  C   LIG d   1       3.041  87.482 113.392  0.00  0.00     0.210 C 
ATOM     15  C   LIG d   1       2.564  86.388 112.431  0.00  0.00     0.109 C 
ATOM     16  O   LIG d   1       2.456  88.575 113.433  0.00  0.00    -0.276 OA
ATOM     17  H   LIG d   1       4.546  86.272 113.991  0.00  0.00     0.149 HD
ENDBRANCH   6  13
BRANCH   5  18
ATOM     18  N   LIG d   1       5.138  89.984 113.511  0.00  0.00     0.381 N 
ATOM     19  H   LIG d   1       5.760  90.125 112.740  0.00  0.00    -0.090 HD
ATOM     20  H   LIG d   1       4.989  90.869 113.962  0.00  0.00    -0.090 HD
ATOM     21  H   LIG d   1       4.271  89.617 113.186  0.00  0.00    -0.090 HD
ENDBRANCH   5  18
BRANCH   3  22
ATOM     22  C   LIG d   1       7.989  89.606 117.342  0.00  0.00     0.382 C 
ATOM     23  O   LIG d   1       8.268  90.829 117.300  0.00  0.00    -0.241 OA
ATOM     24  O   LIG d   1       8.726  88.831 117.979  0.00  0.00    -0.241 OA
ENDBRANCH   3  22
TORSDOF 7
ENDMDL
MODEL 5
REMARK VINA RESULT:      -4.3      2.112      5.292
REMARK  7 active torsions:
REMARK  status: ('A' for Active; 'I' for Inactive)
REMARK    1  A    between atoms: C_2  and  C_3 
REMARK    2  A    between atoms: C_3  and  O_6 
REMARK    3  A    between atoms: C_3  and  C_4 
REMARK    4  A    between atoms: C_7  and  O_6 
REMARK    5  A    between atoms: C_9  and  C_10 
REMARK    6  A    between atoms: N_15  and  C_14 
REMARK    7  A    between atoms: N_20  and  C_19 
REMARK       I    between atoms: C_22  and  N_20 
ROOT
ATOM      1  C   LIG d   1       4.740  90.773 116.516  0.00  0.00     0.161 C 
ATOM      2  C   LIG d   1       3.784  90.170 115.682  0.00  0.00     0.016 C 
ATOM      3  C   LIG d   1       4.039  89.007 114.919  0.00  0.00     0.038 C 
ATOM      4  C   LIG d   1       5.228  88.276 115.057  0.00  0.00     0.028 C 
ATOM      5  C   LIG d   1       6.412  89.125 115.507  0.00  0.00    -0.047 C 
ATOM      6  C   LIG d   1       6.006  89.927 116.765  0.00  0.00     0.091 C 
ENDROOT
BRANCH   1   7
ATOM      7  O   LIG d   1       4.131  91.143 117.769  0.00  0.00    -0.368 OA
BRANCH   7   8
ATOM      8  C   LIG d   1       3.843  92.552 117.946  0.00  0.00     0.119 C 
BRANCH   8   9
ATOM      9  C   LIG d   1       4.718  93.061 119.108  0.00  0.00     0.028 C 
ATOM     10  C   LIG d   1       5.556  94.290 118.717  0.00  0.00     0.006 C 
ENDBRANCH   8   9
BRANCH   8  11
ATOM     11  C   LIG d   1       2.397  92.773 118.399  0.00  0.00     0.028 C 
ATOM     12  C   LIG d   1       2.245  92.766 119.929  0.00  0.00     0.006 C 
ENDBRANCH   8  11
ENDBRANCH   7   8
ENDBRANCH   1   7
BRANCH   6  13
ATOM     13  N   LIG d   1       7.080  90.847 117.221  0.00  0.00    -0.311 N 
ATOM     14  C   LIG d   1       7.534  90.881 118.473  0.00  0.00     0.210 C 
ATOM     15  C   LIG d   1       8.630  91.919 118.735  0.00  0.00     0.109 C 
ATOM     16  O   LIG d   1       7.156  90.128 119.383  0.00  0.00    -0.276 OA
ATOM     17  H   LIG d   1       7.466  91.472 116.540  0.00  0.00     0.149 HD
ENDBRANCH   6  13
BRANCH   5  18
ATOM     18  N   LIG d   1       7.549  88.215 115.743  0.00  0.00     0.381 N 
ATOM     19  H   LIG d   1       7.899  87.877 114.869  0.00  0.00    -0.090 HD
ATOM     20  H   LIG d   1       7.230  87.429 116.280  0.00  0.00    -0.090 HD
ATOM     21  H   LIG d   1       8.271  88.693 116.235  0.00  0.00    -0.090 HD
ENDBRANCH   5  18
BRANCH   3  22
ATOM     22  C   LIG d   1       3.113  88.586 113.977  0.00  0.00     0.382 C 
ATOM     23  O   LIG d   1       3.082  89.125 112.844  0.00  0.00    -0.241 OA
ATOM     24  O   LIG d   1       2.278  87.706 114.261  0.00  0.00    -0.241 OA
ENDBRANCH   3  22
TORSDOF 7
ENDMDL
MODEL 6
REMARK VINA RESULT:      -4.2      2.352      4.022
REMARK  7 active torsions:
REMARK  status: ('A' for Active; 'I' for Inactive)
REMARK    1  A    between atoms: C_2  and  C_3 
REMARK    2  A    between atoms: C_3  and  O_6 
REMARK    3  A    between atoms: C_3  and  C_4 
REMARK    4  A    between atoms: C_7  and  O_6 
REMARK    5  A    between atoms: C_9  and  C_10 
REMARK    6  A    between atoms: N_15  and  C_14 
REMARK    7  A    between atoms: N_20  and  C_19 
REMARK       I    between atoms: C_22  and  N_20 
ROOT
ATOM      1  C   LIG d   1       4.946  90.928 117.399  0.00  0.00     0.161 C 
ATOM      2  C   LIG d   1       5.624  91.940 118.098  0.00  0.00     0.016 C 
ATOM      3  C   LIG d   1       4.966  92.974 118.803  0.00  0.00     0.038 C 
ATOM      4  C   LIG d   1       3.575  92.981 118.983  0.00  0.00     0.028 C 
ATOM      5  C   LIG d   1       2.817  92.261 117.872  0.00  0.00    -0.047 C 
ATOM      6  C   LIG d   1       3.430  90.855 117.676  0.00  0.00     0.091 C 
ENDROOT
BRANCH   1   7
ATOM      7  O   LIG d   1       5.565  89.653 117.661  0.00  0.00    -0.368 OA
BRANCH   7   8
ATOM      8  C   LIG d   1       6.338  89.085 116.576  0.00  0.00     0.119 C 
BRANCH   8   9
ATOM      9  C   LIG d   1       6.115  89.971 115.335  0.00  0.00     0.028 C 
ATOM     10  C   LIG d   1       5.444  89.208 114.181  0.00  0.00     0.006 C 
ENDBRANCH   8   9
BRANCH   8  11
ATOM     11  C   LIG d   1       5.814  87.700 116.184  0.00  0.00     0.028 C 
ATOM     12  C   LIG d   1       5.624  86.771 117.394  0.00  0.00     0.006 C 
ENDBRANCH   8  11
ENDBRANCH   7   8
ENDBRANCH   1   7
BRANCH   6  13
ATOM     13  N   LIG d   1       2.802  90.115 116.551  0.00  0.00    -0.311 N 
ATOM     14  C   LIG d   1       2.358  88.863 116.654  0.00  0.00     0.210 C 
ATOM     15  C   LIG d   1       1.763  88.280 115.368  0.00  0.00     0.109 C 
ATOM     16  O   LIG d   1       2.372  88.191 117.696  0.00  0.00    -0.276 OA
ATOM     17  H   LIG d   1       2.722  90.596 115.677  0.00  0.00     0.149 HD
ENDBRANCH   6  13
BRANCH   5  18
ATOM     18  N   LIG d   1       1.394  92.223 118.255  0.00  0.00     0.381 N 
ATOM     19  H   LIG d   1       1.152  93.063 118.743  0.00  0.00    -0.090 HD
ATOM     20  H   LIG d   1       1.244  91.446 118.873  0.00  0.00    -0.090 HD
ATOM     21  H   LIG d   1       0.824  92.126 117.443  0.00  0.00    -0.090 HD
ENDBRANCH   5  18
BRANCH   3  22
ATOM     22  C   LIG d   1       5.700  94.040 119.303  0.00  0.00     0.382 C 
ATOM     23  O   LIG d   1       5.118  94.971 119.909  0.00  0.00    -0.241 OA
ATOM     24  O   LIG d   1       6.929  94.103 119.116  0.00  0.00    -0.241 OA
ENDBRANCH   3  22
TORSDOF 7
ENDMDL
MODEL 7
REMARK VINA RESULT:      -4.1      2.519      5.085
REMARK  7 active torsions:
REMARK  status: ('A' for Active; 'I' for Inactive)
REMARK    1  A    between atoms: C_2  and  C_3 
REMARK    2  A    between atoms: C_3  and  O_6 
REMARK    3  A    between atoms: C_3  and  C_4 
REMARK    4  A    between atoms: C_7  and  O_6 
REMARK    5  A    between atoms: C_9  and  C_10 
REMARK    6  A    between atoms: N_15  and  C_14 
REMARK    7  A    between atoms: N_20  and  C_19 
REMARK       I    between atoms: C_22  and  N_20 
ROOT
ATOM      1  C   LIG d   1       5.558  89.454 115.759  0.00  0.00     0.161 C 
ATOM      2  C   LIG d   1       4.634  89.389 114.702  0.00  0.00     0.016 C 
ATOM      3  C   LIG d   1       3.912  88.219 114.370  0.00  0.00     0.038 C 
ATOM      4  C   LIG d   1       3.954  87.070 115.173  0.00  0.00     0.028 C 
ATOM      5  C   LIG d   1       5.254  86.925 115.956  0.00  0.00    -0.047 C 
ATOM      6  C   LIG d   1       5.534  88.243 116.714  0.00  0.00     0.091 C 
ENDROOT
BRANCH   1   7
ATOM      7  O   LIG d   1       5.370  90.678 116.497  0.00  0.00    -0.368 OA
BRANCH   7   8
ATOM      8  C   LIG d   1       4.488  90.602 117.643  0.00  0.00     0.119 C 
BRANCH   8   9
ATOM      9  C   LIG d   1       3.266  91.493 117.347  0.00  0.00     0.028 C 
ATOM     10  C   LIG d   1       2.067  90.687 116.820  0.00  0.00     0.006 C 
ENDBRANCH   8   9
BRANCH   8  11
ATOM     11  C   LIG d   1       5.140  91.210 118.889  0.00  0.00     0.028 C 
ATOM     12  C   LIG d   1       6.516  91.828 118.600  0.00  0.00     0.006 C 
ENDBRANCH   8  11
ENDBRANCH   7   8
ENDBRANCH   1   7
BRANCH   6  13
ATOM     13  N   LIG d   1       6.831  88.216 117.439  0.00  0.00    -0.311 N 
ATOM     14  C   LIG d   1       6.948  87.868 118.719  0.00  0.00     0.210 C 
ATOM     15  C   LIG d   1       8.373  87.928 119.278  0.00  0.00     0.109 C 
ATOM     16  O   LIG d   1       6.012  87.485 119.437  0.00  0.00    -0.276 OA
ATOM     17  H   LIG d   1       7.647  88.483 116.924  0.00  0.00     0.149 HD
ENDBRANCH   6  13
BRANCH   5  18
ATOM     18  N   LIG d   1       5.108  85.762 116.853  0.00  0.00     0.381 N 
ATOM     19  H   LIG d   1       5.873  85.132 116.718  0.00  0.00    -0.090 HD
ATOM     20  H   LIG d   1       4.257  85.280 116.622  0.00  0.00    -0.090 HD
ATOM     21  H   LIG d   1       5.080  86.065 117.801  0.00  0.00    -0.090 HD
ENDBRANCH   5  18
BRANCH   3  22
ATOM     22  C   LIG d   1       3.169  88.180 113.201  0.00  0.00     0.382 C 
ATOM     23  O   LIG d   1       3.159  89.169 112.430  0.00  0.00    -0.241 OA
ATOM     24  O   LIG d   1       2.472  87.183 112.929  0.00  0.00    -0.241 OA
ENDBRANCH   3  22
TORSDOF 7
ENDMDL
MODEL 8
REMARK VINA RESULT:      -4.1      2.406      5.093
REMARK  7 active torsions:
REMARK  status: ('A' for Active; 'I' for Inactive)
REMARK    1  A    between atoms: C_2  and  C_3 
REMARK    2  A    between atoms: C_3  and  O_6 
REMARK    3  A    between atoms: C_3  and  C_4 
REMARK    4  A    between atoms: C_7  and  O_6 
REMARK    5  A    between atoms: C_9  and  C_10 
REMARK    6  A    between atoms: N_15  and  C_14 
REMARK    7  A    between atoms: N_20  and  C_19 
REMARK       I    between atoms: C_22  and  N_20 
ROOT
ATOM      1  C   LIG d   1       5.889  90.048 116.869  0.00  0.00     0.161 C 
ATOM      2  C   LIG d   1       5.511  90.301 115.540  0.00  0.00     0.016 C 
ATOM      3  C   LIG d   1       5.152  89.285 114.626  0.00  0.00     0.038 C 
ATOM      4  C   LIG d   1       5.000  87.949 115.025  0.00  0.00     0.028 C 
ATOM      5  C   LIG d   1       5.858  87.574 116.229  0.00  0.00    -0.047 C 
ATOM      6  C   LIG d   1       5.621  88.608 117.354  0.00  0.00     0.091 C 
ENDROOT
BRANCH   1   7
ATOM      7  O   LIG d   1       5.254  90.998 117.747  0.00  0.00    -0.368 OA
BRANCH   7   8
ATOM      8  C   LIG d   1       4.047  91.623 117.244  0.00  0.00     0.119 C 
BRANCH   8   9
ATOM      9  C   LIG d   1       3.924  93.002 117.921  0.00  0.00     0.028 C 
ATOM     10  C   LIG d   1       5.051  93.262 118.934  0.00  0.00     0.006 C 
ENDBRANCH   8   9
BRANCH   8  11
ATOM     11  C   LIG d   1       2.798  90.848 117.673  0.00  0.00     0.028 C 
ATOM     12  C   LIG d   1       2.063  90.201 116.489  0.00  0.00     0.006 C 
ENDBRANCH   8  11
ENDBRANCH   7   8
ENDBRANCH   1   7
BRANCH   6  13
ATOM     13  N   LIG d   1       6.485  88.364 118.538  0.00  0.00    -0.311 N 
ATOM     14  C   LIG d   1       7.810  88.240 118.466  0.00  0.00     0.210 C 
ATOM     15  C   LIG d   1       8.507  87.972 119.804  0.00  0.00     0.109 C 
ATOM     16  O   LIG d   1       8.476  88.359 117.427  0.00  0.00    -0.276 OA
ATOM     17  H   LIG d   1       6.030  88.285 119.426  0.00  0.00     0.149 HD
ENDBRANCH   6  13
BRANCH   5  18
ATOM     18  N   LIG d   1       5.498  86.199 116.622  0.00  0.00     0.381 N 
ATOM     19  H   LIG d   1       5.929  85.545 116.000  0.00  0.00    -0.090 HD
ATOM     20  H   LIG d   1       4.501  86.091 116.552  0.00  0.00    -0.090 HD
ATOM     21  H   LIG d   1       5.794  86.023 117.557  0.00  0.00    -0.090 HD
ENDBRANCH   5  18
BRANCH   3  22
ATOM     22  C   LIG d   1       4.980  89.595 113.285  0.00  0.00     0.382 C 
ATOM     23  O   LIG d   1       3.990  90.274 112.921  0.00  0.00    -0.241 OA
ATOM     24  O   LIG d   1       5.779  89.168 112.430  0.00  0.00    -0.241 OA
ENDBRANCH   3  22
TORSDOF 7
ENDMDL
MODEL 9
REMARK VINA RESULT:      -4.0      2.751      5.469
REMARK  7 active torsions:
REMARK  status: ('A' for Active; 'I' for Inactive)
REMARK    1  A    between atoms: C_2  and  C_3 
REMARK    2  A    between atoms: C_3  and  O_6 
REMARK    3  A    between atoms: C_3  and  C_4 
REMARK    4  A    between atoms: C_7  and  O_6 
REMARK    5  A    between atoms: C_9  and  C_10 
REMARK    6  A    between atoms: N_15  and  C_14 
REMARK    7  A    between atoms: N_20  and  C_19 
REMARK       I    between atoms: C_22  and  N_20 
ROOT
ATOM      1  C   LIG d   1       6.194  88.921 116.813  0.00  0.00     0.161 C 
ATOM      2  C   LIG d   1       5.915  89.558 115.592  0.00  0.00     0.016 C 
ATOM      3  C   LIG d   1       5.081  89.000 114.596  0.00  0.00     0.038 C 
ATOM      4  C   LIG d   1       4.345  87.826 114.818  0.00  0.00     0.028 C 
ATOM      5  C   LIG d   1       4.987  86.892 115.838  0.00  0.00    -0.047 C 
ATOM      6  C   LIG d   1       5.312  87.693 117.119  0.00  0.00     0.091 C 
ENDROOT
BRANCH   1   7
ATOM      7  O   LIG d   1       6.116  89.875 117.891  0.00  0.00    -0.368 OA
BRANCH   7   8
ATOM      8  C   LIG d   1       5.296  91.045 117.649  0.00  0.00     0.119 C 
BRANCH   8   9
ATOM      9  C   LIG d   1       5.907  92.212 118.449  0.00  0.00     0.028 C 
ATOM     10  C   LIG d   1       7.430  92.080 118.609  0.00  0.00     0.006 C 
ENDBRANCH   8   9
BRANCH   8  11
ATOM     11  C   LIG d   1       3.884  90.861 118.213  0.00  0.00     0.028 C 
ATOM     12  C   LIG d   1       2.788  91.313 117.235  0.00  0.00     0.006 C 
ENDBRANCH   8  11
ENDBRANCH   7   8
ENDBRANCH   1   7
BRANCH   6  13
ATOM     13  N   LIG d   1       6.019  86.873 118.136  0.00  0.00    -0.311 N 
ATOM     14  C   LIG d   1       7.164  86.236 117.898  0.00  0.00     0.210 C 
ATOM     15  C   LIG d   1       7.714  85.430 119.079  0.00  0.00     0.109 C 
ATOM     16  O   LIG d   1       7.793  86.288 116.830  0.00  0.00    -0.276 OA
ATOM     17  H   LIG d   1       5.595  86.802 119.040  0.00  0.00     0.149 HD
ENDBRANCH   6  13
BRANCH   5  18
ATOM     18  N   LIG d   1       4.049  85.778 116.074  0.00  0.00     0.381 N 
ATOM     19  H   LIG d   1       3.694  85.827 117.008  0.00  0.00    -0.090 HD
ATOM     20  H   LIG d   1       4.542  84.909 115.970  0.00  0.00    -0.090 HD
ATOM     21  H   LIG d   1       3.296  85.822 115.423  0.00  0.00    -0.090 HD
ENDBRANCH   5  18
BRANCH   3  22
ATOM     22  C   LIG d   1       5.010  89.596 113.347  0.00  0.00     0.382 C 
ATOM     23  O   LIG d   1       5.943  89.440 112.523  0.00  0.00    -0.241 OA
ATOM     24  O   LIG d   1       4.044  90.324 113.049  0.00  0.00    -0.241 OA
ENDBRANCH   3  22
TORSDOF 7
ENDMDL
