MODEL 1
REMARK VINA RESULT:      -4.6      0.000      0.000
REMARK  7 active torsions:
REMARK  status: ('A' for Active; 'I' for Inactive)
REMARK    1  A    between atoms: C_2  and  C_3 
REMARK    2  A    between atoms: C_3  and  O_6 
REMARK    3  A    between atoms: C_3  and  C_4 
REMARK    4  A    between atoms: C_7  and  O_6 
REMARK    5  A    between atoms: C_9  and  C_10 
REMARK    6  A    between atoms: N_15  and  C_14 
REMARK    7  A    between atoms: N_20  and  C_19 
REMARK       I    between atoms: C_22  and  N_20 
ROOT
ATOM      1  C   LIG d   1      -6.078  92.576 117.168  0.00  0.00     0.161 C 
ATOM      2  C   LIG d   1      -7.028  91.816 116.466  0.00  0.00     0.016 C 
ATOM      3  C   LIG d   1      -6.730  90.583 115.842  0.00  0.00     0.038 C 
ATOM      4  C   LIG d   1      -5.489  89.949 116.006  0.00  0.00     0.028 C 
ATOM      5  C   LIG d   1      -4.346  90.919 116.283  0.00  0.00    -0.047 C 
ATOM      6  C   LIG d   1      -4.748  91.847 117.452  0.00  0.00     0.091 C 
ENDROOT
BRANCH   1   7
ATOM      7  O   LIG d   1      -6.653  93.065 118.396  0.00  0.00    -0.368 OA
BRANCH   7   8
ATOM      8  C   LIG d   1      -6.910  94.490 118.456  0.00  0.00     0.119 C 
BRANCH   8   9
ATOM      9  C   LIG d   1      -6.347  95.005 119.795  0.00  0.00     0.028 C 
ATOM     10  C   LIG d   1      -5.231  96.045 119.600  0.00  0.00     0.006 C 
ENDBRANCH   8   9
BRANCH   8  11
ATOM     11  C   LIG d   1      -8.412  94.783 118.508  0.00  0.00     0.028 C 
ATOM     12  C   LIG d   1      -9.041  94.433 119.866  0.00  0.00     0.006 C 
ENDBRANCH   8  11
ENDBRANCH   7   8
ENDBRANCH   1   7
BRANCH   6  13
ATOM     13  N   LIG d   1      -3.719  92.882 117.733  0.00  0.00    -0.311 N 
ATOM     14  C   LIG d   1      -2.762  92.735 118.648  0.00  0.00     0.210 C 
ATOM     15  C   LIG d   1      -1.816  93.932 118.792  0.00  0.00     0.109 C 
ATOM     16  O   LIG d   1      -2.588  91.715 119.331  0.00  0.00    -0.276 OA
ATOM     17  H   LIG d   1      -3.767  93.730 117.202  0.00  0.00     0.149 HD
ENDBRANCH   6  13
BRANCH   5  18
ATOM     18  N   LIG d   1      -3.141  90.117 116.569  0.00  0.00     0.381 N 
ATOM     19  H   LIG d   1      -2.736  89.796 115.713  0.00  0.00    -0.090 HD
ATOM     20  H   LIG d   1      -3.406  89.315 117.113  0.00  0.00    -0.090 HD
ATOM     21  H   LIG d   1      -2.479  90.665 117.073  0.00  0.00    -0.090 HD
ENDBRANCH   5  18
BRANCH   3  22
ATOM     22  C   LIG d   1      -7.667  89.990 115.009  0.00  0.00     0.382 C 
ATOM     23  O   LIG d   1      -8.445  89.116 115.462  0.00  0.00    -0.241 OA
ATOM     24  O   LIG d   1      -7.716  90.287 113.800  0.00  0.00    -0.241 OA
ENDBRANCH   3  22
TORSDOF 7
ENDMDL
MODEL 2
REMARK VINA RESULT:      -4.4      7.045      9.643
REMARK  7 active torsions:
REMARK  status: ('A' for Active; 'I' for Inactive)
REMARK    1  A    between atoms: C_2  and  C_3 
REMARK    2  A    between atoms: C_3  and  O_6 
REMARK    3  A    between atoms: C_3  and  C_4 
REMARK    4  A    between atoms: C_7  and  O_6 
REMARK    5  A    between atoms: C_9  and  C_10 
REMARK    6  A    between atoms: N_15  and  C_14 
REMARK    7  A    between atoms: N_20  and  C_19 
REMARK       I    between atoms: C_22  and  N_20 
ROOT
ATOM      1  C   LIG d   1       2.590  89.247 116.137  0.00  0.00     0.161 C 
ATOM      2  C   LIG d   1       3.396  89.760 115.107  0.00  0.00     0.016 C 
ATOM      3  C   LIG d   1       3.733  89.029 113.945  0.00  0.00     0.038 C 
ATOM      4  C   LIG d   1       3.158  87.781 113.662  0.00  0.00     0.028 C 
ATOM      5  C   LIG d   1       2.737  87.011 114.909  0.00  0.00    -0.047 C 
ATOM      6  C   LIG d   1       1.864  87.930 115.794  0.00  0.00     0.091 C 
ENDROOT
BRANCH   1   7
ATOM      7  O   LIG d   1       1.642  90.247 116.559  0.00  0.00    -0.368 OA
BRANCH   7   8
ATOM      8  C   LIG d   1       1.899  90.869 117.842  0.00  0.00     0.119 C 
BRANCH   8   9
ATOM      9  C   LIG d   1       0.568  90.900 118.617  0.00  0.00     0.028 C 
ATOM     10  C   LIG d   1      -0.625  91.271 117.719  0.00  0.00     0.006 C 
ENDBRANCH   8   9
BRANCH   8  11
ATOM     11  C   LIG d   1       2.308  92.336 117.679  0.00  0.00     0.028 C 
ATOM     12  C   LIG d   1       3.830  92.520 117.561  0.00  0.00     0.006 C 
ENDBRANCH   8  11
ENDBRANCH   7   8
ENDBRANCH   1   7
BRANCH   6  13
ATOM     13  N   LIG d   1       1.478  87.282 117.075  0.00  0.00    -0.311 N 
ATOM     14  C   LIG d   1       0.244  87.324 117.575  0.00  0.00     0.210 C 
ATOM     15  C   LIG d   1       0.067  86.608 118.918  0.00  0.00     0.109 C 
ATOM     16  O   LIG d   1      -0.727  87.858 117.019  0.00  0.00    -0.276 OA
ATOM     17  H   LIG d   1       2.198  86.800 117.577  0.00  0.00     0.149 HD
ENDBRANCH   6  13
BRANCH   5  18
ATOM     18  N   LIG d   1       2.030  85.795 114.464  0.00  0.00     0.381 N 
ATOM     19  H   LIG d   1       2.295  85.574 113.525  0.00  0.00    -0.090 HD
ATOM     20  H   LIG d   1       1.041  85.970 114.481  0.00  0.00    -0.090 HD
ATOM     21  H   LIG d   1       2.250  85.033 115.067  0.00  0.00    -0.090 HD
ENDBRANCH   5  18
BRANCH   3  22
ATOM     22  C   LIG d   1       4.685  89.529 113.070  0.00  0.00     0.382 C 
ATOM     23  O   LIG d   1       4.641  90.732 112.716  0.00  0.00    -0.241 OA
ATOM     24  O   LIG d   1       5.562  88.782 112.596  0.00  0.00    -0.241 OA
ENDBRANCH   3  22
TORSDOF 7
ENDMDL
MODEL 3
REMARK VINA RESULT:      -4.3      2.674      5.427
REMARK  7 active torsions:
REMARK  status: ('A' for Active; 'I' for Inactive)
REMARK    1  A    between atoms: C_2  and  C_3 
REMARK    2  A    between atoms: C_3  and  O_6 
REMARK    3  A    between atoms: C_3  and  C_4 
REMARK    4  A    between atoms: C_7  and  O_6 
REMARK    5  A    between atoms: C_9  and  C_10 
REMARK    6  A    between atoms: N_15  and  C_14 
REMARK    7  A    between atoms: N_20  and  C_19 
REMARK       I    between atoms: C_22  and  N_20 
ROOT
ATOM      1  C   LIG d   1      -2.891  92.891 119.346  0.00  0.00     0.161 C 
ATOM      2  C   LIG d   1      -2.735  94.262 119.082  0.00  0.00     0.016 C 
ATOM      3  C   LIG d   1      -1.783  94.775 118.172  0.00  0.00     0.038 C 
ATOM      4  C   LIG d   1      -1.019  93.937 117.346  0.00  0.00     0.028 C 
ATOM      5  C   LIG d   1      -0.785  92.552 117.939  0.00  0.00    -0.047 C 
ATOM      6  C   LIG d   1      -2.144  91.956 118.373  0.00  0.00     0.091 C 
ENDROOT
BRANCH   1   7
ATOM      7  O   LIG d   1      -4.293  92.558 119.385  0.00  0.00    -0.368 OA
BRANCH   7   8
ATOM      8  C   LIG d   1      -5.112  93.123 118.331  0.00  0.00     0.119 C 
BRANCH   8   9
ATOM      9  C   LIG d   1      -6.413  93.633 118.980  0.00  0.00     0.028 C 
ATOM     10  C   LIG d   1      -6.374  95.143 119.265  0.00  0.00     0.006 C 
ENDBRANCH   8   9
BRANCH   8  11
ATOM     11  C   LIG d   1      -5.551  92.049 117.331  0.00  0.00     0.028 C 
ATOM     12  C   LIG d   1      -6.816  92.442 116.553  0.00  0.00     0.006 C 
ENDBRANCH   8  11
ENDBRANCH   7   8
ENDBRANCH   1   7
BRANCH   6  13
ATOM     13  N   LIG d   1      -1.997  90.636 119.041  0.00  0.00    -0.311 N 
ATOM     14  C   LIG d   1      -2.546  89.515 118.577  0.00  0.00     0.210 C 
ATOM     15  C   LIG d   1      -2.287  88.268 119.430  0.00  0.00     0.109 C 
ATOM     16  O   LIG d   1      -3.195  89.428 117.525  0.00  0.00    -0.276 OA
ATOM     17  H   LIG d   1      -1.459  90.610 119.885  0.00  0.00     0.149 HD
ENDBRANCH   6  13
BRANCH   5  18
ATOM     18  N   LIG d   1      -0.097  91.740 116.918  0.00  0.00     0.381 N 
ATOM     19  H   LIG d   1       0.475  92.329 116.346  0.00  0.00    -0.090 HD
ATOM     20  H   LIG d   1      -0.786  91.303 116.331  0.00  0.00    -0.090 HD
ATOM     21  H   LIG d   1       0.465  91.044 117.357  0.00  0.00    -0.090 HD
ENDBRANCH   5  18
BRANCH   3  22
ATOM     22  C   LIG d   1      -1.558  96.142 118.110  0.00  0.00     0.382 C 
ATOM     23  O   LIG d   1      -0.674  96.599 117.346  0.00  0.00    -0.241 OA
ATOM     24  O   LIG d   1      -2.199  96.921 118.841  0.00  0.00    -0.241 OA
ENDBRANCH   3  22
TORSDOF 7
ENDMDL
MODEL 4
REMARK VINA RESULT:      -4.3      9.145     11.200
REMARK  7 active torsions:
REMARK  status: ('A' for Active; 'I' for Inactive)
REMARK    1  A    between atoms: C_2  and  C_3 
REMARK    2  A    between atoms: C_3  and  O_6 
REMARK    3  A    between atoms: C_3  and  C_4 
REMARK    4  A    between atoms: C_7  and  O_6 
REMARK    5  A    between atoms: C_9  and  C_10 
REMARK    6  A    between atoms: N_15  and  C_14 
REMARK    7  A    between atoms: N_20  and  C_19 
REMARK       I    between atoms: C_22  and  N_20 
ROOT
ATOM      1  C   LIG d   1       5.160  90.697 115.392  0.00  0.00     0.161 C 
ATOM      2  C   LIG d   1       4.298  90.200 114.401  0.00  0.00     0.016 C 
ATOM      3  C   LIG d   1       4.207  88.830 114.065  0.00  0.00     0.038 C 
ATOM      4  C   LIG d   1       4.867  87.839 114.807  0.00  0.00     0.028 C 
ATOM      5  C   LIG d   1       6.136  88.338 115.490  0.00  0.00    -0.047 C 
ATOM      6  C   LIG d   1       5.806  89.619 116.288  0.00  0.00     0.091 C 
ENDROOT
BRANCH   1   7
ATOM      7  O   LIG d   1       4.468  91.670 116.199  0.00  0.00    -0.368 OA
BRANCH   7   8
ATOM      8  C   LIG d   1       3.785  91.157 117.370  0.00  0.00     0.119 C 
BRANCH   8   9
ATOM      9  C   LIG d   1       2.272  91.335 117.139  0.00  0.00     0.028 C 
ATOM     10  C   LIG d   1       1.504  90.006 117.229  0.00  0.00     0.006 C 
ENDBRANCH   8   9
BRANCH   8  11
ATOM     11  C   LIG d   1       4.106  91.993 118.613  0.00  0.00     0.028 C 
ATOM     12  C   LIG d   1       5.262  92.980 118.385  0.00  0.00     0.006 C 
ENDBRANCH   8  11
ENDBRANCH   7   8
ENDBRANCH   1   7
BRANCH   6  13
ATOM     13  N   LIG d   1       7.010  90.221 116.918  0.00  0.00    -0.311 N 
ATOM     14  C   LIG d   1       7.389  89.964 118.169  0.00  0.00     0.210 C 
ATOM     15  C   LIG d   1       8.649  90.704 118.629  0.00  0.00     0.109 C 
ATOM     16  O   LIG d   1       6.819  89.168 118.931  0.00  0.00    -0.276 OA
ATOM     17  H   LIG d   1       7.549  90.854 116.361  0.00  0.00     0.149 HD
ENDBRANCH   6  13
BRANCH   5  18
ATOM     18  N   LIG d   1       6.646  87.244 116.337  0.00  0.00     0.381 N 
ATOM     19  H   LIG d   1       7.419  87.570 116.883  0.00  0.00    -0.090 HD
ATOM     20  H   LIG d   1       6.970  86.498 115.746  0.00  0.00    -0.090 HD
ATOM     21  H   LIG d   1       5.923  86.912 116.937  0.00  0.00    -0.090 HD
ENDBRANCH   5  18
BRANCH   3  22
ATOM     22  C   LIG d   1       3.479  88.442 112.950  0.00  0.00     0.382 C 
ATOM     23  O   LIG d   1       3.679  87.317 112.431  0.00  0.00    -0.241 OA
ATOM     24  O   LIG d   1       2.658  89.221 112.430  0.00  0.00    -0.241 OA
ENDBRANCH   3  22
TORSDOF 7
ENDMDL
MODEL 5
REMARK VINA RESULT:      -4.3      7.228     10.384
REMARK  7 active torsions:
REMARK  status: ('A' for Active; 'I' for Inactive)
REMARK    1  A    between atoms: C_2  and  C_3 
REMARK    2  A    between atoms: C_3  and  O_6 
REMARK    3  A    between atoms: C_3  and  C_4 
REMARK    4  A    between atoms: C_7  and  O_6 
REMARK    5  A    between atoms: C_9  and  C_10 
REMARK    6  A    between atoms: N_15  and  C_14 
REMARK    7  A    between atoms: N_20  and  C_19 
REMARK       I    between atoms: C_22  and  N_20 
ROOT
ATOM      1  C   LIG d   1       2.651  89.275 116.378  0.00  0.00     0.161 C 
ATOM      2  C   LIG d   1       3.099  90.465 116.975  0.00  0.00     0.016 C 
ATOM      3  C   LIG d   1       4.275  91.141 116.575  0.00  0.00     0.038 C 
ATOM      4  C   LIG d   1       5.005  90.752 115.442  0.00  0.00     0.028 C 
ATOM      5  C   LIG d   1       4.874  89.267 115.118  0.00  0.00    -0.047 C 
ATOM      6  C   LIG d   1       3.374  88.896 115.068  0.00  0.00     0.091 C 
ENDROOT
BRANCH   1   7
ATOM      7  O   LIG d   1       1.227  89.343 116.162  0.00  0.00    -0.368 OA
BRANCH   7   8
ATOM      8  C   LIG d   1       0.394  88.893 117.259  0.00  0.00     0.119 C 
BRANCH   8   9
ATOM      9  C   LIG d   1      -0.082  87.467 116.923  0.00  0.00     0.028 C 
ATOM     10  C   LIG d   1       0.781  86.386 117.596  0.00  0.00     0.006 C 
ENDBRANCH   8   9
BRANCH   8  11
ATOM     11  C   LIG d   1      -0.882  89.732 117.369  0.00  0.00     0.028 C 
ATOM     12  C   LIG d   1      -2.128  88.884 117.674  0.00  0.00     0.006 C 
ENDBRANCH   8  11
ENDBRANCH   7   8
ENDBRANCH   1   7
BRANCH   6  13
ATOM     13  N   LIG d   1       3.157  87.443 114.839  0.00  0.00    -0.311 N 
ATOM     14  C   LIG d   1       2.482  86.958 113.799  0.00  0.00     0.210 C 
ATOM     15  C   LIG d   1       2.358  85.432 113.763  0.00  0.00     0.109 C 
ATOM     16  O   LIG d   1       2.001  87.645 112.885  0.00  0.00    -0.276 OA
ATOM     17  H   LIG d   1       3.540  86.813 115.516  0.00  0.00     0.149 HD
ENDBRANCH   6  13
BRANCH   5  18
ATOM     18  N   LIG d   1       5.571  89.027 113.840  0.00  0.00     0.381 N 
ATOM     19  H   LIG d   1       6.560  89.096 113.976  0.00  0.00    -0.090 HD
ATOM     20  H   LIG d   1       5.294  89.733 113.181  0.00  0.00    -0.090 HD
ATOM     21  H   LIG d   1       5.338  88.124 113.489  0.00  0.00    -0.090 HD
ENDBRANCH   5  18
BRANCH   3  22
ATOM     22  C   LIG d   1       4.753  92.197 117.336  0.00  0.00     0.382 C 
ATOM     23  O   LIG d   1       5.332  91.973 118.426  0.00  0.00    -0.241 OA
ATOM     24  O   LIG d   1       4.572  93.373 116.968  0.00  0.00    -0.241 OA
ENDBRANCH   3  22
TORSDOF 7
ENDMDL
MODEL 6
REMARK VINA RESULT:      -4.3      5.816      8.667
REMARK  7 active torsions:
REMARK  status: ('A' for Active; 'I' for Inactive)
REMARK    1  A    between atoms: C_2  and  C_3 
REMARK    2  A    between atoms: C_3  and  O_6 
REMARK    3  A    between atoms: C_3  and  C_4 
REMARK    4  A    between atoms: C_7  and  O_6 
REMARK    5  A    between atoms: C_9  and  C_10 
REMARK    6  A    between atoms: N_15  and  C_14 
REMARK    7  A    between atoms: N_20  and  C_19 
REMARK       I    between atoms: C_22  and  N_20 
ROOT
ATOM      1  C   LIG d   1       1.030  89.191 117.127  0.00  0.00     0.161 C 
ATOM      2  C   LIG d   1      -0.354  88.953 117.158  0.00  0.00     0.016 C 
ATOM      3  C   LIG d   1      -1.295  89.893 117.638  0.00  0.00     0.038 C 
ATOM      4  C   LIG d   1      -0.926  91.202 117.981  0.00  0.00     0.028 C 
ATOM      5  C   LIG d   1       0.522  91.322 118.443  0.00  0.00    -0.047 C 
ATOM      6  C   LIG d   1       1.441  90.654 117.394  0.00  0.00     0.091 C 
ENDROOT
BRANCH   1   7
ATOM      7  O   LIG d   1       1.576  88.738 115.872  0.00  0.00    -0.368 OA
BRANCH   7   8
ATOM      8  C   LIG d   1       2.483  87.611 115.942  0.00  0.00     0.119 C 
BRANCH   8   9
ATOM      9  C   LIG d   1       3.609  87.859 114.920  0.00  0.00     0.028 C 
ATOM     10  C   LIG d   1       3.672  89.326 114.460  0.00  0.00     0.006 C 
ENDBRANCH   8   9
BRANCH   8  11
ATOM     11  C   LIG d   1       1.800  86.318 115.486  0.00  0.00     0.028 C 
ATOM     12  C   LIG d   1       0.860  86.530 114.290  0.00  0.00     0.006 C 
ENDBRANCH   8  11
ENDBRANCH   7   8
ENDBRANCH   1   7
BRANCH   6  13
ATOM     13  N   LIG d   1       2.868  90.653 117.809  0.00  0.00    -0.311 N 
ATOM     14  C   LIG d   1       3.737  91.595 117.448  0.00  0.00     0.210 C 
ATOM     15  C   LIG d   1       5.164  91.392 117.968  0.00  0.00     0.109 C 
ATOM     16  O   LIG d   1       3.455  92.597 116.773  0.00  0.00    -0.276 OA
ATOM     17  H   LIG d   1       3.175  89.893 118.383  0.00  0.00     0.149 HD
ENDBRANCH   6  13
BRANCH   5  18
ATOM     18  N   LIG d   1       0.811  92.755 118.636  0.00  0.00     0.381 N 
ATOM     19  H   LIG d   1       1.698  92.864 119.087  0.00  0.00    -0.090 HD
ATOM     20  H   LIG d   1       0.105  93.152 119.230  0.00  0.00    -0.090 HD
ATOM     21  H   LIG d   1       0.818  93.223 117.757  0.00  0.00    -0.090 HD
ENDBRANCH   5  18
BRANCH   3  22
ATOM     22  C   LIG d   1      -2.616  89.513 117.816  0.00  0.00     0.382 C 
ATOM     23  O   LIG d   1      -2.925  88.738 118.753  0.00  0.00    -0.241 OA
ATOM     24  O   LIG d   1      -3.497  89.899 117.024  0.00  0.00    -0.241 OA
ENDBRANCH   3  22
TORSDOF 7
ENDMDL
MODEL 7
REMARK VINA RESULT:      -4.2      7.522      9.902
REMARK  7 active torsions:
REMARK  status: ('A' for Active; 'I' for Inactive)
REMARK    1  A    between atoms: C_2  and  C_3 
REMARK    2  A    between atoms: C_3  and  O_6 
REMARK    3  A    between atoms: C_3  and  C_4 
REMARK    4  A    between atoms: C_7  and  O_6 
REMARK    5  A    between atoms: C_9  and  C_10 
REMARK    6  A    between atoms: N_15  and  C_14 
REMARK    7  A    between atoms: N_20  and  C_19 
REMARK       I    between atoms: C_22  and  N_20 
ROOT
ATOM      1  C   LIG d   1       3.406  88.775 116.502  0.00  0.00     0.161 C 
ATOM      2  C   LIG d   1       4.074  89.414 115.444  0.00  0.00     0.016 C 
ATOM      3  C   LIG d   1       3.923  89.039 114.089  0.00  0.00     0.038 C 
ATOM      4  C   LIG d   1       2.972  88.091 113.683  0.00  0.00     0.028 C 
ATOM      5  C   LIG d   1       2.639  87.066 114.763  0.00  0.00    -0.047 C 
ATOM      6  C   LIG d   1       2.280  87.812 116.069  0.00  0.00     0.091 C 
ENDROOT
BRANCH   1   7
ATOM      7  O   LIG d   1       2.897  89.758 117.424  0.00  0.00    -0.368 OA
BRANCH   7   8
ATOM      8  C   LIG d   1       2.176  90.870 116.836  0.00  0.00     0.119 C 
BRANCH   8   9
ATOM      9  C   LIG d   1       2.684  92.159 117.511  0.00  0.00     0.028 C 
ATOM     10  C   LIG d   1       4.185  92.394 117.273  0.00  0.00     0.006 C 
ENDBRANCH   8   9
BRANCH   8  11
ATOM     11  C   LIG d   1       0.682  90.802 117.164  0.00  0.00     0.028 C 
ATOM     12  C   LIG d   1       0.411  90.570 118.659  0.00  0.00     0.006 C 
ENDBRANCH   8  11
ENDBRANCH   7   8
ENDBRANCH   1   7
BRANCH   6  13
ATOM     13  N   LIG d   1       2.023  86.883 117.200  0.00  0.00    -0.311 N 
ATOM     14  C   LIG d   1       0.835  86.755 117.788  0.00  0.00     0.210 C 
ATOM     15  C   LIG d   1       0.792  85.756 118.948  0.00  0.00     0.109 C 
ATOM     16  O   LIG d   1      -0.195  87.350 117.438  0.00  0.00    -0.276 OA
ATOM     17  H   LIG d   1       2.797  86.338 117.527  0.00  0.00     0.149 HD
ENDBRANCH   6  13
BRANCH   5  18
ATOM     18  N   LIG d   1       1.538  86.226 114.256  0.00  0.00     0.381 N 
ATOM     19  H   LIG d   1       1.622  85.299 114.624  0.00  0.00    -0.090 HD
ATOM     20  H   LIG d   1       1.603  86.174 113.254  0.00  0.00    -0.090 HD
ATOM     21  H   LIG d   1       0.661  86.618 114.519  0.00  0.00    -0.090 HD
ENDBRANCH   5  18
BRANCH   3  22
ATOM     22  C   LIG d   1       4.758  89.587 113.127  0.00  0.00     0.382 C 
ATOM     23  O   LIG d   1       4.545  90.747 112.699  0.00  0.00    -0.241 OA
ATOM     24  O   LIG d   1       5.695  88.920 112.650  0.00  0.00    -0.241 OA
ENDBRANCH   3  22
TORSDOF 7
ENDMDL
MODEL 8
REMARK VINA RESULT:      -4.1      1.537      2.479
REMARK  7 active torsions:
REMARK  status: ('A' for Active; 'I' for Inactive)
REMARK    1  A    between atoms: C_2  and  C_3 
REMARK    2  A    between atoms: C_3  and  O_6 
REMARK    3  A    between atoms: C_3  and  C_4 
REMARK    4  A    between atoms: C_7  and  O_6 
REMARK    5  A    between atoms: C_9  and  C_10 
REMARK    6  A    between atoms: N_15  and  C_14 
REMARK    7  A    between atoms: N_20  and  C_19 
REMARK       I    between atoms: C_22  and  N_20 
ROOT
ATOM      1  C   LIG d   1      -4.941  92.695 118.017  0.00  0.00     0.161 C 
ATOM      2  C   LIG d   1      -6.018  92.685 117.115  0.00  0.00     0.016 C 
ATOM      3  C   LIG d   1      -6.162  91.728 116.085  0.00  0.00     0.038 C 
ATOM      4  C   LIG d   1      -5.312  90.617 115.980  0.00  0.00     0.028 C 
ATOM      5  C   LIG d   1      -3.921  90.863 116.556  0.00  0.00    -0.047 C 
ATOM      6  C   LIG d   1      -4.063  91.426 117.988  0.00  0.00     0.091 C 
ENDROOT
BRANCH   1   7
ATOM      7  O   LIG d   1      -5.425  92.940 119.352  0.00  0.00    -0.368 OA
BRANCH   7   8
ATOM      8  C   LIG d   1      -5.078  94.223 119.930  0.00  0.00     0.119 C 
BRANCH   8   9
ATOM      9  C   LIG d   1      -6.125  95.245 119.448  0.00  0.00     0.028 C 
ATOM     10  C   LIG d   1      -7.560  94.837 119.822  0.00  0.00     0.006 C 
ENDBRANCH   8   9
BRANCH   8  11
ATOM     11  C   LIG d   1      -3.737  94.732 119.393  0.00  0.00     0.028 C 
ATOM     12  C   LIG d   1      -3.473  96.203 119.749  0.00  0.00     0.006 C 
ENDBRANCH   8  11
ENDBRANCH   7   8
ENDBRANCH   1   7
BRANCH   6  13
ATOM     13  N   LIG d   1      -2.751  91.774 118.593  0.00  0.00    -0.311 N 
ATOM     14  C   LIG d   1      -2.064  90.947 119.379  0.00  0.00     0.210 C 
ATOM     15  C   LIG d   1      -0.744  91.511 119.914  0.00  0.00     0.109 C 
ATOM     16  O   LIG d   1      -2.406  89.789 119.658  0.00  0.00    -0.276 OA
ATOM     17  H   LIG d   1      -2.383  92.684 118.394  0.00  0.00     0.149 HD
ENDBRANCH   6  13
BRANCH   5  18
ATOM     18  N   LIG d   1      -3.186  89.585 116.507  0.00  0.00     0.381 N 
ATOM     19  H   LIG d   1      -2.288  89.694 116.935  0.00  0.00    -0.090 HD
ATOM     20  H   LIG d   1      -3.048  89.326 115.546  0.00  0.00    -0.090 HD
ATOM     21  H   LIG d   1      -3.703  88.876 116.979  0.00  0.00    -0.090 HD
ENDBRANCH   5  18
BRANCH   3  22
ATOM     22  C   LIG d   1      -7.144  91.898 115.120  0.00  0.00     0.382 C 
ATOM     23  O   LIG d   1      -6.826  92.251 113.958  0.00  0.00    -0.241 OA
ATOM     24  O   LIG d   1      -8.346  91.747 115.408  0.00  0.00    -0.241 OA
ENDBRANCH   3  22
TORSDOF 7
ENDMDL
MODEL 9
REMARK VINA RESULT:      -4.1      7.357      9.719
REMARK  7 active torsions:
REMARK  status: ('A' for Active; 'I' for Inactive)
REMARK    1  A    between atoms: C_2  and  C_3 
REMARK    2  A    between atoms: C_3  and  O_6 
REMARK    3  A    between atoms: C_3  and  C_4 
REMARK    4  A    between atoms: C_7  and  O_6 
REMARK    5  A    between atoms: C_9  and  C_10 
REMARK    6  A    between atoms: N_15  and  C_14 
REMARK    7  A    between atoms: N_20  and  C_19 
REMARK       I    between atoms: C_22  and  N_20 
ROOT
ATOM      1  C   LIG d   1       2.834  89.911 116.548  0.00  0.00     0.161 C 
ATOM      2  C   LIG d   1       2.891  89.459 115.219  0.00  0.00     0.016 C 
ATOM      3  C   LIG d   1       4.076  89.454 114.448  0.00  0.00     0.038 C 
ATOM      4  C   LIG d   1       5.325  89.763 115.007  0.00  0.00     0.028 C 
ATOM      5  C   LIG d   1       5.238  90.707 116.201  0.00  0.00    -0.047 C 
ATOM      6  C   LIG d   1       4.208  90.147 117.209  0.00  0.00     0.091 C 
ENDROOT
BRANCH   1   7
ATOM      7  O   LIG d   1       2.046  89.001 117.341  0.00  0.00    -0.368 OA
BRANCH   7   8
ATOM      8  C   LIG d   1       0.784  89.514 117.833  0.00  0.00     0.119 C 
BRANCH   8   9
ATOM      9  C   LIG d   1      -0.321  88.541 117.377  0.00  0.00     0.028 C 
ATOM     10  C   LIG d   1       0.232  87.381 116.532  0.00  0.00     0.006 C 
ENDBRANCH   8   9
BRANCH   8  11
ATOM     11  C   LIG d   1       0.436  90.856 117.182  0.00  0.00     0.028 C 
ATOM     12  C   LIG d   1      -0.013  91.915 118.202  0.00  0.00     0.006 C 
ENDBRANCH   8  11
ENDBRANCH   7   8
ENDBRANCH   1   7
BRANCH   6  13
ATOM     13  N   LIG d   1       4.000  91.053 118.369  0.00  0.00    -0.311 N 
ATOM     14  C   LIG d   1       3.696  92.344 118.245  0.00  0.00     0.210 C 
ATOM     15  C   LIG d   1       3.543  93.102 119.568  0.00  0.00     0.109 C 
ATOM     16  O   LIG d   1       3.505  92.925 117.166  0.00  0.00    -0.276 OA
ATOM     17  H   LIG d   1       4.104  90.656 119.282  0.00  0.00     0.149 HD
ENDBRANCH   6  13
BRANCH   5  18
ATOM     18  N   LIG d   1       6.593  90.834 116.769  0.00  0.00     0.381 N 
ATOM     19  H   LIG d   1       6.670  91.694 117.274  0.00  0.00    -0.090 HD
ATOM     20  H   LIG d   1       7.260  90.848 116.018  0.00  0.00    -0.090 HD
ATOM     21  H   LIG d   1       6.782  90.066 117.376  0.00  0.00    -0.090 HD
ENDBRANCH   5  18
BRANCH   3  22
ATOM     22  C   LIG d   1       4.012  89.177 113.091  0.00  0.00     0.382 C 
ATOM     23  O   LIG d   1       4.993  88.652 112.511  0.00  0.00    -0.241 OA
ATOM     24  O   LIG d   1       3.002  89.484 112.430  0.00  0.00    -0.241 OA
ENDBRANCH   3  22
TORSDOF 7
ENDMDL
