MODEL 1
REMARK VINA RESULT:      -4.3      0.000      0.000
REMARK  7 active torsions:
REMARK  status: ('A' for Active; 'I' for Inactive)
REMARK    1  A    between atoms: C_2  and  C_3 
REMARK    2  A    between atoms: C_3  and  O_6 
REMARK    3  A    between atoms: C_3  and  C_4 
REMARK    4  A    between atoms: C_7  and  O_6 
REMARK    5  A    between atoms: C_9  and  C_10 
REMARK    6  A    between atoms: N_15  and  C_14 
REMARK    7  A    between atoms: N_20  and  C_19 
REMARK       I    between atoms: C_22  and  N_20 
ROOT
ATOM      1  C   LIG d   1       5.487  87.410 116.381  0.00  0.00     0.161 C 
ATOM      2  C   LIG d   1       6.434  88.148 117.110  0.00  0.00     0.016 C 
ATOM      3  C   LIG d   1       7.062  89.313 116.614  0.00  0.00     0.038 C 
ATOM      4  C   LIG d   1       6.671  89.908 115.405  0.00  0.00     0.028 C 
ATOM      5  C   LIG d   1       6.080  88.919 114.406  0.00  0.00    -0.047 C 
ATOM      6  C   LIG d   1       4.967  88.105 115.106  0.00  0.00     0.091 C 
ENDROOT
BRANCH   1   7
ATOM      7  O   LIG d   1       4.387  87.045 117.237  0.00  0.00    -0.368 OA
BRANCH   7   8
ATOM      8  C   LIG d   1       4.044  87.996 118.275  0.00  0.00     0.119 C 
BRANCH   8   9
ATOM      9  C   LIG d   1       3.565  87.193 119.500  0.00  0.00     0.028 C 
ATOM     10  C   LIG d   1       2.385  86.265 119.167  0.00  0.00     0.006 C 
ENDBRANCH   8   9
BRANCH   8  11
ATOM     11  C   LIG d   1       2.849  88.862 117.865  0.00  0.00     0.028 C 
ATOM     12  C   LIG d   1       3.130  90.367 117.998  0.00  0.00     0.006 C 
ENDBRANCH   8  11
ENDBRANCH   7   8
ENDBRANCH   1   7
BRANCH   6  13
ATOM     13  N   LIG d   1       4.392  87.057 114.224  0.00  0.00    -0.311 N 
ATOM     14  C   LIG d   1       3.085  86.911 114.013  0.00  0.00     0.210 C 
ATOM     15  C   LIG d   1       2.705  85.754 113.084  0.00  0.00     0.109 C 
ATOM     16  O   LIG d   1       2.207  87.651 114.481  0.00  0.00    -0.276 OA
ATOM     17  H   LIG d   1       5.036  86.432 113.778  0.00  0.00     0.149 HD
ENDBRANCH   6  13
BRANCH   5  18
ATOM     18  N   LIG d   1       5.590  89.693 113.250  0.00  0.00     0.381 N 
ATOM     19  H   LIG d   1       4.744  90.168 113.494  0.00  0.00    -0.090 HD
ATOM     20  H   LIG d   1       5.389  89.059 112.496  0.00  0.00    -0.090 HD
ATOM     21  H   LIG d   1       6.280  90.353 112.964  0.00  0.00    -0.090 HD
ENDBRANCH   5  18
BRANCH   3  22
ATOM     22  C   LIG d   1       8.121  89.873 117.311  0.00  0.00     0.382 C 
ATOM     23  O   LIG d   1       8.580  90.989 116.966  0.00  0.00    -0.241 OA
ATOM     24  O   LIG d   1       8.653  89.257 118.254  0.00  0.00    -0.241 OA
ENDBRANCH   3  22
TORSDOF 7
ENDMDL
MODEL 2
REMARK VINA RESULT:      -4.1      2.891      5.393
REMARK  7 active torsions:
REMARK  status: ('A' for Active; 'I' for Inactive)
REMARK    1  A    between atoms: C_2  and  C_3 
REMARK    2  A    between atoms: C_3  and  O_6 
REMARK    3  A    between atoms: C_3  and  C_4 
REMARK    4  A    between atoms: C_7  and  O_6 
REMARK    5  A    between atoms: C_9  and  C_10 
REMARK    6  A    between atoms: N_15  and  C_14 
REMARK    7  A    between atoms: N_20  and  C_19 
REMARK       I    between atoms: C_22  and  N_20 
ROOT
ATOM      1  C   LIG d   1       3.920  89.264 117.408  0.00  0.00     0.161 C 
ATOM      2  C   LIG d   1       2.698  89.892 117.705  0.00  0.00     0.016 C 
ATOM      3  C   LIG d   1       2.602  91.212 118.202  0.00  0.00     0.038 C 
ATOM      4  C   LIG d   1       3.721  92.053 118.294  0.00  0.00     0.028 C 
ATOM      5  C   LIG d   1       5.032  91.298 118.484  0.00  0.00    -0.047 C 
ATOM      6  C   LIG d   1       5.143  90.204 117.397  0.00  0.00     0.091 C 
ENDROOT
BRANCH   1   7
ATOM      7  O   LIG d   1       3.816  88.562 116.154  0.00  0.00    -0.368 OA
BRANCH   7   8
ATOM      8  C   LIG d   1       4.039  87.131 116.205  0.00  0.00     0.119 C 
BRANCH   8   9
ATOM      9  C   LIG d   1       5.049  86.780 115.095  0.00  0.00     0.028 C 
ATOM     10  C   LIG d   1       5.455  88.008 114.261  0.00  0.00     0.006 C 
ENDBRANCH   8   9
BRANCH   8  11
ATOM     11  C   LIG d   1       2.766  86.356 115.853  0.00  0.00     0.028 C 
ATOM     12  C   LIG d   1       1.655  87.258 115.292  0.00  0.00     0.006 C 
ENDBRANCH   8  11
ENDBRANCH   7   8
ENDBRANCH   1   7
BRANCH   6  13
ATOM     13  N   LIG d   1       6.358  89.363 117.561  0.00  0.00    -0.311 N 
ATOM     14  C   LIG d   1       7.496  89.583 116.906  0.00  0.00     0.210 C 
ATOM     15  C   LIG d   1       8.619  88.585 117.207  0.00  0.00     0.109 C 
ATOM     16  O   LIG d   1       7.693  90.529 116.128  0.00  0.00    -0.276 OA
ATOM     17  H   LIG d   1       6.296  88.592 118.197  0.00  0.00     0.149 HD
ENDBRANCH   6  13
BRANCH   5  18
ATOM     18  N   LIG d   1       6.127  92.284 118.426  0.00  0.00     0.381 N 
ATOM     19  H   LIG d   1       6.676  92.231 119.261  0.00  0.00    -0.090 HD
ATOM     20  H   LIG d   1       5.732  93.206 118.366  0.00  0.00    -0.090 HD
ATOM     21  H   LIG d   1       6.702  92.109 117.631  0.00  0.00    -0.090 HD
ENDBRANCH   5  18
BRANCH   3  22
ATOM     22  C   LIG d   1       1.380  91.690 118.651  0.00  0.00     0.382 C 
ATOM     23  O   LIG d   1       1.074  91.586 119.863  0.00  0.00    -0.241 OA
ATOM     24  O   LIG d   1       0.563  92.184 117.852  0.00  0.00    -0.241 OA
ENDBRANCH   3  22
TORSDOF 7
ENDMDL
MODEL 3
REMARK VINA RESULT:      -4.1      1.661      2.562
REMARK  7 active torsions:
REMARK  status: ('A' for Active; 'I' for Inactive)
REMARK    1  A    between atoms: C_2  and  C_3 
REMARK    2  A    between atoms: C_3  and  O_6 
REMARK    3  A    between atoms: C_3  and  C_4 
REMARK    4  A    between atoms: C_7  and  O_6 
REMARK    5  A    between atoms: C_9  and  C_10 
REMARK    6  A    between atoms: N_15  and  C_14 
REMARK    7  A    between atoms: N_20  and  C_19 
REMARK       I    between atoms: C_22  and  N_20 
ROOT
ATOM      1  C   LIG d   1       4.710  88.553 117.790  0.00  0.00     0.161 C 
ATOM      2  C   LIG d   1       5.952  89.209 117.842  0.00  0.00     0.016 C 
ATOM      3  C   LIG d   1       6.780  89.398 116.712  0.00  0.00     0.038 C 
ATOM      4  C   LIG d   1       6.350  89.076 115.416  0.00  0.00     0.028 C 
ATOM      5  C   LIG d   1       5.317  87.955 115.381  0.00  0.00    -0.047 C 
ATOM      6  C   LIG d   1       4.175  88.294 116.366  0.00  0.00     0.091 C 
ENDROOT
BRANCH   1   7
ATOM      7  O   LIG d   1       3.739  89.284 118.565  0.00  0.00    -0.368 OA
BRANCH   7   8
ATOM      8  C   LIG d   1       3.192  90.473 117.943  0.00  0.00     0.119 C 
BRANCH   8   9
ATOM      9  C   LIG d   1       3.663  91.686 118.768  0.00  0.00     0.028 C 
ATOM     10  C   LIG d   1       4.654  92.572 117.994  0.00  0.00     0.006 C 
ENDBRANCH   8   9
BRANCH   8  11
ATOM     11  C   LIG d   1       1.663  90.493 118.030  0.00  0.00     0.028 C 
ATOM     12  C   LIG d   1       1.123  91.733 118.760  0.00  0.00     0.006 C 
ENDBRANCH   8  11
ENDBRANCH   7   8
ENDBRANCH   1   7
BRANCH   6  13
ATOM     13  N   LIG d   1       3.164  87.210 116.456  0.00  0.00    -0.311 N 
ATOM     14  C   LIG d   1       2.078  87.153 115.686  0.00  0.00     0.210 C 
ATOM     15  C   LIG d   1       1.155  85.961 115.956  0.00  0.00     0.109 C 
ATOM     16  O   LIG d   1       1.810  87.960 114.783  0.00  0.00    -0.276 OA
ATOM     17  H   LIG d   1       3.319  86.496 117.142  0.00  0.00     0.149 HD
ENDBRANCH   6  13
BRANCH   5  18
ATOM     18  N   LIG d   1       4.856  87.817 113.987  0.00  0.00     0.381 N 
ATOM     19  H   LIG d   1       5.132  86.926 113.625  0.00  0.00    -0.090 HD
ATOM     20  H   LIG d   1       5.289  88.532 113.429  0.00  0.00    -0.090 HD
ATOM     21  H   LIG d   1       3.865  87.908 113.945  0.00  0.00    -0.090 HD
ENDBRANCH   5  18
BRANCH   3  22
ATOM     22  C   LIG d   1       8.070  89.879 116.878  0.00  0.00     0.382 C 
ATOM     23  O   LIG d   1       8.285  91.115 116.864  0.00  0.00    -0.241 OA
ATOM     24  O   LIG d   1       9.027  89.091 116.998  0.00  0.00    -0.241 OA
ENDBRANCH   3  22
TORSDOF 7
ENDMDL
MODEL 4
REMARK VINA RESULT:      -4.0      2.047      5.087
REMARK  7 active torsions:
REMARK  status: ('A' for Active; 'I' for Inactive)
REMARK    1  A    between atoms: C_2  and  C_3 
REMARK    2  A    between atoms: C_3  and  O_6 
REMARK    3  A    between atoms: C_3  and  C_4 
REMARK    4  A    between atoms: C_7  and  O_6 
REMARK    5  A    between atoms: C_9  and  C_10 
REMARK    6  A    between atoms: N_15  and  C_14 
REMARK    7  A    between atoms: N_20  and  C_19 
REMARK       I    between atoms: C_22  and  N_20 
ROOT
ATOM      1  C   LIG d   1       4.684  89.426 117.073  0.00  0.00     0.161 C 
ATOM      2  C   LIG d   1       3.660  88.589 116.600  0.00  0.00     0.016 C 
ATOM      3  C   LIG d   1       3.875  87.547 115.668  0.00  0.00     0.038 C 
ATOM      4  C   LIG d   1       5.163  87.172 115.259  0.00  0.00     0.028 C 
ATOM      5  C   LIG d   1       6.174  88.312 115.321  0.00  0.00    -0.047 C 
ATOM      6  C   LIG d   1       6.113  88.961 116.723  0.00  0.00     0.091 C 
ENDROOT
BRANCH   1   7
ATOM      7  O   LIG d   1       4.550  89.605 118.497  0.00  0.00    -0.368 OA
BRANCH   7   8
ATOM      8  C   LIG d   1       4.170  90.931 118.940  0.00  0.00     0.119 C 
BRANCH   8   9
ATOM      9  C   LIG d   1       2.712  90.853 119.433  0.00  0.00     0.028 C 
ATOM     10  C   LIG d   1       1.710  91.367 118.386  0.00  0.00     0.006 C 
ENDBRANCH   8   9
BRANCH   8  11
ATOM     11  C   LIG d   1       4.152  91.924 117.775  0.00  0.00     0.028 C 
ATOM     12  C   LIG d   1       5.079  93.128 118.004  0.00  0.00     0.006 C 
ENDBRANCH   8  11
ENDBRANCH   7   8
ENDBRANCH   1   7
BRANCH   6  13
ATOM     13  N   LIG d   1       7.012  90.139 116.842  0.00  0.00    -0.311 N 
ATOM     14  C   LIG d   1       7.827  90.337 117.876  0.00  0.00     0.210 C 
ATOM     15  C   LIG d   1       8.653  91.626 117.810  0.00  0.00     0.109 C 
ATOM     16  O   LIG d   1       7.969  89.553 118.826  0.00  0.00    -0.276 OA
ATOM     17  H   LIG d   1       6.984  90.810 116.100  0.00  0.00     0.149 HD
ENDBRANCH   6  13
BRANCH   5  18
ATOM     18  N   LIG d   1       7.500  87.750 115.002  0.00  0.00     0.381 N 
ATOM     19  H   LIG d   1       7.529  87.476 114.040  0.00  0.00    -0.090 HD
ATOM     20  H   LIG d   1       7.651  86.933 115.567  0.00  0.00    -0.090 HD
ATOM     21  H   LIG d   1       8.210  88.425 115.184  0.00  0.00    -0.090 HD
ENDBRANCH   5  18
BRANCH   3  22
ATOM     22  C   LIG d   1       2.789  86.895 115.105  0.00  0.00     0.382 C 
ATOM     23  O   LIG d   1       1.885  87.555 114.539  0.00  0.00    -0.241 OA
ATOM     24  O   LIG d   1       2.679  85.657 115.195  0.00  0.00    -0.241 OA
ENDBRANCH   3  22
TORSDOF 7
ENDMDL
MODEL 5
REMARK VINA RESULT:      -3.8      2.826      5.858
REMARK  7 active torsions:
REMARK  status: ('A' for Active; 'I' for Inactive)
REMARK    1  A    between atoms: C_2  and  C_3 
REMARK    2  A    between atoms: C_3  and  O_6 
REMARK    3  A    between atoms: C_3  and  C_4 
REMARK    4  A    between atoms: C_7  and  O_6 
REMARK    5  A    between atoms: C_9  and  C_10 
REMARK    6  A    between atoms: N_15  and  C_14 
REMARK    7  A    between atoms: N_20  and  C_19 
REMARK       I    between atoms: C_22  and  N_20 
ROOT
ATOM      1  C   LIG d   1       4.889  89.164 117.792  0.00  0.00     0.161 C 
ATOM      2  C   LIG d   1       4.435  87.928 117.302  0.00  0.00     0.016 C 
ATOM      3  C   LIG d   1       3.071  87.636 117.072  0.00  0.00     0.038 C 
ATOM      4  C   LIG d   1       2.075  88.618 117.175  0.00  0.00     0.028 C 
ATOM      5  C   LIG d   1       2.425  89.736 118.151  0.00  0.00    -0.047 C 
ATOM      6  C   LIG d   1       3.828  90.284 117.804  0.00  0.00     0.091 C 
ENDROOT
BRANCH   1   7
ATOM      7  O   LIG d   1       6.054  89.584 117.053  0.00  0.00    -0.368 OA
BRANCH   7   8
ATOM      8  C   LIG d   1       6.376  88.805 115.875  0.00  0.00     0.119 C 
BRANCH   8   9
ATOM      9  C   LIG d   1       7.734  88.124 116.128  0.00  0.00     0.028 C 
ATOM     10  C   LIG d   1       7.739  86.647 115.698  0.00  0.00     0.006 C 
ENDBRANCH   8   9
BRANCH   8  11
ATOM     11  C   LIG d   1       6.595  89.706 114.655  0.00  0.00     0.028 C 
ATOM     12  C   LIG d   1       6.111  89.063 113.346  0.00  0.00     0.006 C 
ENDBRANCH   8  11
ENDBRANCH   7   8
ENDBRANCH   1   7
BRANCH   6  13
ATOM     13  N   LIG d   1       4.284  91.324 118.763  0.00  0.00    -0.311 N 
ATOM     14  C   LIG d   1       4.628  92.558 118.397  0.00  0.00     0.210 C 
ATOM     15  C   LIG d   1       5.087  93.467 119.541  0.00  0.00     0.109 C 
ATOM     16  O   LIG d   1       4.565  92.996 117.238  0.00  0.00    -0.276 OA
ATOM     17  H   LIG d   1       4.335  91.064 119.728  0.00  0.00     0.149 HD
ENDBRANCH   6  13
BRANCH   5  18
ATOM     18  N   LIG d   1       1.366  90.759 118.056  0.00  0.00     0.381 N 
ATOM     19  H   LIG d   1       0.987  90.939 118.964  0.00  0.00    -0.090 HD
ATOM     20  H   LIG d   1       0.628  90.409 117.470  0.00  0.00    -0.090 HD
ATOM     21  H   LIG d   1       1.737  91.599 117.670  0.00  0.00    -0.090 HD
ENDBRANCH   5  18
BRANCH   3  22
ATOM     22  C   LIG d   1       2.687  86.337 116.774  0.00  0.00     0.382 C 
ATOM     23  O   LIG d   1       2.614  85.964 115.578  0.00  0.00    -0.241 OA
ATOM     24  O   LIG d   1       2.370  85.548 117.684  0.00  0.00    -0.241 OA
ENDBRANCH   3  22
TORSDOF 7
ENDMDL
MODEL 6
REMARK VINA RESULT:      -3.7      2.604      5.440
REMARK  7 active torsions:
REMARK  status: ('A' for Active; 'I' for Inactive)
REMARK    1  A    between atoms: C_2  and  C_3 
REMARK    2  A    between atoms: C_3  and  O_6 
REMARK    3  A    between atoms: C_3  and  C_4 
REMARK    4  A    between atoms: C_7  and  O_6 
REMARK    5  A    between atoms: C_9  and  C_10 
REMARK    6  A    between atoms: N_15  and  C_14 
REMARK    7  A    between atoms: N_20  and  C_19 
REMARK       I    between atoms: C_22  and  N_20 
ROOT
ATOM      1  C   LIG d   1       6.020  90.523 116.186  0.00  0.00     0.161 C 
ATOM      2  C   LIG d   1       5.250  89.482 115.641  0.00  0.00     0.016 C 
ATOM      3  C   LIG d   1       5.581  88.114 115.780  0.00  0.00     0.038 C 
ATOM      4  C   LIG d   1       6.630  87.686 116.606  0.00  0.00     0.028 C 
ATOM      5  C   LIG d   1       7.737  88.722 116.767  0.00  0.00    -0.047 C 
ATOM      6  C   LIG d   1       7.106  90.070 117.184  0.00  0.00     0.091 C 
ENDROOT
BRANCH   1   7
ATOM      7  O   LIG d   1       5.156  91.502 116.795  0.00  0.00    -0.368 OA
BRANCH   7   8
ATOM      8  C   LIG d   1       4.687  91.195 118.132  0.00  0.00     0.119 C 
BRANCH   8   9
ATOM      9  C   LIG d   1       3.148  91.131 118.079  0.00  0.00     0.028 C 
ATOM     10  C   LIG d   1       2.618  89.691 118.175  0.00  0.00     0.006 C 
ENDBRANCH   8   9
BRANCH   8  11
ATOM     11  C   LIG d   1       5.013  92.327 119.110  0.00  0.00     0.028 C 
ATOM     12  C   LIG d   1       5.525  93.594 118.407  0.00  0.00     0.006 C 
ENDBRANCH   8  11
ENDBRANCH   7   8
ENDBRANCH   1   7
BRANCH   6  13
ATOM     13  N   LIG d   1       8.111  91.161 117.281  0.00  0.00    -0.311 N 
ATOM     14  C   LIG d   1       8.681  91.532 118.426  0.00  0.00     0.210 C 
ATOM     15  C   LIG d   1       9.675  92.692 118.307  0.00  0.00     0.109 C 
ATOM     16  O   LIG d   1       8.482  90.991 119.524  0.00  0.00    -0.276 OA
ATOM     17  H   LIG d   1       8.354  91.633 116.433  0.00  0.00     0.149 HD
ENDBRANCH   6  13
BRANCH   5  18
ATOM     18  N   LIG d   1       8.696  88.201 117.760  0.00  0.00     0.381 N 
ATOM     19  H   LIG d   1       8.425  88.492 118.677  0.00  0.00    -0.090 HD
ATOM     20  H   LIG d   1       9.605  88.580 117.564  0.00  0.00    -0.090 HD
ATOM     21  H   LIG d   1       8.726  87.206 117.714  0.00  0.00    -0.090 HD
ENDBRANCH   5  18
BRANCH   3  22
ATOM     22  C   LIG d   1       4.883  87.161 115.054  0.00  0.00     0.382 C 
ATOM     23  O   LIG d   1       5.123  85.942 115.226  0.00  0.00    -0.241 OA
ATOM     24  O   LIG d   1       4.047  87.507 114.197  0.00  0.00    -0.241 OA
ENDBRANCH   3  22
TORSDOF 7
ENDMDL
MODEL 7
REMARK VINA RESULT:      -3.4      3.506      6.140
REMARK  7 active torsions:
REMARK  status: ('A' for Active; 'I' for Inactive)
REMARK    1  A    between atoms: C_2  and  C_3 
REMARK    2  A    between atoms: C_3  and  O_6 
REMARK    3  A    between atoms: C_3  and  C_4 
REMARK    4  A    between atoms: C_7  and  O_6 
REMARK    5  A    between atoms: C_9  and  C_10 
REMARK    6  A    between atoms: N_15  and  C_14 
REMARK    7  A    between atoms: N_20  and  C_19 
REMARK       I    between atoms: C_22  and  N_20 
ROOT
ATOM      1  C   LIG d   1       4.196  91.371 118.693  0.00  0.00     0.161 C 
ATOM      2  C   LIG d   1       2.874  91.835 118.792  0.00  0.00     0.016 C 
ATOM      3  C   LIG d   1       1.753  91.091 118.357  0.00  0.00     0.038 C 
ATOM      4  C   LIG d   1       1.868  89.760 117.930  0.00  0.00     0.028 C 
ATOM      5  C   LIG d   1       3.234  89.428 117.340  0.00  0.00    -0.047 C 
ATOM      6  C   LIG d   1       4.331  89.876 118.333  0.00  0.00     0.091 C 
ENDROOT
BRANCH   1   7
ATOM      7  O   LIG d   1       4.908  91.658 119.913  0.00  0.00    -0.368 OA
BRANCH   7   8
ATOM      8  C   LIG d   1       5.945  92.666 119.824  0.00  0.00     0.119 C 
BRANCH   8   9
ATOM      9  C   LIG d   1       5.860  93.295 118.420  0.00  0.00     0.028 C 
ATOM     10  C   LIG d   1       5.467  94.781 118.465  0.00  0.00     0.006 C 
ENDBRANCH   8   9
BRANCH   8  11
ATOM     11  C   LIG d   1       7.340  92.038 119.903  0.00  0.00     0.028 C 
ATOM     12  C   LIG d   1       8.218  92.383 118.691  0.00  0.00     0.006 C 
ENDBRANCH   8  11
ENDBRANCH   7   8
ENDBRANCH   1   7
BRANCH   6  13
ATOM     13  N   LIG d   1       5.701  89.665 117.796  0.00  0.00    -0.311 N 
ATOM     14  C   LIG d   1       6.076  90.038 116.574  0.00  0.00     0.210 C 
ATOM     15  C   LIG d   1       7.527  89.708 116.213  0.00  0.00     0.109 C 
ATOM     16  O   LIG d   1       5.353  90.640 115.766  0.00  0.00    -0.276 OA
ATOM     17  H   LIG d   1       6.361  89.211 118.397  0.00  0.00     0.149 HD
ENDBRANCH   6  13
BRANCH   5  18
ATOM     18  N   LIG d   1       3.261  87.979 117.065  0.00  0.00     0.381 N 
ATOM     19  H   LIG d   1       2.327  87.638 116.954  0.00  0.00    -0.090 HD
ATOM     20  H   LIG d   1       3.678  87.507 117.848  0.00  0.00    -0.090 HD
ATOM     21  H   LIG d   1       3.788  87.799 116.239  0.00  0.00    -0.090 HD
ENDBRANCH   5  18
BRANCH   3  22
ATOM     22  C   LIG d   1       0.505  91.693 118.310  0.00  0.00     0.382 C 
ATOM     23  O   LIG d   1       0.169  92.360 117.302  0.00  0.00    -0.241 OA
ATOM     24  O   LIG d   1      -0.271  91.614 119.281  0.00  0.00    -0.241 OA
ENDBRANCH   3  22
TORSDOF 7
ENDMDL
MODEL 8
REMARK VINA RESULT:      -3.4      2.666      4.434
REMARK  7 active torsions:
REMARK  status: ('A' for Active; 'I' for Inactive)
REMARK    1  A    between atoms: C_2  and  C_3 
REMARK    2  A    between atoms: C_3  and  O_6 
REMARK    3  A    between atoms: C_3  and  C_4 
REMARK    4  A    between atoms: C_7  and  O_6 
REMARK    5  A    between atoms: C_9  and  C_10 
REMARK    6  A    between atoms: N_15  and  C_14 
REMARK    7  A    between atoms: N_20  and  C_19 
REMARK       I    between atoms: C_22  and  N_20 
ROOT
ATOM      1  C   LIG d   1       4.656  87.723 117.870  0.00  0.00     0.161 C 
ATOM      2  C   LIG d   1       3.603  88.643 118.000  0.00  0.00     0.016 C 
ATOM      3  C   LIG d   1       3.727  90.017 117.690  0.00  0.00     0.038 C 
ATOM      4  C   LIG d   1       4.878  90.538 117.081  0.00  0.00     0.028 C 
ATOM      5  C   LIG d   1       6.142  89.747 117.398  0.00  0.00    -0.047 C 
ATOM      6  C   LIG d   1       5.886  88.252 117.102  0.00  0.00     0.091 C 
ENDROOT
BRANCH   1   7
ATOM      7  O   LIG d   1       4.172  86.508 117.264  0.00  0.00    -0.368 OA
BRANCH   7   8
ATOM      8  C   LIG d   1       3.312  86.670 116.109  0.00  0.00     0.119 C 
BRANCH   8   9
ATOM      9  C   LIG d   1       2.071  85.782 116.328  0.00  0.00     0.028 C 
ATOM     10  C   LIG d   1       0.903  86.168 115.404  0.00  0.00     0.006 C 
ENDBRANCH   8   9
BRANCH   8  11
ATOM     11  C   LIG d   1       3.976  86.133 114.839  0.00  0.00     0.028 C 
ATOM     12  C   LIG d   1       4.213  87.224 113.783  0.00  0.00     0.006 C 
ENDBRANCH   8  11
ENDBRANCH   7   8
ENDBRANCH   1   7
BRANCH   6  13
ATOM     13  N   LIG d   1       7.045  87.395 117.465  0.00  0.00    -0.311 N 
ATOM     14  C   LIG d   1       7.773  86.729 116.571  0.00  0.00     0.210 C 
ATOM     15  C   LIG d   1       8.911  85.889 117.159  0.00  0.00     0.109 C 
ATOM     16  O   LIG d   1       7.605  86.780 115.343  0.00  0.00    -0.276 OA
ATOM     17  H   LIG d   1       7.271  87.322 118.438  0.00  0.00     0.149 HD
ENDBRANCH   6  13
BRANCH   5  18
ATOM     18  N   LIG d   1       7.239  90.316 116.592  0.00  0.00     0.381 N 
ATOM     19  H   LIG d   1       7.568  91.161 117.016  0.00  0.00    -0.090 HD
ATOM     20  H   LIG d   1       6.887  90.539 115.677  0.00  0.00    -0.090 HD
ATOM     21  H   LIG d   1       7.984  89.660 116.519  0.00  0.00    -0.090 HD
ENDBRANCH   5  18
BRANCH   3  22
ATOM     22  C   LIG d   1       2.705  90.892 118.026  0.00  0.00     0.382 C 
ATOM     23  O   LIG d   1       2.885  92.130 117.934  0.00  0.00    -0.241 OA
ATOM     24  O   LIG d   1       1.621  90.460 118.462  0.00  0.00    -0.241 OA
ENDBRANCH   3  22
TORSDOF 7
ENDMDL
MODEL 9
REMARK VINA RESULT:      -3.4      2.291      3.067
REMARK  7 active torsions:
REMARK  status: ('A' for Active; 'I' for Inactive)
REMARK    1  A    between atoms: C_2  and  C_3 
REMARK    2  A    between atoms: C_3  and  O_6 
REMARK    3  A    between atoms: C_3  and  C_4 
REMARK    4  A    between atoms: C_7  and  O_6 
REMARK    5  A    between atoms: C_9  and  C_10 
REMARK    6  A    between atoms: N_15  and  C_14 
REMARK    7  A    between atoms: N_20  and  C_19 
REMARK       I    between atoms: C_22  and  N_20 
ROOT
ATOM      1  C   LIG d   1       5.252  90.829 117.650  0.00  0.00     0.161 C 
ATOM      2  C   LIG d   1       6.360  91.657 117.897  0.00  0.00     0.016 C 
ATOM      3  C   LIG d   1       7.664  91.371 117.432  0.00  0.00     0.038 C 
ATOM      4  C   LIG d   1       7.922  90.308 116.555  0.00  0.00     0.028 C 
ATOM      5  C   LIG d   1       6.929  89.158 116.688  0.00  0.00    -0.047 C 
ATOM      6  C   LIG d   1       5.493  89.723 116.602  0.00  0.00     0.091 C 
ENDROOT
BRANCH   1   7
ATOM      7  O   LIG d   1       4.115  91.633 117.280  0.00  0.00    -0.368 OA
BRANCH   7   8
ATOM      8  C   LIG d   1       3.093  91.797 118.293  0.00  0.00     0.119 C 
BRANCH   8   9
ATOM      9  C   LIG d   1       3.656  91.236 119.614  0.00  0.00     0.028 C 
ATOM     10  C   LIG d   1       3.119  89.830 119.930  0.00  0.00     0.006 C 
ENDBRANCH   8   9
BRANCH   8  11
ATOM     11  C   LIG d   1       1.859  90.945 117.984  0.00  0.00     0.028 C 
ATOM     12  C   LIG d   1       0.546  91.736 118.091  0.00  0.00     0.006 C 
ENDBRANCH   8  11
ENDBRANCH   7   8
ENDBRANCH   1   7
BRANCH   6  13
ATOM     13  N   LIG d   1       4.458  88.676 116.808  0.00  0.00    -0.311 N 
ATOM     14  C   LIG d   1       3.934  87.959 115.815  0.00  0.00     0.210 C 
ATOM     15  C   LIG d   1       2.867  86.946 116.243  0.00  0.00     0.109 C 
ATOM     16  O   LIG d   1       4.273  88.043 114.626  0.00  0.00    -0.276 OA
ATOM     17  H   LIG d   1       4.148  88.520 117.746  0.00  0.00     0.149 HD
ENDBRANCH   6  13
BRANCH   5  18
ATOM     18  N   LIG d   1       7.231  88.182 115.624  0.00  0.00     0.381 N 
ATOM     19  H   LIG d   1       8.109  87.739 115.811  0.00  0.00    -0.090 HD
ATOM     20  H   LIG d   1       7.304  88.668 114.748  0.00  0.00    -0.090 HD
ATOM     21  H   LIG d   1       6.509  87.498 115.574  0.00  0.00    -0.090 HD
ENDBRANCH   5  18
BRANCH   3  22
ATOM     22  C   LIG d   1       8.735  92.132 117.878  0.00  0.00     0.382 C 
ATOM     23  O   LIG d   1       8.533  93.258 118.393  0.00  0.00    -0.241 OA
ATOM     24  O   LIG d   1       9.903  91.725 117.732  0.00  0.00    -0.241 OA
ENDBRANCH   3  22
TORSDOF 7
ENDMDL
