MODEL 1
REMARK VINA RESULT:      -5.5      0.000      0.000
REMARK  7 active torsions:
REMARK  status: ('A' for Active; 'I' for Inactive)
REMARK    1  A    between atoms: C_2  and  C_3 
REMARK    2  A    between atoms: C_3  and  O_6 
REMARK    3  A    between atoms: C_3  and  C_4 
REMARK    4  A    between atoms: C_7  and  O_6 
REMARK    5  A    between atoms: C_9  and  C_10 
REMARK    6  A    between atoms: N_15  and  C_14 
REMARK    7  A    between atoms: N_20  and  C_19 
REMARK       I    between atoms: C_22  and  N_20 
ROOT
ATOM      1  C   LIG d   1      -5.942  92.933 117.476  0.00  0.00     0.161 C 
ATOM      2  C   LIG d   1      -6.979  92.069 117.088  0.00  0.00     0.016 C 
ATOM      3  C   LIG d   1      -6.763  90.742 116.649  0.00  0.00     0.038 C 
ATOM      4  C   LIG d   1      -5.499  90.137 116.712  0.00  0.00     0.028 C 
ATOM      5  C   LIG d   1      -4.346  91.130 116.620  0.00  0.00    -0.047 C 
ATOM      6  C   LIG d   1      -4.568  92.255 117.657  0.00  0.00     0.091 C 
ENDROOT
BRANCH   1   7
ATOM      7  O   LIG d   1      -6.315  93.637 118.677  0.00  0.00    -0.368 OA
BRANCH   7   8
ATOM      8  C   LIG d   1      -7.513  94.447 118.594  0.00  0.00     0.119 C 
BRANCH   8   9
ATOM      9  C   LIG d   1      -7.071  95.904 118.353  0.00  0.00     0.028 C 
ATOM     10  C   LIG d   1      -8.254  96.886 118.367  0.00  0.00     0.006 C 
ENDBRANCH   8   9
BRANCH   8  11
ATOM     11  C   LIG d   1      -8.265  94.468 119.928  0.00  0.00     0.028 C 
ATOM     12  C   LIG d   1      -9.631  93.766 119.853  0.00  0.00     0.006 C 
ENDBRANCH   8  11
ENDBRANCH   7   8
ENDBRANCH   1   7
BRANCH   6  13
ATOM     13  N   LIG d   1      -3.529  93.314 117.576  0.00  0.00    -0.311 N 
ATOM     14  C   LIG d   1      -2.424  93.316 118.320  0.00  0.00     0.210 C 
ATOM     15  C   LIG d   1      -1.494  94.512 118.094  0.00  0.00     0.109 C 
ATOM     16  O   LIG d   1      -2.111  92.425 119.124  0.00  0.00    -0.276 OA
ATOM     17  H   LIG d   1      -3.687  94.060 116.927  0.00  0.00     0.149 HD
ENDBRANCH   6  13
BRANCH   5  18
ATOM     18  N   LIG d   1      -3.094  90.382 116.837  0.00  0.00     0.381 N 
ATOM     19  H   LIG d   1      -3.291  89.523 117.311  0.00  0.00    -0.090 HD
ATOM     20  H   LIG d   1      -2.484  90.930 117.418  0.00  0.00    -0.090 HD
ATOM     21  H   LIG d   1      -2.653  90.194 115.964  0.00  0.00    -0.090 HD
ENDBRANCH   5  18
BRANCH   3  22
ATOM     22  C   LIG d   1      -7.813  90.020 116.102  0.00  0.00     0.382 C 
ATOM     23  O   LIG d   1      -8.360  89.109 116.768  0.00  0.00    -0.241 OA
ATOM     24  O   LIG d   1      -8.189  90.238 114.935  0.00  0.00    -0.241 OA
ENDBRANCH   3  22
TORSDOF 7
ENDMDL
MODEL 2
REMARK VINA RESULT:      -5.4      2.006      4.699
REMARK  7 active torsions:
REMARK  status: ('A' for Active; 'I' for Inactive)
REMARK    1  A    between atoms: C_2  and  C_3 
REMARK    2  A    between atoms: C_3  and  O_6 
REMARK    3  A    between atoms: C_3  and  C_4 
REMARK    4  A    between atoms: C_7  and  O_6 
REMARK    5  A    between atoms: C_9  and  C_10 
REMARK    6  A    between atoms: N_15  and  C_14 
REMARK    7  A    between atoms: N_20  and  C_19 
REMARK       I    between atoms: C_22  and  N_20 
ROOT
ATOM      1  C   LIG d   1      -6.288  91.992 119.084  0.00  0.00     0.161 C 
ATOM      2  C   LIG d   1      -7.561  92.564 118.924  0.00  0.00     0.016 C 
ATOM      3  C   LIG d   1      -7.784  93.958 118.845  0.00  0.00     0.038 C 
ATOM      4  C   LIG d   1      -6.725  94.875 118.769  0.00  0.00     0.028 C 
ATOM      5  C   LIG d   1      -5.445  94.379 119.434  0.00  0.00    -0.047 C 
ATOM      6  C   LIG d   1      -5.111  92.971 118.891  0.00  0.00     0.091 C 
ENDROOT
BRANCH   1   7
ATOM      7  O   LIG d   1      -6.147  90.859 118.204  0.00  0.00    -0.368 OA
BRANCH   7   8
ATOM      8  C   LIG d   1      -6.367  91.116 116.795  0.00  0.00     0.119 C 
BRANCH   8   9
ATOM      9  C   LIG d   1      -7.396  90.085 116.292  0.00  0.00     0.028 C 
ATOM     10  C   LIG d   1      -7.524  90.084 114.759  0.00  0.00     0.006 C 
ENDBRANCH   8   9
BRANCH   8  11
ATOM     11  C   LIG d   1      -5.098  90.855 115.976  0.00  0.00     0.028 C 
ATOM     12  C   LIG d   1      -4.032  90.077 116.763  0.00  0.00     0.006 C 
ENDBRANCH   8  11
ENDBRANCH   7   8
ENDBRANCH   1   7
BRANCH   6  13
ATOM     13  N   LIG d   1      -3.919  92.377 119.552  0.00  0.00    -0.311 N 
ATOM     14  C   LIG d   1      -2.681  92.495 119.074  0.00  0.00     0.210 C 
ATOM     15  C   LIG d   1      -1.600  91.790 119.899  0.00  0.00     0.109 C 
ATOM     16  O   LIG d   1      -2.372  93.144 118.064  0.00  0.00    -0.276 OA
ATOM     17  H   LIG d   1      -4.075  91.860 120.394  0.00  0.00     0.149 HD
ENDBRANCH   6  13
BRANCH   5  18
ATOM     18  N   LIG d   1      -4.388  95.371 119.161  0.00  0.00     0.381 N 
ATOM     19  H   LIG d   1      -4.777  96.292 119.173  0.00  0.00    -0.090 HD
ATOM     20  H   LIG d   1      -4.011  95.199 118.246  0.00  0.00    -0.090 HD
ATOM     21  H   LIG d   1      -3.667  95.298 119.845  0.00  0.00    -0.090 HD
ENDBRANCH   5  18
BRANCH   3  22
ATOM     22  C   LIG d   1      -9.080  94.450 118.882  0.00  0.00     0.382 C 
ATOM     23  O   LIG d   1     -10.034  93.683 119.157  0.00  0.00    -0.241 OA
ATOM     24  O   LIG d   1      -9.312  95.641 118.601  0.00  0.00    -0.241 OA
ENDBRANCH   3  22
TORSDOF 7
ENDMDL
MODEL 3
REMARK VINA RESULT:      -4.9      2.256      6.056
REMARK  7 active torsions:
REMARK  status: ('A' for Active; 'I' for Inactive)
REMARK    1  A    between atoms: C_2  and  C_3 
REMARK    2  A    between atoms: C_3  and  O_6 
REMARK    3  A    between atoms: C_3  and  C_4 
REMARK    4  A    between atoms: C_7  and  O_6 
REMARK    5  A    between atoms: C_9  and  C_10 
REMARK    6  A    between atoms: N_15  and  C_14 
REMARK    7  A    between atoms: N_20  and  C_19 
REMARK       I    between atoms: C_22  and  N_20 
ROOT
ATOM      1  C   LIG d   1      -4.626  92.787 118.148  0.00  0.00     0.161 C 
ATOM      2  C   LIG d   1      -4.903  93.942 118.899  0.00  0.00     0.016 C 
ATOM      3  C   LIG d   1      -6.121  94.654 118.811  0.00  0.00     0.038 C 
ATOM      4  C   LIG d   1      -7.211  94.171 118.072  0.00  0.00     0.028 C 
ATOM      5  C   LIG d   1      -6.803  93.279 116.904  0.00  0.00    -0.047 C 
ATOM      6  C   LIG d   1      -5.845  92.182 117.420  0.00  0.00     0.091 C 
ENDROOT
BRANCH   1   7
ATOM      7  O   LIG d   1      -4.001  91.796 118.988  0.00  0.00    -0.368 OA
BRANCH   7   8
ATOM      8  C   LIG d   1      -2.655  91.407 118.621  0.00  0.00     0.119 C 
BRANCH   8   9
ATOM      9  C   LIG d   1      -2.492  89.915 118.972  0.00  0.00     0.028 C 
ATOM     10  C   LIG d   1      -2.421  89.023 117.721  0.00  0.00     0.006 C 
ENDBRANCH   8   9
BRANCH   8  11
ATOM     11  C   LIG d   1      -1.612  92.140 119.471  0.00  0.00     0.028 C 
ATOM     12  C   LIG d   1      -0.506  92.791 118.626  0.00  0.00     0.006 C 
ENDBRANCH   8  11
ENDBRANCH   7   8
ENDBRANCH   1   7
BRANCH   6  13
ATOM     13  N   LIG d   1      -5.331  91.317 116.326  0.00  0.00    -0.311 N 
ATOM     14  C   LIG d   1      -5.901  90.166 115.973  0.00  0.00     0.210 C 
ATOM     15  C   LIG d   1      -5.200  89.421 114.833  0.00  0.00     0.109 C 
ATOM     16  O   LIG d   1      -6.939  89.708 116.473  0.00  0.00    -0.276 OA
ATOM     17  H   LIG d   1      -4.510  91.629 115.846  0.00  0.00     0.149 HD
ENDBRANCH   6  13
BRANCH   5  18
ATOM     18  N   LIG d   1      -8.037  92.735 116.307  0.00  0.00     0.381 N 
ATOM     19  H   LIG d   1      -8.735  93.451 116.260  0.00  0.00    -0.090 HD
ATOM     20  H   LIG d   1      -8.382  91.995 116.892  0.00  0.00    -0.090 HD
ATOM     21  H   LIG d   1      -7.848  92.386 115.393  0.00  0.00    -0.090 HD
ENDBRANCH   5  18
BRANCH   3  22
ATOM     22  C   LIG d   1      -6.243  95.886 119.436  0.00  0.00     0.382 C 
ATOM     23  O   LIG d   1      -7.375  96.305 119.779  0.00  0.00    -0.241 OA
ATOM     24  O   LIG d   1      -5.241  96.603 119.620  0.00  0.00    -0.241 OA
ENDBRANCH   3  22
TORSDOF 7
ENDMDL
MODEL 4
REMARK VINA RESULT:      -4.6      2.344      4.394
REMARK  7 active torsions:
REMARK  status: ('A' for Active; 'I' for Inactive)
REMARK    1  A    between atoms: C_2  and  C_3 
REMARK    2  A    between atoms: C_3  and  O_6 
REMARK    3  A    between atoms: C_3  and  C_4 
REMARK    4  A    between atoms: C_7  and  O_6 
REMARK    5  A    between atoms: C_9  and  C_10 
REMARK    6  A    between atoms: N_15  and  C_14 
REMARK    7  A    between atoms: N_20  and  C_19 
REMARK       I    between atoms: C_22  and  N_20 
ROOT
ATOM      1  C   LIG d   1      -3.862  91.978 118.215  0.00  0.00     0.161 C 
ATOM      2  C   LIG d   1      -5.209  92.363 118.312  0.00  0.00     0.016 C 
ATOM      3  C   LIG d   1      -6.243  91.778 117.544  0.00  0.00     0.038 C 
ATOM      4  C   LIG d   1      -6.018  90.658 116.731  0.00  0.00     0.028 C 
ATOM      5  C   LIG d   1      -4.586  90.558 116.218  0.00  0.00    -0.047 C 
ATOM      6  C   LIG d   1      -3.615  90.682 117.415  0.00  0.00     0.091 C 
ENDROOT
BRANCH   1   7
ATOM      7  O   LIG d   1      -3.288  91.870 119.533  0.00  0.00    -0.368 OA
BRANCH   7   8
ATOM      8  C   LIG d   1      -2.279  92.853 119.872  0.00  0.00     0.119 C 
BRANCH   8   9
ATOM      9  C   LIG d   1      -2.218  93.871 118.717  0.00  0.00     0.028 C 
ATOM     10  C   LIG d   1      -2.679  95.274 119.146  0.00  0.00     0.006 C 
ENDBRANCH   8   9
BRANCH   8  11
ATOM     11  C   LIG d   1      -0.885  92.222 119.930  0.00  0.00     0.028 C 
ATOM     12  C   LIG d   1       0.202  93.121 119.318  0.00  0.00     0.006 C 
ENDBRANCH   8  11
ENDBRANCH   7   8
ENDBRANCH   1   7
BRANCH   6  13
ATOM     13  N   LIG d   1      -2.190  90.680 116.991  0.00  0.00    -0.311 N 
ATOM     14  C   LIG d   1      -1.288  89.819 117.459  0.00  0.00     0.210 C 
ATOM     15  C   LIG d   1       0.129  90.002 116.907  0.00  0.00     0.109 C 
ATOM     16  O   LIG d   1      -1.534  88.900 118.256  0.00  0.00    -0.276 OA
ATOM     17  H   LIG d   1      -1.911  91.372 116.324  0.00  0.00     0.149 HD
ENDBRANCH   6  13
BRANCH   5  18
ATOM     18  N   LIG d   1      -4.457  89.276 115.500  0.00  0.00     0.381 N 
ATOM     19  H   LIG d   1      -4.262  89.447 114.534  0.00  0.00    -0.090 HD
ATOM     20  H   LIG d   1      -5.329  88.779 115.563  0.00  0.00    -0.090 HD
ATOM     21  H   LIG d   1      -3.726  88.731 115.903  0.00  0.00    -0.090 HD
ENDBRANCH   5  18
BRANCH   3  22
ATOM     22  C   LIG d   1      -7.510  92.341 117.555  0.00  0.00     0.382 C 
ATOM     23  O   LIG d   1      -8.095  92.590 116.474  0.00  0.00    -0.241 OA
ATOM     24  O   LIG d   1      -8.057  92.643 118.632  0.00  0.00    -0.241 OA
ENDBRANCH   3  22
TORSDOF 7
ENDMDL
MODEL 5
REMARK VINA RESULT:      -4.5      2.341      5.075
REMARK  7 active torsions:
REMARK  status: ('A' for Active; 'I' for Inactive)
REMARK    1  A    between atoms: C_2  and  C_3 
REMARK    2  A    between atoms: C_3  and  O_6 
REMARK    3  A    between atoms: C_3  and  C_4 
REMARK    4  A    between atoms: C_7  and  O_6 
REMARK    5  A    between atoms: C_9  and  C_10 
REMARK    6  A    between atoms: N_15  and  C_14 
REMARK    7  A    between atoms: N_20  and  C_19 
REMARK       I    between atoms: C_22  and  N_20 
ROOT
ATOM      1  C   LIG d   1      -4.236  90.905 117.312  0.00  0.00     0.161 C 
ATOM      2  C   LIG d   1      -3.229  89.925 117.278  0.00  0.00     0.016 C 
ATOM      3  C   LIG d   1      -2.048  89.996 118.050  0.00  0.00     0.038 C 
ATOM      4  C   LIG d   1      -1.860  90.983 119.030  0.00  0.00     0.028 C 
ATOM      5  C   LIG d   1      -2.620  92.273 118.742  0.00  0.00    -0.047 C 
ATOM      6  C   LIG d   1      -4.100  91.931 118.456  0.00  0.00     0.091 C 
ENDROOT
BRANCH   1   7
ATOM      7  O   LIG d   1      -5.531  90.273 117.356  0.00  0.00    -0.368 OA
BRANCH   7   8
ATOM      8  C   LIG d   1      -6.210  90.122 116.086  0.00  0.00     0.119 C 
BRANCH   8   9
ATOM      9  C   LIG d   1      -5.682  91.222 115.145  0.00  0.00     0.028 C 
ATOM     10  C   LIG d   1      -6.658  92.403 115.017  0.00  0.00     0.006 C 
ENDBRANCH   8   9
BRANCH   8  11
ATOM     11  C   LIG d   1      -7.712  90.391 116.221  0.00  0.00     0.028 C 
ATOM     12  C   LIG d   1      -8.533  89.105 116.404  0.00  0.00     0.006 C 
ENDBRANCH   8  11
ENDBRANCH   7   8
ENDBRANCH   1   7
BRANCH   6  13
ATOM     13  N   LIG d   1      -4.897  93.129 118.083  0.00  0.00    -0.311 N 
ATOM     14  C   LIG d   1      -6.107  93.387 118.577  0.00  0.00     0.210 C 
ATOM     15  C   LIG d   1      -6.763  94.665 118.044  0.00  0.00     0.109 C 
ATOM     16  O   LIG d   1      -6.685  92.697 119.430  0.00  0.00    -0.276 OA
ATOM     17  H   LIG d   1      -4.490  93.759 117.420  0.00  0.00     0.149 HD
ENDBRANCH   6  13
BRANCH   5  18
ATOM     18  N   LIG d   1      -2.447  93.161 119.907  0.00  0.00     0.381 N 
ATOM     19  H   LIG d   1      -1.474  93.346 120.051  0.00  0.00    -0.090 HD
ATOM     20  H   LIG d   1      -2.804  92.698 120.725  0.00  0.00    -0.090 HD
ATOM     21  H   LIG d   1      -2.937  94.016 119.760  0.00  0.00    -0.090 HD
ENDBRANCH   5  18
BRANCH   3  22
ATOM     22  C   LIG d   1      -1.020  89.095 117.818  0.00  0.00     0.382 C 
ATOM     23  O   LIG d   1      -1.120  87.911 118.222  0.00  0.00    -0.241 OA
ATOM     24  O   LIG d   1       0.026  89.462 117.249  0.00  0.00    -0.241 OA
ENDBRANCH   3  22
TORSDOF 7
ENDMDL
MODEL 6
REMARK VINA RESULT:      -4.5      7.624     10.823
REMARK  7 active torsions:
REMARK  status: ('A' for Active; 'I' for Inactive)
REMARK    1  A    between atoms: C_2  and  C_3 
REMARK    2  A    between atoms: C_3  and  O_6 
REMARK    3  A    between atoms: C_3  and  C_4 
REMARK    4  A    between atoms: C_7  and  O_6 
REMARK    5  A    between atoms: C_9  and  C_10 
REMARK    6  A    between atoms: N_15  and  C_14 
REMARK    7  A    between atoms: N_20  and  C_19 
REMARK       I    between atoms: C_22  and  N_20 
ROOT
ATOM      1  C   LIG d   1       2.722  88.954 116.222  0.00  0.00     0.161 C 
ATOM      2  C   LIG d   1       3.062  90.049 117.035  0.00  0.00     0.016 C 
ATOM      3  C   LIG d   1       4.208  90.848 116.823  0.00  0.00     0.038 C 
ATOM      4  C   LIG d   1       5.018  90.699 115.688  0.00  0.00     0.028 C 
ATOM      5  C   LIG d   1       5.000  89.286 115.113  0.00  0.00    -0.047 C 
ATOM      6  C   LIG d   1       3.533  88.844 114.914  0.00  0.00     0.091 C 
ENDROOT
BRANCH   1   7
ATOM      7  O   LIG d   1       1.310  88.977 115.937  0.00  0.00    -0.368 OA
BRANCH   7   8
ATOM      8  C   LIG d   1       0.526  87.901 116.509  0.00  0.00     0.119 C 
BRANCH   8   9
ATOM      9  C   LIG d   1      -0.414  88.522 117.561  0.00  0.00     0.028 C 
ATOM     10  C   LIG d   1      -0.650  90.023 117.323  0.00  0.00     0.006 C 
ENDBRANCH   8   9
BRANCH   8  11
ATOM     11  C   LIG d   1       1.410  86.920 117.285  0.00  0.00     0.028 C 
ATOM     12  C   LIG d   1       0.606  86.014 118.231  0.00  0.00     0.006 C 
ENDBRANCH   8  11
ENDBRANCH   7   8
ENDBRANCH   1   7
BRANCH   6  13
ATOM     13  N   LIG d   1       3.423  87.441 114.434  0.00  0.00    -0.311 N 
ATOM     14  C   LIG d   1       2.877  87.107 113.266  0.00  0.00     0.210 C 
ATOM     15  C   LIG d   1       2.847  85.603 112.974  0.00  0.00     0.109 C 
ATOM     16  O   LIG d   1       2.444  87.914 112.431  0.00  0.00    -0.276 OA
ATOM     17  H   LIG d   1       3.778  86.724 115.036  0.00  0.00     0.149 HD
ENDBRANCH   6  13
BRANCH   5  18
ATOM     18  N   LIG d   1       5.774  89.306 113.858  0.00  0.00     0.381 N 
ATOM     19  H   LIG d   1       6.589  89.875 113.971  0.00  0.00    -0.090 HD
ATOM     20  H   LIG d   1       5.206  89.708 113.132  0.00  0.00    -0.090 HD
ATOM     21  H   LIG d   1       6.040  88.379 113.606  0.00  0.00    -0.090 HD
ENDBRANCH   5  18
BRANCH   3  22
ATOM     22  C   LIG d   1       4.578  91.785 117.776  0.00  0.00     0.382 C 
ATOM     23  O   LIG d   1       4.429  91.531 118.996  0.00  0.00    -0.241 OA
ATOM     24  O   LIG d   1       5.016  92.899 117.431  0.00  0.00    -0.241 OA
ENDBRANCH   3  22
TORSDOF 7
ENDMDL
MODEL 7
REMARK VINA RESULT:      -4.4     10.029     12.751
REMARK  7 active torsions:
REMARK  status: ('A' for Active; 'I' for Inactive)
REMARK    1  A    between atoms: C_2  and  C_3 
REMARK    2  A    between atoms: C_3  and  O_6 
REMARK    3  A    between atoms: C_3  and  C_4 
REMARK    4  A    between atoms: C_7  and  O_6 
REMARK    5  A    between atoms: C_9  and  C_10 
REMARK    6  A    between atoms: N_15  and  C_14 
REMARK    7  A    between atoms: N_20  and  C_19 
REMARK       I    between atoms: C_22  and  N_20 
ROOT
ATOM      1  C   LIG d   1       4.960  88.367 116.735  0.00  0.00     0.161 C 
ATOM      2  C   LIG d   1       4.176  89.528 116.829  0.00  0.00     0.016 C 
ATOM      3  C   LIG d   1       4.709  90.805 117.120  0.00  0.00     0.038 C 
ATOM      4  C   LIG d   1       6.091  91.034 117.189  0.00  0.00     0.028 C 
ATOM      5  C   LIG d   1       6.889  89.801 117.601  0.00  0.00    -0.047 C 
ATOM      6  C   LIG d   1       6.483  88.615 116.697  0.00  0.00     0.091 C 
ENDROOT
BRANCH   1   7
ATOM      7  O   LIG d   1       4.551  87.592 115.591  0.00  0.00    -0.368 OA
BRANCH   7   8
ATOM      8  C   LIG d   1       3.483  88.154 114.789  0.00  0.00     0.119 C 
BRANCH   8   9
ATOM      9  C   LIG d   1       2.376  87.089 114.679  0.00  0.00     0.028 C 
ATOM     10  C   LIG d   1       1.302  87.242 115.769  0.00  0.00     0.006 C 
ENDBRANCH   8   9
BRANCH   8  11
ATOM     11  C   LIG d   1       3.943  88.412 113.351  0.00  0.00     0.028 C 
ATOM     12  C   LIG d   1       5.117  89.400 113.269  0.00  0.00     0.006 C 
ENDBRANCH   8  11
ENDBRANCH   7   8
ENDBRANCH   1   7
BRANCH   6  13
ATOM     13  N   LIG d   1       7.155  87.349 117.088  0.00  0.00    -0.311 N 
ATOM     14  C   LIG d   1       8.325  86.955 116.588  0.00  0.00     0.210 C 
ATOM     15  C   LIG d   1       8.832  85.607 117.111  0.00  0.00     0.109 C 
ATOM     16  O   LIG d   1       9.007  87.610 115.785  0.00  0.00    -0.276 OA
ATOM     17  H   LIG d   1       6.686  86.771 117.758  0.00  0.00     0.149 HD
ENDBRANCH   6  13
BRANCH   5  18
ATOM     18  N   LIG d   1       8.321  90.143 117.499  0.00  0.00     0.381 N 
ATOM     19  H   LIG d   1       8.876  89.330 117.675  0.00  0.00    -0.090 HD
ATOM     20  H   LIG d   1       8.541  90.833 118.195  0.00  0.00    -0.090 HD
ATOM     21  H   LIG d   1       8.522  90.500 116.591  0.00  0.00    -0.090 HD
ENDBRANCH   5  18
BRANCH   3  22
ATOM     22  C   LIG d   1       3.852  91.863 117.386  0.00  0.00     0.382 C 
ATOM     23  O   LIG d   1       4.293  93.037 117.403  0.00  0.00    -0.241 OA
ATOM     24  O   LIG d   1       2.654  91.654 117.652  0.00  0.00    -0.241 OA
ENDBRANCH   3  22
TORSDOF 7
ENDMDL
MODEL 8
REMARK VINA RESULT:      -4.3      7.041     10.125
REMARK  7 active torsions:
REMARK  status: ('A' for Active; 'I' for Inactive)
REMARK    1  A    between atoms: C_2  and  C_3 
REMARK    2  A    between atoms: C_3  and  O_6 
REMARK    3  A    between atoms: C_3  and  C_4 
REMARK    4  A    between atoms: C_7  and  O_6 
REMARK    5  A    between atoms: C_9  and  C_10 
REMARK    6  A    between atoms: N_15  and  C_14 
REMARK    7  A    between atoms: N_20  and  C_19 
REMARK       I    between atoms: C_22  and  N_20 
ROOT
ATOM      1  C   LIG d   1       1.585  88.451 116.277  0.00  0.00     0.161 C 
ATOM      2  C   LIG d   1       0.240  88.647 116.630  0.00  0.00     0.016 C 
ATOM      3  C   LIG d   1      -0.237  89.822 117.255  0.00  0.00     0.038 C 
ATOM      4  C   LIG d   1       0.577  90.950 117.433  0.00  0.00     0.028 C 
ATOM      5  C   LIG d   1       2.060  90.614 117.551  0.00  0.00    -0.047 C 
ATOM      6  C   LIG d   1       2.467  89.714 116.362  0.00  0.00     0.091 C 
ENDROOT
BRANCH   1   7
ATOM      7  O   LIG d   1       1.664  87.872 114.959  0.00  0.00    -0.368 OA
BRANCH   7   8
ATOM      8  C   LIG d   1       1.948  86.453 114.902  0.00  0.00     0.119 C 
BRANCH   8   9
ATOM      9  C   LIG d   1       2.569  86.050 116.254  0.00  0.00     0.028 C 
ATOM     10  C   LIG d   1       4.043  85.632 116.121  0.00  0.00     0.006 C 
ENDBRANCH   8   9
BRANCH   8  11
ATOM     11  C   LIG d   1       3.020  86.140 113.854  0.00  0.00     0.028 C 
ATOM     12  C   LIG d   1       3.185  87.263 112.817  0.00  0.00     0.006 C 
ENDBRANCH   8  11
ENDBRANCH   7   8
ENDBRANCH   1   7
BRANCH   6  13
ATOM     13  N   LIG d   1       3.882  89.270 116.445  0.00  0.00    -0.311 N 
ATOM     14  C   LIG d   1       4.774  89.479 115.478  0.00  0.00     0.210 C 
ATOM     15  C   LIG d   1       6.174  88.922 115.758  0.00  0.00     0.109 C 
ATOM     16  O   LIG d   1       4.548  90.101 114.430  0.00  0.00    -0.276 OA
ATOM     17  H   LIG d   1       4.160  88.785 117.276  0.00  0.00     0.149 HD
ENDBRANCH   6  13
BRANCH   5  18
ATOM     18  N   LIG d   1       2.803  91.887 117.593  0.00  0.00     0.381 N 
ATOM     19  H   LIG d   1       3.726  91.729 117.946  0.00  0.00    -0.090 HD
ATOM     20  H   LIG d   1       2.332  92.519 118.217  0.00  0.00    -0.090 HD
ATOM     21  H   LIG d   1       2.852  92.284 116.681  0.00  0.00    -0.090 HD
ENDBRANCH   5  18
BRANCH   3  22
ATOM     22  C   LIG d   1      -1.534  89.861 117.746  0.00  0.00     0.382 C 
ATOM     23  O   LIG d   1      -2.243  88.827 117.726  0.00  0.00    -0.241 OA
ATOM     24  O   LIG d   1      -2.017  90.929 118.168  0.00  0.00    -0.241 OA
ENDBRANCH   3  22
TORSDOF 7
ENDMDL
MODEL 9
REMARK VINA RESULT:      -4.3      6.817      9.934
REMARK  7 active torsions:
REMARK  status: ('A' for Active; 'I' for Inactive)
REMARK    1  A    between atoms: C_2  and  C_3 
REMARK    2  A    between atoms: C_3  and  O_6 
REMARK    3  A    between atoms: C_3  and  C_4 
REMARK    4  A    between atoms: C_7  and  O_6 
REMARK    5  A    between atoms: C_9  and  C_10 
REMARK    6  A    between atoms: N_15  and  C_14 
REMARK    7  A    between atoms: N_20  and  C_19 
REMARK       I    between atoms: C_22  and  N_20 
ROOT
ATOM      1  C   LIG d   1       2.091  89.200 116.393  0.00  0.00     0.161 C 
ATOM      2  C   LIG d   1       0.709  89.045 116.589  0.00  0.00     0.016 C 
ATOM      3  C   LIG d   1      -0.045  89.841 117.482  0.00  0.00     0.038 C 
ATOM      4  C   LIG d   1       0.509  90.953 118.132  0.00  0.00     0.028 C 
ATOM      5  C   LIG d   1       2.014  90.838 118.353  0.00  0.00    -0.047 C 
ATOM      6  C   LIG d   1       2.692  90.480 117.010  0.00  0.00     0.091 C 
ENDROOT
BRANCH   1   7
ATOM      7  O   LIG d   1       2.396  89.131 114.986  0.00  0.00    -0.368 OA
BRANCH   7   8
ATOM      8  C   LIG d   1       3.286  88.064 114.578  0.00  0.00     0.119 C 
BRANCH   8   9
ATOM      9  C   LIG d   1       4.032  88.539 113.316  0.00  0.00     0.028 C 
ATOM     10  C   LIG d   1       5.048  89.653 113.620  0.00  0.00     0.006 C 
ENDBRANCH   8   9
BRANCH   8  11
ATOM     11  C   LIG d   1       2.503  86.821 114.143  0.00  0.00     0.028 C 
ATOM     12  C   LIG d   1       2.620  86.541 112.636  0.00  0.00     0.006 C 
ENDBRANCH   8  11
ENDBRANCH   7   8
ENDBRANCH   1   7
BRANCH   6  13
ATOM     13  N   LIG d   1       4.156  90.267 117.154  0.00  0.00    -0.311 N 
ATOM     14  C   LIG d   1       5.052  91.248 117.064  0.00  0.00     0.210 C 
ATOM     15  C   LIG d   1       6.511  90.807 117.223  0.00  0.00     0.109 C 
ATOM     16  O   LIG d   1       4.776  92.445 116.901  0.00  0.00    -0.276 OA
ATOM     17  H   LIG d   1       4.466  89.329 117.320  0.00  0.00     0.149 HD
ENDBRANCH   6  13
BRANCH   5  18
ATOM     18  N   LIG d   1       2.481  92.120 118.913  0.00  0.00     0.381 N 
ATOM     19  H   LIG d   1       1.889  92.863 118.599  0.00  0.00    -0.090 HD
ATOM     20  H   LIG d   1       3.414  92.299 118.583  0.00  0.00    -0.090 HD
ATOM     21  H   LIG d   1       2.476  92.080 119.908  0.00  0.00    -0.090 HD
ENDBRANCH   5  18
BRANCH   3  22
ATOM     22  C   LIG d   1      -1.360  89.501 117.762  0.00  0.00     0.382 C 
ATOM     23  O   LIG d   1      -2.239  90.394 117.820  0.00  0.00    -0.241 OA
ATOM     24  O   LIG d   1      -1.670  88.319 118.002  0.00  0.00    -0.241 OA
ENDBRANCH   3  22
TORSDOF 7
ENDMDL
