MODEL 1
REMARK VINA RESULT:      -5.8      0.000      0.000
REMARK  7 active torsions:
REMARK  status: ('A' for Active; 'I' for Inactive)
REMARK    1  A    between atoms: C_2  and  C_3 
REMARK    2  A    between atoms: C_3  and  O_6 
REMARK    3  A    between atoms: C_3  and  C_4 
REMARK    4  A    between atoms: C_7  and  O_6 
REMARK    5  A    between atoms: C_9  and  C_10 
REMARK    6  A    between atoms: N_15  and  C_14 
REMARK    7  A    between atoms: N_20  and  C_19 
REMARK       I    between atoms: C_22  and  N_20 
ROOT
ATOM      1  C   LIG d   1      -5.742  92.861 117.397  0.00  0.00     0.161 C 
ATOM      2  C   LIG d   1      -6.804  91.988 117.110  0.00  0.00     0.016 C 
ATOM      3  C   LIG d   1      -6.621  90.639 116.729  0.00  0.00     0.038 C 
ATOM      4  C   LIG d   1      -5.359  90.025 116.755  0.00  0.00     0.028 C 
ATOM      5  C   LIG d   1      -4.207  91.002 116.550  0.00  0.00    -0.047 C 
ATOM      6  C   LIG d   1      -4.365  92.180 117.539  0.00  0.00     0.091 C 
ENDROOT
BRANCH   1   7
ATOM      7  O   LIG d   1      -6.046  93.629 118.578  0.00  0.00    -0.368 OA
BRANCH   7   8
ATOM      8  C   LIG d   1      -6.665  94.920 118.358  0.00  0.00     0.119 C 
BRANCH   8   9
ATOM      9  C   LIG d   1      -6.081  95.896 119.397  0.00  0.00     0.028 C 
ATOM     10  C   LIG d   1      -4.624  95.566 119.760  0.00  0.00     0.006 C 
ENDBRANCH   8   9
BRANCH   8  11
ATOM     11  C   LIG d   1      -8.169  94.873 118.645  0.00  0.00     0.028 C 
ATOM     12  C   LIG d   1      -8.632  96.000 119.581  0.00  0.00     0.006 C 
ENDBRANCH   8  11
ENDBRANCH   7   8
ENDBRANCH   1   7
BRANCH   6  13
ATOM     13  N   LIG d   1      -3.325  93.224 117.348  0.00  0.00    -0.311 N 
ATOM     14  C   LIG d   1      -2.196  93.272 118.053  0.00  0.00     0.210 C 
ATOM     15  C   LIG d   1      -1.269  94.443 117.711  0.00  0.00     0.109 C 
ATOM     16  O   LIG d   1      -1.860  92.438 118.908  0.00  0.00    -0.276 OA
ATOM     17  H   LIG d   1      -3.502  93.923 116.653  0.00  0.00     0.149 HD
ENDBRANCH   6  13
BRANCH   5  18
ATOM     18  N   LIG d   1      -2.949  90.254 116.739  0.00  0.00     0.381 N 
ATOM     19  H   LIG d   1      -2.690  90.266 117.705  0.00  0.00    -0.090 HD
ATOM     20  H   LIG d   1      -2.222  90.703 116.211  0.00  0.00    -0.090 HD
ATOM     21  H   LIG d   1      -3.063  89.314 116.429  0.00  0.00    -0.090 HD
ENDBRANCH   5  18
BRANCH   3  22
ATOM     22  C   LIG d   1      -7.703  89.899 116.277  0.00  0.00     0.382 C 
ATOM     23  O   LIG d   1      -8.422  90.343 115.349  0.00  0.00    -0.241 OA
ATOM     24  O   LIG d   1      -7.996  88.815 116.815  0.00  0.00    -0.241 OA
ENDBRANCH   3  22
TORSDOF 7
ENDMDL
MODEL 2
REMARK VINA RESULT:      -5.3      1.959      4.852
REMARK  7 active torsions:
REMARK  status: ('A' for Active; 'I' for Inactive)
REMARK    1  A    between atoms: C_2  and  C_3 
REMARK    2  A    between atoms: C_3  and  O_6 
REMARK    3  A    between atoms: C_3  and  C_4 
REMARK    4  A    between atoms: C_7  and  O_6 
REMARK    5  A    between atoms: C_9  and  C_10 
REMARK    6  A    between atoms: N_15  and  C_14 
REMARK    7  A    between atoms: N_20  and  C_19 
REMARK       I    between atoms: C_22  and  N_20 
ROOT
ATOM      1  C   LIG d   1      -5.907  92.704 118.617  0.00  0.00     0.161 C 
ATOM      2  C   LIG d   1      -7.162  93.329 118.695  0.00  0.00     0.016 C 
ATOM      3  C   LIG d   1      -7.329  94.709 118.955  0.00  0.00     0.038 C 
ATOM      4  C   LIG d   1      -6.240  95.591 119.005  0.00  0.00     0.028 C 
ATOM      5  C   LIG d   1      -4.938  94.923 119.434  0.00  0.00    -0.047 C 
ATOM      6  C   LIG d   1      -4.705  93.670 118.558  0.00  0.00     0.091 C 
ENDROOT
BRANCH   1   7
ATOM      7  O   LIG d   1      -5.879  91.802 117.493  0.00  0.00    -0.368 OA
BRANCH   7   8
ATOM      8  C   LIG d   1      -7.165  91.326 117.026  0.00  0.00     0.119 C 
BRANCH   8   9
ATOM      9  C   LIG d   1      -7.052  89.801 116.832  0.00  0.00     0.028 C 
ATOM     10  C   LIG d   1      -8.426  89.115 116.761  0.00  0.00     0.006 C 
ENDBRANCH   8   9
BRANCH   8  11
ATOM     11  C   LIG d   1      -7.499  91.888 115.641  0.00  0.00     0.028 C 
ATOM     12  C   LIG d   1      -6.267  91.987 114.726  0.00  0.00     0.006 C 
ENDBRANCH   8  11
ENDBRANCH   7   8
ENDBRANCH   1   7
BRANCH   6  13
ATOM     13  N   LIG d   1      -3.496  92.910 118.967  0.00  0.00    -0.311 N 
ATOM     14  C   LIG d   1      -2.286  93.123 118.452  0.00  0.00     0.210 C 
ATOM     15  C   LIG d   1      -1.181  92.215 118.999  0.00  0.00     0.109 C 
ATOM     16  O   LIG d   1      -2.018  94.000 117.617  0.00  0.00    -0.276 OA
ATOM     17  H   LIG d   1      -3.617  92.200 119.663  0.00  0.00     0.149 HD
ENDBRANCH   6  13
BRANCH   5  18
ATOM     18  N   LIG d   1      -3.861  95.923 119.310  0.00  0.00     0.381 N 
ATOM     19  H   LIG d   1      -3.502  96.149 120.216  0.00  0.00    -0.090 HD
ATOM     20  H   LIG d   1      -4.241  96.761 118.904  0.00  0.00    -0.090 HD
ATOM     21  H   LIG d   1      -3.130  95.568 118.734  0.00  0.00    -0.090 HD
ENDBRANCH   5  18
BRANCH   3  22
ATOM     22  C   LIG d   1      -8.596  95.212 119.208  0.00  0.00     0.382 C 
ATOM     23  O   LIG d   1      -8.734  96.393 119.607  0.00  0.00    -0.241 OA
ATOM     24  O   LIG d   1      -9.601  94.485 119.085  0.00  0.00    -0.241 OA
ENDBRANCH   3  22
TORSDOF 7
ENDMDL
MODEL 3
REMARK VINA RESULT:      -5.2      2.242      4.790
REMARK  7 active torsions:
REMARK  status: ('A' for Active; 'I' for Inactive)
REMARK    1  A    between atoms: C_2  and  C_3 
REMARK    2  A    between atoms: C_3  and  O_6 
REMARK    3  A    between atoms: C_3  and  C_4 
REMARK    4  A    between atoms: C_7  and  O_6 
REMARK    5  A    between atoms: C_9  and  C_10 
REMARK    6  A    between atoms: N_15  and  C_14 
REMARK    7  A    between atoms: N_20  and  C_19 
REMARK       I    between atoms: C_22  and  N_20 
ROOT
ATOM      1  C   LIG d   1      -4.183  90.871 117.699  0.00  0.00     0.161 C 
ATOM      2  C   LIG d   1      -5.256  90.236 117.052  0.00  0.00     0.016 C 
ATOM      3  C   LIG d   1      -6.470  90.888 116.734  0.00  0.00     0.038 C 
ATOM      4  C   LIG d   1      -6.636  92.270 116.906  0.00  0.00     0.028 C 
ATOM      5  C   LIG d   1      -5.768  92.850 118.018  0.00  0.00    -0.047 C 
ATOM      6  C   LIG d   1      -4.304  92.407 117.795  0.00  0.00     0.091 C 
ENDROOT
BRANCH   1   7
ATOM      7  O   LIG d   1      -2.943  90.505 117.062  0.00  0.00    -0.368 OA
BRANCH   7   8
ATOM      8  C   LIG d   1      -1.981  89.811 117.894  0.00  0.00     0.119 C 
BRANCH   8   9
ATOM      9  C   LIG d   1      -0.576  90.263 117.451  0.00  0.00     0.028 C 
ATOM     10  C   LIG d   1       0.280  90.758 118.629  0.00  0.00     0.006 C 
ENDBRANCH   8   9
BRANCH   8  11
ATOM     11  C   LIG d   1      -2.018  88.300 117.646  0.00  0.00     0.028 C 
ATOM     12  C   LIG d   1      -1.992  87.483 118.947  0.00  0.00     0.006 C 
ENDBRANCH   8  11
ENDBRANCH   7   8
ENDBRANCH   1   7
BRANCH   6  13
ATOM     13  N   LIG d   1      -3.402  92.862 118.884  0.00  0.00    -0.311 N 
ATOM     14  C   LIG d   1      -2.270  93.530 118.668  0.00  0.00     0.210 C 
ATOM     15  C   LIG d   1      -1.478  93.886 119.930  0.00  0.00     0.109 C 
ATOM     16  O   LIG d   1      -1.863  93.889 117.553  0.00  0.00    -0.276 OA
ATOM     17  H   LIG d   1      -3.672  92.640 119.823  0.00  0.00     0.149 HD
ENDBRANCH   6  13
BRANCH   5  18
ATOM     18  N   LIG d   1      -5.938  94.315 117.997  0.00  0.00     0.381 N 
ATOM     19  H   LIG d   1      -5.134  94.744 117.583  0.00  0.00    -0.090 HD
ATOM     20  H   LIG d   1      -6.020  94.647 118.942  0.00  0.00    -0.090 HD
ATOM     21  H   LIG d   1      -6.755  94.557 117.480  0.00  0.00    -0.090 HD
ENDBRANCH   5  18
BRANCH   3  22
ATOM     22  C   LIG d   1      -7.548  90.147 116.273  0.00  0.00     0.382 C 
ATOM     23  O   LIG d   1      -7.771  89.006 116.743  0.00  0.00    -0.241 OA
ATOM     24  O   LIG d   1      -8.274  90.588 115.362  0.00  0.00    -0.241 OA
ENDBRANCH   3  22
TORSDOF 7
ENDMDL
MODEL 4
REMARK VINA RESULT:      -5.2      1.563      4.864
REMARK  7 active torsions:
REMARK  status: ('A' for Active; 'I' for Inactive)
REMARK    1  A    between atoms: C_2  and  C_3 
REMARK    2  A    between atoms: C_3  and  O_6 
REMARK    3  A    between atoms: C_3  and  C_4 
REMARK    4  A    between atoms: C_7  and  O_6 
REMARK    5  A    between atoms: C_9  and  C_10 
REMARK    6  A    between atoms: N_15  and  C_14 
REMARK    7  A    between atoms: N_20  and  C_19 
REMARK       I    between atoms: C_22  and  N_20 
ROOT
ATOM      1  C   LIG d   1      -6.282  92.101 118.502  0.00  0.00     0.161 C 
ATOM      2  C   LIG d   1      -5.077  92.753 118.815  0.00  0.00     0.016 C 
ATOM      3  C   LIG d   1      -3.834  92.410 118.235  0.00  0.00     0.038 C 
ATOM      4  C   LIG d   1      -3.735  91.486 117.185  0.00  0.00     0.028 C 
ATOM      5  C   LIG d   1      -4.848  90.443 117.189  0.00  0.00    -0.047 C 
ATOM      6  C   LIG d   1      -6.212  91.166 117.277  0.00  0.00     0.091 C 
ENDROOT
BRANCH   1   7
ATOM      7  O   LIG d   1      -7.333  93.073 118.332  0.00  0.00    -0.368 OA
BRANCH   7   8
ATOM      8  C   LIG d   1      -7.340  94.176 119.272  0.00  0.00     0.119 C 
BRANCH   8   9
ATOM      9  C   LIG d   1      -8.733  94.213 119.930  0.00  0.00     0.028 C 
ATOM     10  C   LIG d   1      -9.558  95.434 119.488  0.00  0.00     0.006 C 
ENDBRANCH   8   9
BRANCH   8  11
ATOM     11  C   LIG d   1      -7.194  95.521 118.554  0.00  0.00     0.028 C 
ATOM     12  C   LIG d   1      -5.986  96.332 119.048  0.00  0.00     0.006 C 
ENDBRANCH   8  11
ENDBRANCH   7   8
ENDBRANCH   1   7
BRANCH   6  13
ATOM     13  N   LIG d   1      -7.352  90.216 117.372  0.00  0.00    -0.311 N 
ATOM     14  C   LIG d   1      -7.910  89.634 116.312  0.00  0.00     0.210 C 
ATOM     15  C   LIG d   1      -9.086  88.705 116.629  0.00  0.00     0.109 C 
ATOM     16  O   LIG d   1      -7.523  89.774 115.142  0.00  0.00    -0.276 OA
ATOM     17  H   LIG d   1      -7.709  90.021 118.286  0.00  0.00     0.149 HD
ENDBRANCH   6  13
BRANCH   5  18
ATOM     18  N   LIG d   1      -4.703  89.631 115.966  0.00  0.00     0.381 N 
ATOM     19  H   LIG d   1      -5.597  89.504 115.536  0.00  0.00    -0.090 HD
ATOM     20  H   LIG d   1      -4.342  88.727 116.217  0.00  0.00    -0.090 HD
ATOM     21  H   LIG d   1      -4.081  90.080 115.331  0.00  0.00    -0.090 HD
ENDBRANCH   5  18
BRANCH   3  22
ATOM     22  C   LIG d   1      -2.666  92.966 118.735  0.00  0.00     0.382 C 
ATOM     23  O   LIG d   1      -1.895  92.274 119.444  0.00  0.00    -0.241 OA
ATOM     24  O   LIG d   1      -2.395  94.163 118.523  0.00  0.00    -0.241 OA
ENDBRANCH   3  22
TORSDOF 7
ENDMDL
MODEL 5
REMARK VINA RESULT:      -5.1      2.151      5.054
REMARK  7 active torsions:
REMARK  status: ('A' for Active; 'I' for Inactive)
REMARK    1  A    between atoms: C_2  and  C_3 
REMARK    2  A    between atoms: C_3  and  O_6 
REMARK    3  A    between atoms: C_3  and  C_4 
REMARK    4  A    between atoms: C_7  and  O_6 
REMARK    5  A    between atoms: C_9  and  C_10 
REMARK    6  A    between atoms: N_15  and  C_14 
REMARK    7  A    between atoms: N_20  and  C_19 
REMARK       I    between atoms: C_22  and  N_20 
ROOT
ATOM      1  C   LIG d   1      -5.474  90.770 118.285  0.00  0.00     0.161 C 
ATOM      2  C   LIG d   1      -6.132  92.011 118.245  0.00  0.00     0.016 C 
ATOM      3  C   LIG d   1      -5.467  93.249 118.401  0.00  0.00     0.038 C 
ATOM      4  C   LIG d   1      -4.068  93.338 118.456  0.00  0.00     0.028 C 
ATOM      5  C   LIG d   1      -3.403  92.082 119.006  0.00  0.00    -0.047 C 
ATOM      6  C   LIG d   1      -3.934  90.853 118.233  0.00  0.00     0.091 C 
ENDROOT
BRANCH   1   7
ATOM      7  O   LIG d   1      -5.966  89.922 117.229  0.00  0.00    -0.368 OA
BRANCH   7   8
ATOM      8  C   LIG d   1      -7.260  90.273 116.680  0.00  0.00     0.119 C 
BRANCH   8   9
ATOM      9  C   LIG d   1      -8.233  89.127 117.020  0.00  0.00     0.028 C 
ATOM     10  C   LIG d   1      -9.384  89.015 116.006  0.00  0.00     0.006 C 
ENDBRANCH   8   9
BRANCH   8  11
ATOM     11  C   LIG d   1      -7.220  90.331 115.150  0.00  0.00     0.028 C 
ATOM     12  C   LIG d   1      -6.590  91.628 114.619  0.00  0.00     0.006 C 
ENDBRANCH   8  11
ENDBRANCH   7   8
ENDBRANCH   1   7
BRANCH   6  13
ATOM     13  N   LIG d   1      -3.396  89.573 118.765  0.00  0.00    -0.311 N 
ATOM     14  C   LIG d   1      -2.282  89.002 118.313  0.00  0.00     0.210 C 
ATOM     15  C   LIG d   1      -1.916  87.675 118.985  0.00  0.00     0.109 C 
ATOM     16  O   LIG d   1      -1.543  89.484 117.441  0.00  0.00    -0.276 OA
ATOM     17  H   LIG d   1      -3.916  89.129 119.497  0.00  0.00     0.149 HD
ENDBRANCH   6  13
BRANCH   5  18
ATOM     18  N   LIG d   1      -1.944  92.258 118.880  0.00  0.00     0.381 N 
ATOM     19  H   LIG d   1      -1.725  92.640 117.981  0.00  0.00    -0.090 HD
ATOM     20  H   LIG d   1      -1.500  91.360 118.958  0.00  0.00    -0.090 HD
ATOM     21  H   LIG d   1      -1.610  92.865 119.596  0.00  0.00    -0.090 HD
ENDBRANCH   5  18
BRANCH   3  22
ATOM     22  C   LIG d   1      -6.208  94.413 118.542  0.00  0.00     0.382 C 
ATOM     23  O   LIG d   1      -7.353  94.493 118.036  0.00  0.00    -0.241 OA
ATOM     24  O   LIG d   1      -5.727  95.400 119.132  0.00  0.00    -0.241 OA
ENDBRANCH   3  22
TORSDOF 7
ENDMDL
MODEL 6
REMARK VINA RESULT:      -5.1      2.180      5.370
REMARK  7 active torsions:
REMARK  status: ('A' for Active; 'I' for Inactive)
REMARK    1  A    between atoms: C_2  and  C_3 
REMARK    2  A    between atoms: C_3  and  O_6 
REMARK    3  A    between atoms: C_3  and  C_4 
REMARK    4  A    between atoms: C_7  and  O_6 
REMARK    5  A    between atoms: C_9  and  C_10 
REMARK    6  A    between atoms: N_15  and  C_14 
REMARK    7  A    between atoms: N_20  and  C_19 
REMARK       I    between atoms: C_22  and  N_20 
ROOT
ATOM      1  C   LIG d   1      -4.031  91.080 117.250  0.00  0.00     0.161 C 
ATOM      2  C   LIG d   1      -2.851  90.323 117.162  0.00  0.00     0.016 C 
ATOM      3  C   LIG d   1      -1.616  90.740 117.708  0.00  0.00     0.038 C 
ATOM      4  C   LIG d   1      -1.510  91.881 118.517  0.00  0.00     0.028 C 
ATOM      5  C   LIG d   1      -2.565  92.939 118.212  0.00  0.00    -0.047 C 
ATOM      6  C   LIG d   1      -3.961  92.275 118.225  0.00  0.00     0.091 C 
ENDROOT
BRANCH   1   7
ATOM      7  O   LIG d   1      -5.138  90.222 117.589  0.00  0.00    -0.368 OA
BRANCH   7   8
ATOM      8  C   LIG d   1      -6.056  89.911 116.512  0.00  0.00     0.119 C 
BRANCH   8   9
ATOM      9  C   LIG d   1      -5.717  90.842 115.332  0.00  0.00     0.028 C 
ATOM     10  C   LIG d   1      -6.843  91.848 115.036  0.00  0.00     0.006 C 
ENDBRANCH   8   9
BRANCH   8  11
ATOM     11  C   LIG d   1      -7.500  90.250 116.895  0.00  0.00     0.028 C 
ATOM     12  C   LIG d   1      -8.442  89.040 116.799  0.00  0.00     0.006 C 
ENDBRANCH   8  11
ENDBRANCH   7   8
ENDBRANCH   1   7
BRANCH   6  13
ATOM     13  N   LIG d   1      -5.043  93.223 117.853  0.00  0.00    -0.311 N 
ATOM     14  C   LIG d   1      -6.106  93.459 118.620  0.00  0.00     0.210 C 
ATOM     15  C   LIG d   1      -7.113  94.457 118.039  0.00  0.00     0.109 C 
ATOM     16  O   LIG d   1      -6.295  92.962 119.740  0.00  0.00    -0.276 OA
ATOM     17  H   LIG d   1      -4.955  93.694 116.974  0.00  0.00     0.149 HD
ENDBRANCH   6  13
BRANCH   5  18
ATOM     18  N   LIG d   1      -2.425  94.010 119.217  0.00  0.00     0.381 N 
ATOM     19  H   LIG d   1      -2.745  94.877 118.834  0.00  0.00    -0.090 HD
ATOM     20  H   LIG d   1      -1.454  94.109 119.454  0.00  0.00    -0.090 HD
ATOM     21  H   LIG d   1      -2.952  93.784 120.032  0.00  0.00    -0.090 HD
ENDBRANCH   5  18
BRANCH   3  22
ATOM     22  C   LIG d   1      -0.460  90.033 117.413  0.00  0.00     0.382 C 
ATOM     23  O   LIG d   1       0.431  90.556 116.701  0.00  0.00    -0.241 OA
ATOM     24  O   LIG d   1      -0.317  88.862 117.813  0.00  0.00    -0.241 OA
ENDBRANCH   3  22
TORSDOF 7
ENDMDL
MODEL 7
REMARK VINA RESULT:      -4.7      1.873      4.739
REMARK  7 active torsions:
REMARK  status: ('A' for Active; 'I' for Inactive)
REMARK    1  A    between atoms: C_2  and  C_3 
REMARK    2  A    between atoms: C_3  and  O_6 
REMARK    3  A    between atoms: C_3  and  C_4 
REMARK    4  A    between atoms: C_7  and  O_6 
REMARK    5  A    between atoms: C_9  and  C_10 
REMARK    6  A    between atoms: N_15  and  C_14 
REMARK    7  A    between atoms: N_20  and  C_19 
REMARK       I    between atoms: C_22  and  N_20 
ROOT
ATOM      1  C   LIG d   1      -5.130  91.061 118.892  0.00  0.00     0.161 C 
ATOM      2  C   LIG d   1      -3.801  91.377 119.220  0.00  0.00     0.016 C 
ATOM      3  C   LIG d   1      -2.703  91.094 118.374  0.00  0.00     0.038 C 
ATOM      4  C   LIG d   1      -2.878  90.610 117.069  0.00  0.00     0.028 C 
ATOM      5  C   LIG d   1      -4.162  89.807 116.888  0.00  0.00    -0.047 C 
ATOM      6  C   LIG d   1      -5.351  90.634 117.426  0.00  0.00     0.091 C 
ENDROOT
BRANCH   1   7
ATOM      7  O   LIG d   1      -5.991  92.167 119.228  0.00  0.00    -0.368 OA
BRANCH   7   8
ATOM      8  C   LIG d   1      -5.813  93.374 118.445  0.00  0.00     0.119 C 
BRANCH   8   9
ATOM      9  C   LIG d   1      -5.570  94.533 119.431  0.00  0.00     0.028 C 
ATOM     10  C   LIG d   1      -4.089  94.943 119.500  0.00  0.00     0.006 C 
ENDBRANCH   8   9
BRANCH   8  11
ATOM     11  C   LIG d   1      -7.095  93.744 117.693  0.00  0.00     0.028 C 
ATOM     12  C   LIG d   1      -7.934  94.800 118.429  0.00  0.00     0.006 C 
ENDBRANCH   8  11
ENDBRANCH   7   8
ENDBRANCH   1   7
BRANCH   6  13
ATOM     13  N   LIG d   1      -6.635  89.888 117.364  0.00  0.00    -0.311 N 
ATOM     14  C   LIG d   1      -7.453  89.922 116.313  0.00  0.00     0.210 C 
ATOM     15  C   LIG d   1      -8.734  89.096 116.464  0.00  0.00     0.109 C 
ATOM     16  O   LIG d   1      -7.223  90.532 115.258  0.00  0.00    -0.276 OA
ATOM     17  H   LIG d   1      -6.885  89.342 118.165  0.00  0.00     0.149 HD
ENDBRANCH   6  13
BRANCH   5  18
ATOM     18  N   LIG d   1      -4.285  89.482 115.454  0.00  0.00     0.381 N 
ATOM     19  H   LIG d   1      -3.629  90.022 114.927  0.00  0.00    -0.090 HD
ATOM     20  H   LIG d   1      -5.211  89.721 115.146  0.00  0.00    -0.090 HD
ATOM     21  H   LIG d   1      -4.119  88.511 115.309  0.00  0.00    -0.090 HD
ENDBRANCH   5  18
BRANCH   3  22
ATOM     22  C   LIG d   1      -1.411  91.259 118.848  0.00  0.00     0.382 C 
ATOM     23  O   LIG d   1      -1.160  92.159 119.686  0.00  0.00    -0.241 OA
ATOM     24  O   LIG d   1      -0.484  90.548 118.415  0.00  0.00    -0.241 OA
ENDBRANCH   3  22
TORSDOF 7
ENDMDL
MODEL 8
REMARK VINA RESULT:      -4.7      2.264      4.697
REMARK  7 active torsions:
REMARK  status: ('A' for Active; 'I' for Inactive)
REMARK    1  A    between atoms: C_2  and  C_3 
REMARK    2  A    between atoms: C_3  and  O_6 
REMARK    3  A    between atoms: C_3  and  C_4 
REMARK    4  A    between atoms: C_7  and  O_6 
REMARK    5  A    between atoms: C_9  and  C_10 
REMARK    6  A    between atoms: N_15  and  C_14 
REMARK    7  A    between atoms: N_20  and  C_19 
REMARK       I    between atoms: C_22  and  N_20 
ROOT
ATOM      1  C   LIG d   1      -2.849  92.376 117.959  0.00  0.00     0.161 C 
ATOM      2  C   LIG d   1      -4.111  92.984 118.069  0.00  0.00     0.016 C 
ATOM      3  C   LIG d   1      -5.301  92.401 117.576  0.00  0.00     0.038 C 
ATOM      4  C   LIG d   1      -5.331  91.093 117.069  0.00  0.00     0.028 C 
ATOM      5  C   LIG d   1      -4.000  90.642 116.477  0.00  0.00    -0.047 C 
ATOM      6  C   LIG d   1      -2.879  90.901 117.509  0.00  0.00     0.091 C 
ENDROOT
BRANCH   1   7
ATOM      7  O   LIG d   1      -2.134  92.506 119.204  0.00  0.00    -0.368 OA
BRANCH   7   8
ATOM      8  C   LIG d   1      -1.066  93.486 119.226  0.00  0.00     0.119 C 
BRANCH   8   9
ATOM      9  C   LIG d   1      -0.815  93.929 117.772  0.00  0.00     0.028 C 
ATOM     10  C   LIG d   1      -1.011  95.442 117.578  0.00  0.00     0.006 C 
ENDBRANCH   8   9
BRANCH   8  11
ATOM     11  C   LIG d   1       0.252  92.862 119.694  0.00  0.00     0.028 C 
ATOM     12  C   LIG d   1       1.334  92.867 118.602  0.00  0.00     0.006 C 
ENDBRANCH   8  11
ENDBRANCH   7   8
ENDBRANCH   1   7
BRANCH   6  13
ATOM     13  N   LIG d   1      -1.532  90.565 116.978  0.00  0.00    -0.311 N 
ATOM     14  C   LIG d   1      -0.650  89.816 117.637  0.00  0.00     0.210 C 
ATOM     15  C   LIG d   1       0.687  89.609 116.919  0.00  0.00     0.109 C 
ATOM     16  O   LIG d   1      -0.860  89.277 118.734  0.00  0.00    -0.276 OA
ATOM     17  H   LIG d   1      -1.290  90.936 116.080  0.00  0.00     0.149 HD
ENDBRANCH   6  13
BRANCH   5  18
ATOM     18  N   LIG d   1      -4.134  89.219 116.113  0.00  0.00     0.381 N 
ATOM     19  H   LIG d   1      -4.537  88.711 116.875  0.00  0.00    -0.090 HD
ATOM     20  H   LIG d   1      -3.220  88.843 115.931  0.00  0.00    -0.090 HD
ATOM     21  H   LIG d   1      -4.707  89.126 115.303  0.00  0.00    -0.090 HD
ENDBRANCH   5  18
BRANCH   3  22
ATOM     22  C   LIG d   1      -6.471  93.145 117.550  0.00  0.00     0.382 C 
ATOM     23  O   LIG d   1      -7.497  92.680 116.998  0.00  0.00    -0.241 OA
ATOM     24  O   LIG d   1      -6.501  94.293 118.032  0.00  0.00    -0.241 OA
ENDBRANCH   3  22
TORSDOF 7
ENDMDL
MODEL 9
REMARK VINA RESULT:      -4.6      2.973      5.632
REMARK  7 active torsions:
REMARK  status: ('A' for Active; 'I' for Inactive)
REMARK    1  A    between atoms: C_2  and  C_3 
REMARK    2  A    between atoms: C_3  and  O_6 
REMARK    3  A    between atoms: C_3  and  C_4 
REMARK    4  A    between atoms: C_7  and  O_6 
REMARK    5  A    between atoms: C_9  and  C_10 
REMARK    6  A    between atoms: N_15  and  C_14 
REMARK    7  A    between atoms: N_20  and  C_19 
REMARK       I    between atoms: C_22  and  N_20 
ROOT
ATOM      1  C   LIG d   1      -2.717  90.636 118.038  0.00  0.00     0.161 C 
ATOM      2  C   LIG d   1      -3.977  90.222 117.575  0.00  0.00     0.016 C 
ATOM      3  C   LIG d   1      -5.070  91.102 117.402  0.00  0.00     0.038 C 
ATOM      4  C   LIG d   1      -4.932  92.491 117.538  0.00  0.00     0.028 C 
ATOM      5  C   LIG d   1      -3.814  92.899 118.491  0.00  0.00    -0.047 C 
ATOM      6  C   LIG d   1      -2.515  92.165 118.085  0.00  0.00     0.091 C 
ENDROOT
BRANCH   1   7
ATOM      7  O   LIG d   1      -1.679  90.018 117.251  0.00  0.00    -0.368 OA
BRANCH   7   8
ATOM      8  C   LIG d   1      -0.774  89.141 117.965  0.00  0.00     0.119 C 
BRANCH   8   9
ATOM      9  C   LIG d   1       0.659  89.640 117.700  0.00  0.00     0.028 C 
ATOM     10  C   LIG d   1       0.733  90.604 116.504  0.00  0.00     0.006 C 
ENDBRANCH   8   9
BRANCH   8  11
ATOM     11  C   LIG d   1      -0.819  87.717 117.403  0.00  0.00     0.028 C 
ATOM     12  C   LIG d   1       0.448  86.909 117.726  0.00  0.00     0.006 C 
ENDBRANCH   8  11
ENDBRANCH   7   8
ENDBRANCH   1   7
BRANCH   6  13
ATOM     13  N   LIG d   1      -1.392  92.443 119.018  0.00  0.00    -0.311 N 
ATOM     14  C   LIG d   1      -0.441  93.343 118.773  0.00  0.00     0.210 C 
ATOM     15  C   LIG d   1       0.635  93.458 119.857  0.00  0.00     0.109 C 
ATOM     16  O   LIG d   1      -0.405  94.081 117.777  0.00  0.00    -0.276 OA
ATOM     17  H   LIG d   1      -1.361  91.911 119.866  0.00  0.00     0.149 HD
ENDBRANCH   6  13
BRANCH   5  18
ATOM     18  N   LIG d   1      -3.691  94.368 118.432  0.00  0.00     0.381 N 
ATOM     19  H   LIG d   1      -3.191  94.698 119.233  0.00  0.00    -0.090 HD
ATOM     20  H   LIG d   1      -4.611  94.772 118.446  0.00  0.00    -0.090 HD
ATOM     21  H   LIG d   1      -3.214  94.637 117.600  0.00  0.00    -0.090 HD
ENDBRANCH   5  18
BRANCH   3  22
ATOM     22  C   LIG d   1      -6.328  90.589 117.128  0.00  0.00     0.382 C 
ATOM     23  O   LIG d   1      -7.352  91.260 117.401  0.00  0.00    -0.241 OA
ATOM     24  O   LIG d   1      -6.454  89.444 116.652  0.00  0.00    -0.241 OA
ENDBRANCH   3  22
TORSDOF 7
ENDMDL
