MODEL 1
REMARK VINA RESULT:      -5.5      0.000      0.000
REMARK  7 active torsions:
REMARK  status: ('A' for Active; 'I' for Inactive)
REMARK    1  A    between atoms: C_2  and  C_3 
REMARK    2  A    between atoms: C_3  and  O_6 
REMARK    3  A    between atoms: C_3  and  C_4 
REMARK    4  A    between atoms: C_7  and  O_6 
REMARK    5  A    between atoms: C_9  and  C_10 
REMARK    6  A    between atoms: N_15  and  C_14 
REMARK    7  A    between atoms: N_20  and  C_19 
REMARK       I    between atoms: C_22  and  N_20 
ROOT
ATOM      1  C   LIG d   1      -6.588  91.299 117.663  0.00  0.00     0.161 C 
ATOM      2  C   LIG d   1      -7.376  92.433 117.406  0.00  0.00     0.016 C 
ATOM      3  C   LIG d   1      -6.865  93.751 117.401  0.00  0.00     0.038 C 
ATOM      4  C   LIG d   1      -5.491  94.013 117.506  0.00  0.00     0.028 C 
ATOM      5  C   LIG d   1      -4.726  92.939 118.270  0.00  0.00    -0.047 C 
ATOM      6  C   LIG d   1      -5.067  91.556 117.669  0.00  0.00     0.091 C 
ENDROOT
BRANCH   1   7
ATOM      7  O   LIG d   1      -6.916  90.253 116.726  0.00  0.00    -0.368 OA
BRANCH   7   8
ATOM      8  C   LIG d   1      -7.598  90.671 115.518  0.00  0.00     0.119 C 
BRANCH   8   9
ATOM      9  C   LIG d   1      -8.410  89.465 115.006  0.00  0.00     0.028 C 
ATOM     10  C   LIG d   1      -9.038  88.651 116.149  0.00  0.00     0.006 C 
ENDBRANCH   8   9
BRANCH   8  11
ATOM     11  C   LIG d   1      -6.603  90.995 114.400  0.00  0.00     0.028 C 
ATOM     12  C   LIG d   1      -6.922  92.317 113.684  0.00  0.00     0.006 C 
ENDBRANCH   8  11
ENDBRANCH   7   8
ENDBRANCH   1   7
BRANCH   6  13
ATOM     13  N   LIG d   1      -4.425  90.441 118.413  0.00  0.00    -0.311 N 
ATOM     14  C   LIG d   1      -3.257  89.905 118.065  0.00  0.00     0.210 C 
ATOM     15  C   LIG d   1      -2.784  88.751 118.956  0.00  0.00     0.109 C 
ATOM     16  O   LIG d   1      -2.551  90.296 117.123  0.00  0.00    -0.276 OA
ATOM     17  H   LIG d   1      -4.914  90.083 119.210  0.00  0.00     0.149 HD
ENDBRANCH   6  13
BRANCH   5  18
ATOM     18  N   LIG d   1      -3.290  93.268 118.185  0.00  0.00     0.381 N 
ATOM     19  H   LIG d   1      -3.159  94.056 117.583  0.00  0.00    -0.090 HD
ATOM     20  H   LIG d   1      -2.800  92.485 117.789  0.00  0.00    -0.090 HD
ATOM     21  H   LIG d   1      -2.932  93.470 119.092  0.00  0.00    -0.090 HD
ENDBRANCH   5  18
BRANCH   3  22
ATOM     22  C   LIG d   1      -7.738  94.826 117.331  0.00  0.00     0.382 C 
ATOM     23  O   LIG d   1      -8.946  94.636 117.052  0.00  0.00    -0.241 OA
ATOM     24  O   LIG d   1      -7.323  95.989 117.499  0.00  0.00    -0.241 OA
ENDBRANCH   3  22
TORSDOF 7
ENDMDL
MODEL 2
REMARK VINA RESULT:      -5.3      1.590      5.029
REMARK  7 active torsions:
REMARK  status: ('A' for Active; 'I' for Inactive)
REMARK    1  A    between atoms: C_2  and  C_3 
REMARK    2  A    between atoms: C_3  and  O_6 
REMARK    3  A    between atoms: C_3  and  C_4 
REMARK    4  A    between atoms: C_7  and  O_6 
REMARK    5  A    between atoms: C_9  and  C_10 
REMARK    6  A    between atoms: N_15  and  C_14 
REMARK    7  A    between atoms: N_20  and  C_19 
REMARK       I    between atoms: C_22  and  N_20 
ROOT
ATOM      1  C   LIG d   1      -4.925  90.859 116.710  0.00  0.00     0.161 C 
ATOM      2  C   LIG d   1      -3.861  89.955 116.869  0.00  0.00     0.016 C 
ATOM      3  C   LIG d   1      -2.813  90.142 117.799  0.00  0.00     0.038 C 
ATOM      4  C   LIG d   1      -2.838  91.178 118.745  0.00  0.00     0.028 C 
ATOM      5  C   LIG d   1      -3.632  92.397 118.288  0.00  0.00    -0.047 C 
ATOM      6  C   LIG d   1      -5.027  91.936 117.809  0.00  0.00     0.091 C 
ENDROOT
BRANCH   1   7
ATOM      7  O   LIG d   1      -6.167  90.136 116.598  0.00  0.00    -0.368 OA
BRANCH   7   8
ATOM      8  C   LIG d   1      -6.698  89.985 115.259  0.00  0.00     0.119 C 
BRANCH   8   9
ATOM      9  C   LIG d   1      -6.228  91.199 114.434  0.00  0.00     0.028 C 
ATOM     10  C   LIG d   1      -7.403  92.015 113.870  0.00  0.00     0.006 C 
ENDBRANCH   8   9
BRANCH   8  11
ATOM     11  C   LIG d   1      -8.228  90.059 115.254  0.00  0.00     0.028 C 
ATOM     12  C   LIG d   1      -8.887  88.813 115.869  0.00  0.00     0.006 C 
ENDBRANCH   8  11
ENDBRANCH   7   8
ENDBRANCH   1   7
BRANCH   6  13
ATOM     13  N   LIG d   1      -5.839  93.057 117.266  0.00  0.00    -0.311 N 
ATOM     14  C   LIG d   1      -7.125  93.240 117.559  0.00  0.00     0.210 C 
ATOM     15  C   LIG d   1      -7.779  94.445 116.876  0.00  0.00     0.109 C 
ATOM     16  O   LIG d   1      -7.778  92.538 118.345  0.00  0.00    -0.276 OA
ATOM     17  H   LIG d   1      -5.379  93.693 116.644  0.00  0.00     0.149 HD
ENDBRANCH   6  13
BRANCH   5  18
ATOM     18  N   LIG d   1      -3.691  93.341 119.420  0.00  0.00     0.381 N 
ATOM     19  H   LIG d   1      -3.443  94.259 119.109  0.00  0.00    -0.090 HD
ATOM     20  H   LIG d   1      -3.027  93.053 120.118  0.00  0.00    -0.090 HD
ATOM     21  H   LIG d   1      -4.609  93.350 119.808  0.00  0.00    -0.090 HD
ENDBRANCH   5  18
BRANCH   3  22
ATOM     22  C   LIG d   1      -1.704  89.311 117.762  0.00  0.00     0.382 C 
ATOM     23  O   LIG d   1      -1.646  88.310 118.516  0.00  0.00    -0.241 OA
ATOM     24  O   LIG d   1      -0.742  89.573 117.016  0.00  0.00    -0.241 OA
ENDBRANCH   3  22
TORSDOF 7
ENDMDL
MODEL 3
REMARK VINA RESULT:      -5.2      1.496      1.731
REMARK  7 active torsions:
REMARK  status: ('A' for Active; 'I' for Inactive)
REMARK    1  A    between atoms: C_2  and  C_3 
REMARK    2  A    between atoms: C_3  and  O_6 
REMARK    3  A    between atoms: C_3  and  C_4 
REMARK    4  A    between atoms: C_7  and  O_6 
REMARK    5  A    between atoms: C_9  and  C_10 
REMARK    6  A    between atoms: N_15  and  C_14 
REMARK    7  A    between atoms: N_20  and  C_19 
REMARK       I    between atoms: C_22  and  N_20 
ROOT
ATOM      1  C   LIG d   1      -6.017  92.008 117.054  0.00  0.00     0.161 C 
ATOM      2  C   LIG d   1      -7.275  92.533 117.392  0.00  0.00     0.016 C 
ATOM      3  C   LIG d   1      -7.482  93.882 117.763  0.00  0.00     0.038 C 
ATOM      4  C   LIG d   1      -6.461  94.839 117.675  0.00  0.00     0.028 C 
ATOM      5  C   LIG d   1      -5.062  94.250 117.824  0.00  0.00    -0.047 C 
ATOM      6  C   LIG d   1      -4.911  93.064 116.845  0.00  0.00     0.091 C 
ENDROOT
BRANCH   1   7
ATOM      7  O   LIG d   1      -6.135  91.168 115.889  0.00  0.00    -0.368 OA
BRANCH   7   8
ATOM      8  C   LIG d   1      -7.483  90.855 115.462  0.00  0.00     0.119 C 
BRANCH   8   9
ATOM      9  C   LIG d   1      -7.641  89.323 115.513  0.00  0.00     0.028 C 
ATOM     10  C   LIG d   1      -9.081  88.892 115.837  0.00  0.00     0.006 C 
ENDBRANCH   8   9
BRANCH   8  11
ATOM     11  C   LIG d   1      -7.707  91.237 113.996  0.00  0.00     0.028 C 
ATOM     12  C   LIG d   1      -7.399  92.716 113.712  0.00  0.00     0.006 C 
ENDBRANCH   8  11
ENDBRANCH   7   8
ENDBRANCH   1   7
BRANCH   6  13
ATOM     13  N   LIG d   1      -3.601  92.376 116.985  0.00  0.00    -0.311 N 
ATOM     14  C   LIG d   1      -3.207  91.770 118.104  0.00  0.00     0.210 C 
ATOM     15  C   LIG d   1      -1.812  91.141 118.042  0.00  0.00     0.109 C 
ATOM     16  O   LIG d   1      -3.894  91.667 119.132  0.00  0.00    -0.276 OA
ATOM     17  H   LIG d   1      -2.993  92.385 116.190  0.00  0.00     0.149 HD
ENDBRANCH   6  13
BRANCH   5  18
ATOM     18  N   LIG d   1      -4.093  95.333 117.575  0.00  0.00     0.381 N 
ATOM     19  H   LIG d   1      -3.409  95.351 118.305  0.00  0.00    -0.090 HD
ATOM     20  H   LIG d   1      -4.580  96.212 117.577  0.00  0.00    -0.090 HD
ATOM     21  H   LIG d   1      -3.646  95.195 116.695  0.00  0.00    -0.090 HD
ENDBRANCH   5  18
BRANCH   3  22
ATOM     22  C   LIG d   1      -8.712  94.275 118.267  0.00  0.00     0.382 C 
ATOM     23  O   LIG d   1      -9.189  95.393 117.955  0.00  0.00    -0.241 OA
ATOM     24  O   LIG d   1      -9.331  93.545 119.064  0.00  0.00    -0.241 OA
ENDBRANCH   3  22
TORSDOF 7
ENDMDL
MODEL 4
REMARK VINA RESULT:      -5.1      2.070      4.440
REMARK  7 active torsions:
REMARK  status: ('A' for Active; 'I' for Inactive)
REMARK    1  A    between atoms: C_2  and  C_3 
REMARK    2  A    between atoms: C_3  and  O_6 
REMARK    3  A    between atoms: C_3  and  C_4 
REMARK    4  A    between atoms: C_7  and  O_6 
REMARK    5  A    between atoms: C_9  and  C_10 
REMARK    6  A    between atoms: N_15  and  C_14 
REMARK    7  A    between atoms: N_20  and  C_19 
REMARK       I    between atoms: C_22  and  N_20 
ROOT
ATOM      1  C   LIG d   1      -6.373  92.837 117.561  0.00  0.00     0.161 C 
ATOM      2  C   LIG d   1      -7.306  91.958 116.987  0.00  0.00     0.016 C 
ATOM      3  C   LIG d   1      -6.945  90.754 116.340  0.00  0.00     0.038 C 
ATOM      4  C   LIG d   1      -5.629  90.269 116.356  0.00  0.00     0.028 C 
ATOM      5  C   LIG d   1      -4.580  91.369 116.484  0.00  0.00    -0.047 C 
ATOM      6  C   LIG d   1      -4.943  92.271 117.686  0.00  0.00     0.091 C 
ENDROOT
BRANCH   1   7
ATOM      7  O   LIG d   1      -6.849  93.284 118.846  0.00  0.00    -0.368 OA
BRANCH   7   8
ATOM      8  C   LIG d   1      -7.295  94.661 118.917  0.00  0.00     0.119 C 
BRANCH   8   9
ATOM      9  C   LIG d   1      -8.827  94.643 119.081  0.00  0.00     0.028 C 
ATOM     10  C   LIG d   1      -9.329  93.359 119.763  0.00  0.00     0.006 C 
ENDBRANCH   8   9
BRANCH   8  11
ATOM     11  C   LIG d   1      -7.037  95.399 117.600  0.00  0.00     0.028 C 
ATOM     12  C   LIG d   1      -7.945  96.625 117.416  0.00  0.00     0.006 C 
ENDBRANCH   8  11
ENDBRANCH   7   8
ENDBRANCH   1   7
BRANCH   6  13
ATOM     13  N   LIG d   1      -4.015  93.423 117.831  0.00  0.00    -0.311 N 
ATOM     14  C   LIG d   1      -2.942  93.405 118.620  0.00  0.00     0.210 C 
ATOM     15  C   LIG d   1      -2.130  94.704 118.638  0.00  0.00     0.109 C 
ATOM     16  O   LIG d   1      -2.567  92.425 119.281  0.00  0.00    -0.276 OA
ATOM     17  H   LIG d   1      -4.226  94.248 117.306  0.00  0.00     0.149 HD
ENDBRANCH   6  13
BRANCH   5  18
ATOM     18  N   LIG d   1      -3.265  90.717 116.627  0.00  0.00     0.381 N 
ATOM     19  H   LIG d   1      -2.809  91.052 117.452  0.00  0.00    -0.090 HD
ATOM     20  H   LIG d   1      -2.696  90.954 115.834  0.00  0.00    -0.090 HD
ATOM     21  H   LIG d   1      -3.379  89.728 116.680  0.00  0.00    -0.090 HD
ENDBRANCH   5  18
BRANCH   3  22
ATOM     22  C   LIG d   1      -7.901  90.040 115.634  0.00  0.00     0.382 C 
ATOM     23  O   LIG d   1      -8.173  88.860 115.963  0.00  0.00    -0.241 OA
ATOM     24  O   LIG d   1      -8.463  90.546 114.644  0.00  0.00    -0.241 OA
ENDBRANCH   3  22
TORSDOF 7
ENDMDL
MODEL 5
REMARK VINA RESULT:      -5.0      2.299      4.822
REMARK  7 active torsions:
REMARK  status: ('A' for Active; 'I' for Inactive)
REMARK    1  A    between atoms: C_2  and  C_3 
REMARK    2  A    between atoms: C_3  and  O_6 
REMARK    3  A    between atoms: C_3  and  C_4 
REMARK    4  A    between atoms: C_7  and  O_6 
REMARK    5  A    between atoms: C_9  and  C_10 
REMARK    6  A    between atoms: N_15  and  C_14 
REMARK    7  A    between atoms: N_20  and  C_19 
REMARK       I    between atoms: C_22  and  N_20 
ROOT
ATOM      1  C   LIG d   1      -6.752  92.218 118.206  0.00  0.00     0.161 C 
ATOM      2  C   LIG d   1      -5.686  93.001 118.681  0.00  0.00     0.016 C 
ATOM      3  C   LIG d   1      -4.363  92.890 118.195  0.00  0.00     0.038 C 
ATOM      4  C   LIG d   1      -4.043  92.088 117.090  0.00  0.00     0.028 C 
ATOM      5  C   LIG d   1      -4.987  90.904 116.907  0.00  0.00    -0.047 C 
ATOM      6  C   LIG d   1      -6.445  91.417 116.924  0.00  0.00     0.091 C 
ENDROOT
BRANCH   1   7
ATOM      7  O   LIG d   1      -7.917  93.044 118.015  0.00  0.00    -0.368 OA
BRANCH   7   8
ATOM      8  C   LIG d   1      -7.922  94.312 118.714  0.00  0.00     0.119 C 
BRANCH   8   9
ATOM      9  C   LIG d   1      -8.858  94.168 119.930  0.00  0.00     0.028 C 
ATOM     10  C   LIG d   1     -10.054  95.132 119.867  0.00  0.00     0.006 C 
ENDBRANCH   8   9
BRANCH   8  11
ATOM     11  C   LIG d   1      -8.540  95.420 117.856  0.00  0.00     0.028 C 
ATOM     12  C   LIG d   1      -7.496  96.413 117.321  0.00  0.00     0.006 C 
ENDBRANCH   8  11
ENDBRANCH   7   8
ENDBRANCH   1   7
BRANCH   6  13
ATOM     13  N   LIG d   1      -7.435  90.312 116.836  0.00  0.00    -0.311 N 
ATOM     14  C   LIG d   1      -7.962  89.889 115.688  0.00  0.00     0.210 C 
ATOM     15  C   LIG d   1      -8.979  88.752 115.823  0.00  0.00     0.109 C 
ATOM     16  O   LIG d   1      -7.659  90.326 114.567  0.00  0.00    -0.276 OA
ATOM     17  H   LIG d   1      -7.714  89.880 117.695  0.00  0.00     0.149 HD
ENDBRANCH   6  13
BRANCH   5  18
ATOM     18  N   LIG d   1      -4.623  90.235 115.644  0.00  0.00     0.381 N 
ATOM     19  H   LIG d   1      -4.758  89.247 115.733  0.00  0.00    -0.090 HD
ATOM     20  H   LIG d   1      -3.652  90.405 115.454  0.00  0.00    -0.090 HD
ATOM     21  H   LIG d   1      -5.182  90.587 114.898  0.00  0.00    -0.090 HD
ENDBRANCH   5  18
BRANCH   3  22
ATOM     22  C   LIG d   1      -3.335  93.556 118.845  0.00  0.00     0.382 C 
ATOM     23  O   LIG d   1      -2.872  94.618 118.361  0.00  0.00    -0.241 OA
ATOM     24  O   LIG d   1      -2.834  93.086 119.883  0.00  0.00    -0.241 OA
ENDBRANCH   3  22
TORSDOF 7
ENDMDL
MODEL 6
REMARK VINA RESULT:      -4.8      2.230      5.287
REMARK  7 active torsions:
REMARK  status: ('A' for Active; 'I' for Inactive)
REMARK    1  A    between atoms: C_2  and  C_3 
REMARK    2  A    between atoms: C_3  and  O_6 
REMARK    3  A    between atoms: C_3  and  C_4 
REMARK    4  A    between atoms: C_7  and  O_6 
REMARK    5  A    between atoms: C_9  and  C_10 
REMARK    6  A    between atoms: N_15  and  C_14 
REMARK    7  A    between atoms: N_20  and  C_19 
REMARK       I    between atoms: C_22  and  N_20 
ROOT
ATOM      1  C   LIG d   1      -4.742  91.943 117.012  0.00  0.00     0.161 C 
ATOM      2  C   LIG d   1      -5.471  91.197 116.070  0.00  0.00     0.016 C 
ATOM      3  C   LIG d   1      -6.588  91.707 115.370  0.00  0.00     0.038 C 
ATOM      4  C   LIG d   1      -6.963  93.057 115.454  0.00  0.00     0.028 C 
ATOM      5  C   LIG d   1      -6.568  93.715 116.772  0.00  0.00    -0.047 C 
ATOM      6  C   LIG d   1      -5.067  93.451 117.034  0.00  0.00     0.091 C 
ENDROOT
BRANCH   1   7
ATOM      7  O   LIG d   1      -3.330  91.738 116.809  0.00  0.00    -0.368 OA
BRANCH   7   8
ATOM      8  C   LIG d   1      -2.609  91.135 117.912  0.00  0.00     0.119 C 
BRANCH   8   9
ATOM      9  C   LIG d   1      -1.250  91.853 118.024  0.00  0.00     0.028 C 
ATOM     10  C   LIG d   1      -0.100  91.032 117.418  0.00  0.00     0.006 C 
ENDBRANCH   8   9
BRANCH   8  11
ATOM     11  C   LIG d   1      -2.270  89.670 117.621  0.00  0.00     0.028 C 
ATOM     12  C   LIG d   1      -2.836  88.707 118.677  0.00  0.00     0.006 C 
ENDBRANCH   8  11
ENDBRANCH   7   8
ENDBRANCH   1   7
BRANCH   6  13
ATOM     13  N   LIG d   1      -4.618  93.989 118.345  0.00  0.00    -0.311 N 
ATOM     14  C   LIG d   1      -4.089  95.202 118.497  0.00  0.00     0.210 C 
ATOM     15  C   LIG d   1      -3.674  95.551 119.930  0.00  0.00     0.109 C 
ATOM     16  O   LIG d   1      -3.952  96.033 117.587  0.00  0.00    -0.276 OA
ATOM     17  H   LIG d   1      -4.721  93.392 119.142  0.00  0.00     0.149 HD
ENDBRANCH   6  13
BRANCH   5  18
ATOM     18  N   LIG d   1      -6.894  95.149 116.669  0.00  0.00     0.381 N 
ATOM     19  H   LIG d   1      -7.825  95.261 116.320  0.00  0.00    -0.090 HD
ATOM     20  H   LIG d   1      -6.260  95.581 116.020  0.00  0.00    -0.090 HD
ATOM     21  H   LIG d   1      -6.813  95.582 117.563  0.00  0.00    -0.090 HD
ENDBRANCH   5  18
BRANCH   3  22
ATOM     22  C   LIG d   1      -7.369  90.853 114.606  0.00  0.00     0.382 C 
ATOM     23  O   LIG d   1      -8.167  91.323 113.759  0.00  0.00    -0.241 OA
ATOM     24  O   LIG d   1      -7.317  89.622 114.784  0.00  0.00    -0.241 OA
ENDBRANCH   3  22
TORSDOF 7
ENDMDL
MODEL 7
REMARK VINA RESULT:      -4.8      2.138      2.702
REMARK  7 active torsions:
REMARK  status: ('A' for Active; 'I' for Inactive)
REMARK    1  A    between atoms: C_2  and  C_3 
REMARK    2  A    between atoms: C_3  and  O_6 
REMARK    3  A    between atoms: C_3  and  C_4 
REMARK    4  A    between atoms: C_7  and  O_6 
REMARK    5  A    between atoms: C_9  and  C_10 
REMARK    6  A    between atoms: N_15  and  C_14 
REMARK    7  A    between atoms: N_20  and  C_19 
REMARK       I    between atoms: C_22  and  N_20 
ROOT
ATOM      1  C   LIG d   1      -5.727  93.325 117.451  0.00  0.00     0.161 C 
ATOM      2  C   LIG d   1      -6.940  94.007 117.257  0.00  0.00     0.016 C 
ATOM      3  C   LIG d   1      -7.218  95.274 117.818  0.00  0.00     0.038 C 
ATOM      4  C   LIG d   1      -6.238  96.019 118.491  0.00  0.00     0.028 C 
ATOM      5  C   LIG d   1      -5.163  95.155 119.142  0.00  0.00    -0.047 C 
ATOM      6  C   LIG d   1      -4.605  94.170 118.090  0.00  0.00     0.091 C 
ENDROOT
BRANCH   1   7
ATOM      7  O   LIG d   1      -5.280  92.759 116.203  0.00  0.00    -0.368 OA
BRANCH   7   8
ATOM      8  C   LIG d   1      -6.183  91.821 115.568  0.00  0.00     0.119 C 
BRANCH   8   9
ATOM      9  C   LIG d   1      -5.436  90.480 115.431  0.00  0.00     0.028 C 
ATOM     10  C   LIG d   1      -4.342  90.306 116.499  0.00  0.00     0.006 C 
ENDBRANCH   8   9
BRANCH   8  11
ATOM     11  C   LIG d   1      -6.514  92.248 114.135  0.00  0.00     0.028 C 
ATOM     12  C   LIG d   1      -7.725  91.500 113.555  0.00  0.00     0.006 C 
ENDBRANCH   8  11
ENDBRANCH   7   8
ENDBRANCH   1   7
BRANCH   6  13
ATOM     13  N   LIG d   1      -3.607  93.231 118.665  0.00  0.00    -0.311 N 
ATOM     14  C   LIG d   1      -2.395  93.042 118.147  0.00  0.00     0.210 C 
ATOM     15  C   LIG d   1      -1.530  92.014 118.884  0.00  0.00     0.109 C 
ATOM     16  O   LIG d   1      -1.942  93.651 117.167  0.00  0.00    -0.276 OA
ATOM     17  H   LIG d   1      -3.881  92.718 119.480  0.00  0.00     0.149 HD
ENDBRANCH   6  13
BRANCH   5  18
ATOM     18  N   LIG d   1      -4.135  96.061 119.688  0.00  0.00     0.381 N 
ATOM     19  H   LIG d   1      -3.489  95.541 120.249  0.00  0.00    -0.090 HD
ATOM     20  H   LIG d   1      -4.581  96.745 120.273  0.00  0.00    -0.090 HD
ATOM     21  H   LIG d   1      -3.650  96.514 118.945  0.00  0.00    -0.090 HD
ENDBRANCH   5  18
BRANCH   3  22
ATOM     22  C   LIG d   1      -8.502  95.793 117.742  0.00  0.00     0.382 C 
ATOM     23  O   LIG d   1      -8.684  96.956 117.307  0.00  0.00    -0.241 OA
ATOM     24  O   LIG d   1      -9.476  95.129 118.143  0.00  0.00    -0.241 OA
ENDBRANCH   3  22
TORSDOF 7
ENDMDL
MODEL 8
REMARK VINA RESULT:      -4.7      1.625      2.350
REMARK  7 active torsions:
REMARK  status: ('A' for Active; 'I' for Inactive)
REMARK    1  A    between atoms: C_2  and  C_3 
REMARK    2  A    between atoms: C_3  and  O_6 
REMARK    3  A    between atoms: C_3  and  C_4 
REMARK    4  A    between atoms: C_7  and  O_6 
REMARK    5  A    between atoms: C_9  and  C_10 
REMARK    6  A    between atoms: N_15  and  C_14 
REMARK    7  A    between atoms: N_20  and  C_19 
REMARK       I    between atoms: C_22  and  N_20 
ROOT
ATOM      1  C   LIG d   1      -5.284  92.788 116.803  0.00  0.00     0.161 C 
ATOM      2  C   LIG d   1      -6.023  93.925 117.171  0.00  0.00     0.016 C 
ATOM      3  C   LIG d   1      -5.496  94.973 117.959  0.00  0.00     0.038 C 
ATOM      4  C   LIG d   1      -4.139  95.028 118.309  0.00  0.00     0.028 C 
ATOM      5  C   LIG d   1      -3.478  93.656 118.387  0.00  0.00    -0.047 C 
ATOM      6  C   LIG d   1      -3.770  92.883 117.081  0.00  0.00     0.091 C 
ENDROOT
BRANCH   1   7
ATOM      7  O   LIG d   1      -5.520  92.481 115.414  0.00  0.00    -0.368 OA
BRANCH   7   8
ATOM      8  C   LIG d   1      -6.022  91.151 115.132  0.00  0.00     0.119 C 
BRANCH   8   9
ATOM      9  C   LIG d   1      -6.937  91.254 113.897  0.00  0.00     0.028 C 
ATOM     10  C   LIG d   1      -7.570  92.648 113.750  0.00  0.00     0.006 C 
ENDBRANCH   8   9
BRANCH   8  11
ATOM     11  C   LIG d   1      -6.922  90.643 116.263  0.00  0.00     0.028 C 
ATOM     12  C   LIG d   1      -7.938  89.592 115.789  0.00  0.00     0.006 C 
ENDBRANCH   8  11
ENDBRANCH   7   8
ENDBRANCH   1   7
BRANCH   6  13
ATOM     13  N   LIG d   1      -3.230  91.499 117.109  0.00  0.00    -0.311 N 
ATOM     14  C   LIG d   1      -3.596  90.587 118.008  0.00  0.00     0.210 C 
ATOM     15  C   LIG d   1      -2.903  89.228 117.871  0.00  0.00     0.109 C 
ATOM     16  O   LIG d   1      -4.453  90.765 118.887  0.00  0.00    -0.276 OA
ATOM     17  H   LIG d   1      -2.552  91.259 116.412  0.00  0.00     0.149 HD
ENDBRANCH   6  13
BRANCH   5  18
ATOM     18  N   LIG d   1      -2.037  93.869 118.624  0.00  0.00     0.381 N 
ATOM     19  H   LIG d   1      -1.890  94.168 119.567  0.00  0.00    -0.090 HD
ATOM     20  H   LIG d   1      -1.710  94.592 118.009  0.00  0.00    -0.090 HD
ATOM     21  H   LIG d   1      -1.536  93.025 118.453  0.00  0.00    -0.090 HD
ENDBRANCH   5  18
BRANCH   3  22
ATOM     22  C   LIG d   1      -6.341  95.962 118.440  0.00  0.00     0.382 C 
ATOM     23  O   LIG d   1      -7.518  95.677 118.767  0.00  0.00    -0.241 OA
ATOM     24  O   LIG d   1      -5.954  97.144 118.510  0.00  0.00    -0.241 OA
ENDBRANCH   3  22
TORSDOF 7
ENDMDL
MODEL 9
REMARK VINA RESULT:      -4.5      2.071      2.966
REMARK  7 active torsions:
REMARK  status: ('A' for Active; 'I' for Inactive)
REMARK    1  A    between atoms: C_2  and  C_3 
REMARK    2  A    between atoms: C_3  and  O_6 
REMARK    3  A    between atoms: C_3  and  C_4 
REMARK    4  A    between atoms: C_7  and  O_6 
REMARK    5  A    between atoms: C_9  and  C_10 
REMARK    6  A    between atoms: N_15  and  C_14 
REMARK    7  A    between atoms: N_20  and  C_19 
REMARK       I    between atoms: C_22  and  N_20 
ROOT
ATOM      1  C   LIG d   1      -4.559  92.428 118.524  0.00  0.00     0.161 C 
ATOM      2  C   LIG d   1      -4.803  93.809 118.439  0.00  0.00     0.016 C 
ATOM      3  C   LIG d   1      -3.786  94.767 118.221  0.00  0.00     0.038 C 
ATOM      4  C   LIG d   1      -2.468  94.394 117.921  0.00  0.00     0.028 C 
ATOM      5  C   LIG d   1      -2.077  93.036 118.495  0.00  0.00    -0.047 C 
ATOM      6  C   LIG d   1      -3.144  91.994 118.088  0.00  0.00     0.091 C 
ENDROOT
BRANCH   1   7
ATOM      7  O   LIG d   1      -5.557  91.708 117.773  0.00  0.00    -0.368 OA
BRANCH   7   8
ATOM      8  C   LIG d   1      -5.433  91.763 116.331  0.00  0.00     0.119 C 
BRANCH   8   9
ATOM      9  C   LIG d   1      -6.825  92.092 115.758  0.00  0.00     0.028 C 
ATOM     10  C   LIG d   1      -7.112  93.603 115.743  0.00  0.00     0.006 C 
ENDBRANCH   8   9
BRANCH   8  11
ATOM     11  C   LIG d   1      -5.068  90.394 115.750  0.00  0.00     0.028 C 
ATOM     12  C   LIG d   1      -6.068  89.912 114.687  0.00  0.00     0.006 C 
ENDBRANCH   8  11
ENDBRANCH   7   8
ENDBRANCH   1   7
BRANCH   6  13
ATOM     13  N   LIG d   1      -2.883  90.655 118.679  0.00  0.00    -0.311 N 
ATOM     14  C   LIG d   1      -2.147  89.720 118.080  0.00  0.00     0.210 C 
ATOM     15  C   LIG d   1      -2.020  88.404 118.853  0.00  0.00     0.109 C 
ATOM     16  O   LIG d   1      -1.562  89.868 116.996  0.00  0.00    -0.276 OA
ATOM     17  H   LIG d   1      -3.294  90.462 119.571  0.00  0.00     0.149 HD
ENDBRANCH   6  13
BRANCH   5  18
ATOM     18  N   LIG d   1      -0.729  92.711 117.991  0.00  0.00     0.381 N 
ATOM     19  H   LIG d   1      -0.186  93.547 117.913  0.00  0.00    -0.090 HD
ATOM     20  H   LIG d   1      -0.814  92.302 117.077  0.00  0.00    -0.090 HD
ATOM     21  H   LIG d   1      -0.280  92.071 118.609  0.00  0.00    -0.090 HD
ENDBRANCH   5  18
BRANCH   3  22
ATOM     22  C   LIG d   1      -4.077  96.117 118.342  0.00  0.00     0.382 C 
ATOM     23  O   LIG d   1      -5.271  96.500 118.387  0.00  0.00    -0.241 OA
ATOM     24  O   LIG d   1      -3.162  96.962 118.362  0.00  0.00    -0.241 OA
ENDBRANCH   3  22
TORSDOF 7
ENDMDL
