MODEL 1
REMARK VINA RESULT:      -4.5      0.000      0.000
REMARK  7 active torsions:
REMARK  status: ('A' for Active; 'I' for Inactive)
REMARK    1  A    between atoms: C_2  and  C_3 
REMARK    2  A    between atoms: C_3  and  O_6 
REMARK    3  A    between atoms: C_3  and  C_4 
REMARK    4  A    between atoms: C_7  and  O_6 
REMARK    5  A    between atoms: C_9  and  C_10 
REMARK    6  A    between atoms: N_15  and  C_14 
REMARK    7  A    between atoms: N_20  and  C_19 
REMARK       I    between atoms: C_22  and  N_20 
ROOT
ATOM      1  C   LIG d   1      -1.012  90.474 117.561  0.00  0.00     0.161 C 
ATOM      2  C   LIG d   1       0.322  90.908 117.634  0.00  0.00     0.016 C 
ATOM      3  C   LIG d   1       0.704  92.170 118.144  0.00  0.00     0.038 C 
ATOM      4  C   LIG d   1      -0.218  93.030 118.761  0.00  0.00     0.028 C 
ATOM      5  C   LIG d   1      -1.645  92.851 118.256  0.00  0.00    -0.047 C 
ATOM      6  C   LIG d   1      -2.020  91.353 118.331  0.00  0.00     0.091 C 
ENDROOT
BRANCH   1   7
ATOM      7  O   LIG d   1      -1.105  89.104 117.999  0.00  0.00    -0.368 OA
BRANCH   7   8
ATOM      8  C   LIG d   1      -0.148  88.184 117.419  0.00  0.00     0.119 C 
BRANCH   8   9
ATOM      9  C   LIG d   1      -0.936  87.180 116.556  0.00  0.00     0.028 C 
ATOM     10  C   LIG d   1      -0.018  86.318 115.673  0.00  0.00     0.006 C 
ENDBRANCH   8   9
BRANCH   8  11
ATOM     11  C   LIG d   1       0.538  87.340 118.498  0.00  0.00     0.028 C 
ATOM     12  C   LIG d   1       0.866  88.146 119.765  0.00  0.00     0.006 C 
ENDBRANCH   8  11
ENDBRANCH   7   8
ENDBRANCH   1   7
BRANCH   6  13
ATOM     13  N   LIG d   1      -3.371  91.078 117.777  0.00  0.00    -0.311 N 
ATOM     14  C   LIG d   1      -4.478  91.059 118.518  0.00  0.00     0.210 C 
ATOM     15  C   LIG d   1      -5.764  90.735 117.752  0.00  0.00     0.109 C 
ATOM     16  O   LIG d   1      -4.521  91.311 119.732  0.00  0.00    -0.276 OA
ATOM     17  H   LIG d   1      -3.433  90.894 116.795  0.00  0.00     0.149 HD
ENDBRANCH   6  13
BRANCH   5  18
ATOM     18  N   LIG d   1      -2.520  93.708 119.078  0.00  0.00     0.381 N 
ATOM     19  H   LIG d   1      -3.294  93.174 119.419  0.00  0.00    -0.090 HD
ATOM     20  H   LIG d   1      -2.877  94.452 118.506  0.00  0.00    -0.090 HD
ATOM     21  H   LIG d   1      -2.005  94.085 119.843  0.00  0.00    -0.090 HD
ENDBRANCH   5  18
BRANCH   3  22
ATOM     22  C   LIG d   1       2.014  92.600 118.004  0.00  0.00     0.382 C 
ATOM     23  O   LIG d   1       2.783  92.018 117.202  0.00  0.00    -0.241 OA
ATOM     24  O   LIG d   1       2.450  93.535 118.703  0.00  0.00    -0.241 OA
ENDBRANCH   3  22
TORSDOF 7
ENDMDL
MODEL 2
REMARK VINA RESULT:      -4.5      2.483      5.141
REMARK  7 active torsions:
REMARK  status: ('A' for Active; 'I' for Inactive)
REMARK    1  A    between atoms: C_2  and  C_3 
REMARK    2  A    between atoms: C_3  and  O_6 
REMARK    3  A    between atoms: C_3  and  C_4 
REMARK    4  A    between atoms: C_7  and  O_6 
REMARK    5  A    between atoms: C_9  and  C_10 
REMARK    6  A    between atoms: N_15  and  C_14 
REMARK    7  A    between atoms: N_20  and  C_19 
REMARK       I    between atoms: C_22  and  N_20 
ROOT
ATOM      1  C   LIG d   1      -0.326  88.681 117.319  0.00  0.00     0.161 C 
ATOM      2  C   LIG d   1      -1.666  88.943 117.650  0.00  0.00     0.016 C 
ATOM      3  C   LIG d   1      -2.146  90.227 117.995  0.00  0.00     0.038 C 
ATOM      4  C   LIG d   1      -1.343  91.372 117.885  0.00  0.00     0.028 C 
ATOM      5  C   LIG d   1       0.146  91.086 118.042  0.00  0.00    -0.047 C 
ATOM      6  C   LIG d   1       0.540  89.937 117.086  0.00  0.00     0.091 C 
ENDROOT
BRANCH   1   7
ATOM      7  O   LIG d   1      -0.267  87.812 116.171  0.00  0.00    -0.368 OA
BRANCH   7   8
ATOM      8  C   LIG d   1       0.340  86.514 116.385  0.00  0.00     0.119 C 
BRANCH   8   9
ATOM      9  C   LIG d   1       1.013  86.094 115.064  0.00  0.00     0.028 C 
ATOM     10  C   LIG d   1       2.484  85.688 115.257  0.00  0.00     0.006 C 
ENDBRANCH   8   9
BRANCH   8  11
ATOM     11  C   LIG d   1      -0.718  85.441 116.660  0.00  0.00     0.028 C 
ATOM     12  C   LIG d   1      -1.999  85.643 115.834  0.00  0.00     0.006 C 
ENDBRANCH   8  11
ENDBRANCH   7   8
ENDBRANCH   1   7
BRANCH   6  13
ATOM     13  N   LIG d   1       1.963  89.536 117.237  0.00  0.00    -0.311 N 
ATOM     14  C   LIG d   1       2.777  89.322 116.205  0.00  0.00     0.210 C 
ATOM     15  C   LIG d   1       4.200  88.897 116.581  0.00  0.00     0.109 C 
ATOM     16  O   LIG d   1       2.465  89.474 115.014  0.00  0.00    -0.276 OA
ATOM     17  H   LIG d   1       2.308  89.421 118.169  0.00  0.00     0.149 HD
ENDBRANCH   6  13
BRANCH   5  18
ATOM     18  N   LIG d   1       0.873  92.340 117.768  0.00  0.00     0.381 N 
ATOM     19  H   LIG d   1       0.407  92.850 117.044  0.00  0.00    -0.090 HD
ATOM     20  H   LIG d   1       1.799  92.117 117.452  0.00  0.00    -0.090 HD
ATOM     21  H   LIG d   1       0.921  92.894 118.595  0.00  0.00    -0.090 HD
ENDBRANCH   5  18
BRANCH   3  22
ATOM     22  C   LIG d   1      -3.432  90.369 118.494  0.00  0.00     0.382 C 
ATOM     23  O   LIG d   1      -4.286  89.473 118.290  0.00  0.00    -0.241 OA
ATOM     24  O   LIG d   1      -3.760  91.402 119.109  0.00  0.00    -0.241 OA
ENDBRANCH   3  22
TORSDOF 7
ENDMDL
MODEL 3
REMARK VINA RESULT:      -4.4      2.439      5.018
REMARK  7 active torsions:
REMARK  status: ('A' for Active; 'I' for Inactive)
REMARK    1  A    between atoms: C_2  and  C_3 
REMARK    2  A    between atoms: C_3  and  O_6 
REMARK    3  A    between atoms: C_3  and  C_4 
REMARK    4  A    between atoms: C_7  and  O_6 
REMARK    5  A    between atoms: C_9  and  C_10 
REMARK    6  A    between atoms: N_15  and  C_14 
REMARK    7  A    between atoms: N_20  and  C_19 
REMARK       I    between atoms: C_22  and  N_20 
ROOT
ATOM      1  C   LIG d   1      -0.334  88.691 117.271  0.00  0.00     0.161 C 
ATOM      2  C   LIG d   1      -1.681  88.949 117.578  0.00  0.00     0.016 C 
ATOM      3  C   LIG d   1      -2.164  90.227 117.943  0.00  0.00     0.038 C 
ATOM      4  C   LIG d   1      -1.356  91.372 117.880  0.00  0.00     0.028 C 
ATOM      5  C   LIG d   1       0.128  91.076 118.064  0.00  0.00    -0.047 C 
ATOM      6  C   LIG d   1       0.540  89.949 117.089  0.00  0.00     0.091 C 
ENDROOT
BRANCH   1   7
ATOM      7  O   LIG d   1      -0.251  87.850 116.104  0.00  0.00    -0.368 OA
BRANCH   7   8
ATOM      8  C   LIG d   1       0.367  86.553 116.295  0.00  0.00     0.119 C 
BRANCH   8   9
ATOM      9  C   LIG d   1      -0.485  85.518 115.535  0.00  0.00     0.028 C 
ATOM     10  C   LIG d   1      -1.953  85.518 115.991  0.00  0.00     0.006 C 
ENDBRANCH   8   9
BRANCH   8  11
ATOM     11  C   LIG d   1       0.314  86.122 117.764  0.00  0.00     0.028 C 
ATOM     12  C   LIG d   1       1.704  85.828 118.349  0.00  0.00     0.006 C 
ENDBRANCH   8  11
ENDBRANCH   7   8
ENDBRANCH   1   7
BRANCH   6  13
ATOM     13  N   LIG d   1       1.959  89.540 117.262  0.00  0.00    -0.311 N 
ATOM     14  C   LIG d   1       2.790  89.326 116.244  0.00  0.00     0.210 C 
ATOM     15  C   LIG d   1       4.203  88.892 116.643  0.00  0.00     0.109 C 
ATOM     16  O   LIG d   1       2.499  89.486 115.049  0.00  0.00    -0.276 OA
ATOM     17  H   LIG d   1       2.287  89.418 118.200  0.00  0.00     0.149 HD
ENDBRANCH   6  13
BRANCH   5  18
ATOM     18  N   LIG d   1       0.865  92.334 117.838  0.00  0.00     0.381 N 
ATOM     19  H   LIG d   1       0.428  93.078 118.344  0.00  0.00    -0.090 HD
ATOM     20  H   LIG d   1       0.833  92.558 116.858  0.00  0.00    -0.090 HD
ATOM     21  H   LIG d   1       1.811  92.233 118.132  0.00  0.00    -0.090 HD
ENDBRANCH   5  18
BRANCH   3  22
ATOM     22  C   LIG d   1      -3.461  90.361 118.416  0.00  0.00     0.382 C 
ATOM     23  O   LIG d   1      -3.802  91.405 119.022  0.00  0.00    -0.241 OA
ATOM     24  O   LIG d   1      -4.281  89.433 118.283  0.00  0.00    -0.241 OA
ENDBRANCH   3  22
TORSDOF 7
ENDMDL
MODEL 4
REMARK VINA RESULT:      -4.3      3.515      6.177
REMARK  7 active torsions:
REMARK  status: ('A' for Active; 'I' for Inactive)
REMARK    1  A    between atoms: C_2  and  C_3 
REMARK    2  A    between atoms: C_3  and  O_6 
REMARK    3  A    between atoms: C_3  and  C_4 
REMARK    4  A    between atoms: C_7  and  O_6 
REMARK    5  A    between atoms: C_9  and  C_10 
REMARK    6  A    between atoms: N_15  and  C_14 
REMARK    7  A    between atoms: N_20  and  C_19 
REMARK       I    between atoms: C_22  and  N_20 
ROOT
ATOM      1  C   LIG d   1       2.384  90.043 116.919  0.00  0.00     0.161 C 
ATOM      2  C   LIG d   1       1.253  89.268 116.610  0.00  0.00     0.016 C 
ATOM      3  C   LIG d   1      -0.008  89.456 117.220  0.00  0.00     0.038 C 
ATOM      4  C   LIG d   1      -0.264  90.537 118.076  0.00  0.00     0.028 C 
ATOM      5  C   LIG d   1       0.978  91.041 118.804  0.00  0.00    -0.047 C 
ATOM      6  C   LIG d   1       2.096  91.298 117.768  0.00  0.00     0.091 C 
ENDROOT
BRANCH   1   7
ATOM      7  O   LIG d   1       3.073  90.405 115.706  0.00  0.00    -0.368 OA
BRANCH   7   8
ATOM      8  C   LIG d   1       4.139  89.518 115.289  0.00  0.00     0.119 C 
BRANCH   8   9
ATOM      9  C   LIG d   1       5.440  90.013 115.950  0.00  0.00     0.028 C 
ATOM     10  C   LIG d   1       5.845  89.158 117.162  0.00  0.00     0.006 C 
ENDBRANCH   8   9
BRANCH   8  11
ATOM     11  C   LIG d   1       4.388  89.616 113.781  0.00  0.00     0.028 C 
ATOM     12  C   LIG d   1       5.730  88.998 113.357  0.00  0.00     0.006 C 
ENDBRANCH   8  11
ENDBRANCH   7   8
ENDBRANCH   1   7
BRANCH   6  13
ATOM     13  N   LIG d   1       3.373  91.714 118.404  0.00  0.00    -0.311 N 
ATOM     14  C   LIG d   1       3.975  92.874 118.151  0.00  0.00     0.210 C 
ATOM     15  C   LIG d   1       5.293  93.096 118.899  0.00  0.00     0.109 C 
ATOM     16  O   LIG d   1       3.526  93.755 117.402  0.00  0.00    -0.276 OA
ATOM     17  H   LIG d   1       3.791  91.072 119.049  0.00  0.00     0.149 HD
ENDBRANCH   6  13
BRANCH   5  18
ATOM     18  N   LIG d   1       0.594  92.253 119.553  0.00  0.00     0.381 N 
ATOM     19  H   LIG d   1       0.706  93.060 118.973  0.00  0.00    -0.090 HD
ATOM     20  H   LIG d   1       1.201  92.349 120.348  0.00  0.00    -0.090 HD
ATOM     21  H   LIG d   1      -0.352  92.181 119.856  0.00  0.00    -0.090 HD
ENDBRANCH   5  18
BRANCH   3  22
ATOM     22  C   LIG d   1      -1.019  88.531 117.006  0.00  0.00     0.382 C 
ATOM     23  O   LIG d   1      -2.218  88.865 117.167  0.00  0.00    -0.241 OA
ATOM     24  O   LIG d   1      -0.746  87.356 116.697  0.00  0.00    -0.241 OA
ENDBRANCH   3  22
TORSDOF 7
ENDMDL
MODEL 5
REMARK VINA RESULT:      -4.2      4.283      5.556
REMARK  7 active torsions:
REMARK  status: ('A' for Active; 'I' for Inactive)
REMARK    1  A    between atoms: C_2  and  C_3 
REMARK    2  A    between atoms: C_3  and  O_6 
REMARK    3  A    between atoms: C_3  and  C_4 
REMARK    4  A    between atoms: C_7  and  O_6 
REMARK    5  A    between atoms: C_9  and  C_10 
REMARK    6  A    between atoms: N_15  and  C_14 
REMARK    7  A    between atoms: N_20  and  C_19 
REMARK       I    between atoms: C_22  and  N_20 
ROOT
ATOM      1  C   LIG d   1       3.210  89.885 115.602  0.00  0.00     0.161 C 
ATOM      2  C   LIG d   1       4.613  89.898 115.661  0.00  0.00     0.016 C 
ATOM      3  C   LIG d   1       5.345  89.605 116.835  0.00  0.00     0.038 C 
ATOM      4  C   LIG d   1       4.722  89.129 117.998  0.00  0.00     0.028 C 
ATOM      5  C   LIG d   1       3.273  89.584 118.138  0.00  0.00    -0.047 C 
ATOM      6  C   LIG d   1       2.516  89.260 116.830  0.00  0.00     0.091 C 
ENDROOT
BRANCH   1   7
ATOM      7  O   LIG d   1       2.778  89.228 114.394  0.00  0.00    -0.368 OA
BRANCH   7   8
ATOM      8  C   LIG d   1       3.434  87.974 114.081  0.00  0.00     0.119 C 
BRANCH   8   9
ATOM      9  C   LIG d   1       3.948  88.070 112.632  0.00  0.00     0.028 C 
ATOM     10  C   LIG d   1       5.477  87.922 112.541  0.00  0.00     0.006 C 
ENDBRANCH   8   9
BRANCH   8  11
ATOM     11  C   LIG d   1       2.439  86.810 114.082  0.00  0.00     0.028 C 
ATOM     12  C   LIG d   1       2.502  85.973 115.370  0.00  0.00     0.006 C 
ENDBRANCH   8  11
ENDBRANCH   7   8
ENDBRANCH   1   7
BRANCH   6  13
ATOM     13  N   LIG d   1       1.113  89.748 116.851  0.00  0.00    -0.311 N 
ATOM     14  C   LIG d   1       0.075  88.982 117.182  0.00  0.00     0.210 C 
ATOM     15  C   LIG d   1      -1.289  89.678 117.119  0.00  0.00     0.109 C 
ATOM     16  O   LIG d   1       0.157  87.802 117.553  0.00  0.00    -0.276 OA
ATOM     17  H   LIG d   1       0.958  90.704 116.594  0.00  0.00     0.149 HD
ENDBRANCH   6  13
BRANCH   5  18
ATOM     18  N   LIG d   1       2.705  88.905 119.318  0.00  0.00     0.381 N 
ATOM     19  H   LIG d   1       1.715  89.046 119.347  0.00  0.00    -0.090 HD
ATOM     20  H   LIG d   1       3.105  89.306 120.148  0.00  0.00    -0.090 HD
ATOM     21  H   LIG d   1       2.907  87.930 119.281  0.00  0.00    -0.090 HD
ENDBRANCH   5  18
BRANCH   3  22
ATOM     22  C   LIG d   1       6.714  89.826 116.865  0.00  0.00     0.382 C 
ATOM     23  O   LIG d   1       7.505  88.906 116.547  0.00  0.00    -0.241 OA
ATOM     24  O   LIG d   1       7.168  90.921 117.248  0.00  0.00    -0.241 OA
ENDBRANCH   3  22
TORSDOF 7
ENDMDL
MODEL 6
REMARK VINA RESULT:      -4.1      2.944      4.891
REMARK  7 active torsions:
REMARK  status: ('A' for Active; 'I' for Inactive)
REMARK    1  A    between atoms: C_2  and  C_3 
REMARK    2  A    between atoms: C_3  and  O_6 
REMARK    3  A    between atoms: C_3  and  C_4 
REMARK    4  A    between atoms: C_7  and  O_6 
REMARK    5  A    between atoms: C_9  and  C_10 
REMARK    6  A    between atoms: N_15  and  C_14 
REMARK    7  A    between atoms: N_20  and  C_19 
REMARK       I    between atoms: C_22  and  N_20 
ROOT
ATOM      1  C   LIG d   1       0.538  90.112 117.638  0.00  0.00     0.161 C 
ATOM      2  C   LIG d   1       0.201  91.310 118.291  0.00  0.00     0.016 C 
ATOM      3  C   LIG d   1       1.089  92.402 118.419  0.00  0.00     0.038 C 
ATOM      4  C   LIG d   1       2.331  92.429 117.767  0.00  0.00     0.028 C 
ATOM      5  C   LIG d   1       2.915  91.042 117.519  0.00  0.00    -0.047 C 
ATOM      6  C   LIG d   1       1.848  90.165 116.825  0.00  0.00     0.091 C 
ENDROOT
BRANCH   1   7
ATOM      7  O   LIG d   1      -0.556  89.689 116.800  0.00  0.00    -0.368 OA
BRANCH   7   8
ATOM      8  C   LIG d   1      -1.379  88.615 117.320  0.00  0.00     0.119 C 
BRANCH   8   9
ATOM      9  C   LIG d   1      -1.015  87.335 116.543  0.00  0.00     0.028 C 
ATOM     10  C   LIG d   1      -0.130  86.382 117.364  0.00  0.00     0.006 C 
ENDBRANCH   8   9
BRANCH   8  11
ATOM     11  C   LIG d   1      -2.862  88.859 117.029  0.00  0.00     0.028 C 
ATOM     12  C   LIG d   1      -3.564  89.656 118.139  0.00  0.00     0.006 C 
ENDBRANCH   8  11
ENDBRANCH   7   8
ENDBRANCH   1   7
BRANCH   6  13
ATOM     13  N   LIG d   1       2.308  88.767 116.622  0.00  0.00    -0.311 N 
ATOM     14  C   LIG d   1       2.715  88.292 115.445  0.00  0.00     0.210 C 
ATOM     15  C   LIG d   1       3.128  86.817 115.451  0.00  0.00     0.109 C 
ATOM     16  O   LIG d   1       2.803  88.962 114.405  0.00  0.00    -0.276 OA
ATOM     17  H   LIG d   1       2.299  88.163 117.420  0.00  0.00     0.149 HD
ENDBRANCH   6  13
BRANCH   5  18
ATOM     18  N   LIG d   1       4.138  91.211 116.712  0.00  0.00     0.381 N 
ATOM     19  H   LIG d   1       4.487  90.316 116.434  0.00  0.00    -0.090 HD
ATOM     20  H   LIG d   1       4.839  91.661 117.275  0.00  0.00    -0.090 HD
ATOM     21  H   LIG d   1       3.942  91.765 115.907  0.00  0.00    -0.090 HD
ENDBRANCH   5  18
BRANCH   3  22
ATOM     22  C   LIG d   1       0.754  93.468 119.240  0.00  0.00     0.382 C 
ATOM     23  O   LIG d   1       1.647  94.067 119.887  0.00  0.00    -0.241 OA
ATOM     24  O   LIG d   1      -0.436  93.810 119.376  0.00  0.00    -0.241 OA
ENDBRANCH   3  22
TORSDOF 7
ENDMDL
MODEL 7
REMARK VINA RESULT:      -4.1      4.385      6.436
REMARK  7 active torsions:
REMARK  status: ('A' for Active; 'I' for Inactive)
REMARK    1  A    between atoms: C_2  and  C_3 
REMARK    2  A    between atoms: C_3  and  O_6 
REMARK    3  A    between atoms: C_3  and  C_4 
REMARK    4  A    between atoms: C_7  and  O_6 
REMARK    5  A    between atoms: C_9  and  C_10 
REMARK    6  A    between atoms: N_15  and  C_14 
REMARK    7  A    between atoms: N_20  and  C_19 
REMARK       I    between atoms: C_22  and  N_20 
ROOT
ATOM      1  C   LIG d   1       2.804  89.802 116.596  0.00  0.00     0.161 C 
ATOM      2  C   LIG d   1       2.826  89.385 115.255  0.00  0.00     0.016 C 
ATOM      3  C   LIG d   1       4.015  89.248 114.502  0.00  0.00     0.038 C 
ATOM      4  C   LIG d   1       5.283  89.375 115.089  0.00  0.00     0.028 C 
ATOM      5  C   LIG d   1       5.296  90.288 116.310  0.00  0.00    -0.047 C 
ATOM      6  C   LIG d   1       4.184  89.838 117.285  0.00  0.00     0.091 C 
ENDROOT
BRANCH   1   7
ATOM      7  O   LIG d   1       1.890  88.981 117.349  0.00  0.00    -0.368 OA
BRANCH   7   8
ATOM      8  C   LIG d   1       0.507  89.412 117.360  0.00  0.00     0.119 C 
BRANCH   8   9
ATOM      9  C   LIG d   1       0.350  90.435 118.501  0.00  0.00     0.028 C 
ATOM     10  C   LIG d   1      -0.002  91.841 117.985  0.00  0.00     0.006 C 
ENDBRANCH   8   9
BRANCH   8  11
ATOM     11  C   LIG d   1      -0.434  88.257 117.718  0.00  0.00     0.028 C 
ATOM     12  C   LIG d   1      -0.568  87.226 116.587  0.00  0.00     0.006 C 
ENDBRANCH   8  11
ENDBRANCH   7   8
ENDBRANCH   1   7
BRANCH   6  13
ATOM     13  N   LIG d   1       4.073  90.731 118.468  0.00  0.00    -0.311 N 
ATOM     14  C   LIG d   1       3.738  92.017 118.388  0.00  0.00     0.210 C 
ATOM     15  C   LIG d   1       3.701  92.761 119.726  0.00  0.00     0.109 C 
ATOM     16  O   LIG d   1       3.436  92.605 117.338  0.00  0.00    -0.276 OA
ATOM     17  H   LIG d   1       4.271  90.328 119.364  0.00  0.00     0.149 HD
ENDBRANCH   6  13
BRANCH   5  18
ATOM     18  N   LIG d   1       6.646  90.221 116.902  0.00  0.00     0.381 N 
ATOM     19  H   LIG d   1       7.046  91.137 116.938  0.00  0.00    -0.090 HD
ATOM     20  H   LIG d   1       7.228  89.646 116.319  0.00  0.00    -0.090 HD
ATOM     21  H   LIG d   1       6.597  89.835 117.819  0.00  0.00    -0.090 HD
ENDBRANCH   5  18
BRANCH   3  22
ATOM     22  C   LIG d   1       3.941  89.019 113.137  0.00  0.00     0.382 C 
ATOM     23  O   LIG d   1       4.975  88.711 112.495  0.00  0.00    -0.241 OA
ATOM     24  O   LIG d   1       2.862  89.161 112.530  0.00  0.00    -0.241 OA
ENDBRANCH   3  22
TORSDOF 7
ENDMDL
MODEL 8
REMARK VINA RESULT:      -4.0      1.771      4.866
REMARK  7 active torsions:
REMARK  status: ('A' for Active; 'I' for Inactive)
REMARK    1  A    between atoms: C_2  and  C_3 
REMARK    2  A    between atoms: C_3  and  O_6 
REMARK    3  A    between atoms: C_3  and  C_4 
REMARK    4  A    between atoms: C_7  and  O_6 
REMARK    5  A    between atoms: C_9  and  C_10 
REMARK    6  A    between atoms: N_15  and  C_14 
REMARK    7  A    between atoms: N_20  and  C_19 
REMARK       I    between atoms: C_22  and  N_20 
ROOT
ATOM      1  C   LIG d   1      -0.348  89.895 118.690  0.00  0.00     0.161 C 
ATOM      2  C   LIG d   1      -1.744  89.769 118.594  0.00  0.00     0.016 C 
ATOM      3  C   LIG d   1      -2.622  90.874 118.511  0.00  0.00     0.038 C 
ATOM      4  C   LIG d   1      -2.149  92.187 118.365  0.00  0.00     0.028 C 
ATOM      5  C   LIG d   1      -0.763  92.402 118.964  0.00  0.00    -0.047 C 
ATOM      6  C   LIG d   1       0.193  91.315 118.421  0.00  0.00     0.091 C 
ENDROOT
BRANCH   1   7
ATOM      7  O   LIG d   1       0.291  88.942 117.818  0.00  0.00    -0.368 OA
BRANCH   7   8
ATOM      8  C   LIG d   1       0.758  87.721 118.441  0.00  0.00     0.119 C 
BRANCH   8   9
ATOM      9  C   LIG d   1       2.297  87.723 118.367  0.00  0.00     0.028 C 
ATOM     10  C   LIG d   1       2.818  88.196 116.999  0.00  0.00     0.006 C 
ENDBRANCH   8   9
BRANCH   8  11
ATOM     11  C   LIG d   1       0.316  86.487 117.650  0.00  0.00     0.028 C 
ATOM     12  C   LIG d   1      -0.685  86.822 116.533  0.00  0.00     0.006 C 
ENDBRANCH   8  11
ENDBRANCH   7   8
ENDBRANCH   1   7
BRANCH   6  13
ATOM     13  N   LIG d   1       1.549  91.402 119.022  0.00  0.00    -0.311 N 
ATOM     14  C   LIG d   1       2.652  91.635 118.312  0.00  0.00     0.210 C 
ATOM     15  C   LIG d   1       3.950  91.665 119.125  0.00  0.00     0.109 C 
ATOM     16  O   LIG d   1       2.675  91.852 117.091  0.00  0.00    -0.276 OA
ATOM     17  H   LIG d   1       1.619  91.269 120.012  0.00  0.00     0.149 HD
ENDBRANCH   6  13
BRANCH   5  18
ATOM     18  N   LIG d   1      -0.337  93.771 118.621  0.00  0.00     0.381 N 
ATOM     19  H   LIG d   1      -0.088  94.268 119.453  0.00  0.00    -0.090 HD
ATOM     20  H   LIG d   1      -1.105  94.251 118.185  0.00  0.00    -0.090 HD
ATOM     21  H   LIG d   1       0.441  93.741 117.999  0.00  0.00    -0.090 HD
ENDBRANCH   5  18
BRANCH   3  22
ATOM     22  C   LIG d   1      -3.990  90.674 118.614  0.00  0.00     0.382 C 
ATOM     23  O   LIG d   1      -4.506  89.627 118.154  0.00  0.00    -0.241 OA
ATOM     24  O   LIG d   1      -4.720  91.547 119.120  0.00  0.00    -0.241 OA
ENDBRANCH   3  22
TORSDOF 7
ENDMDL
MODEL 9
REMARK VINA RESULT:      -4.0      2.974      5.600
REMARK  7 active torsions:
REMARK  status: ('A' for Active; 'I' for Inactive)
REMARK    1  A    between atoms: C_2  and  C_3 
REMARK    2  A    between atoms: C_3  and  O_6 
REMARK    3  A    between atoms: C_3  and  C_4 
REMARK    4  A    between atoms: C_7  and  O_6 
REMARK    5  A    between atoms: C_9  and  C_10 
REMARK    6  A    between atoms: N_15  and  C_14 
REMARK    7  A    between atoms: N_20  and  C_19 
REMARK       I    between atoms: C_22  and  N_20 
ROOT
ATOM      1  C   LIG d   1       2.030  89.273 117.740  0.00  0.00     0.161 C 
ATOM      2  C   LIG d   1       0.863  88.589 117.361  0.00  0.00     0.016 C 
ATOM      3  C   LIG d   1      -0.392  89.220 117.199  0.00  0.00     0.038 C 
ATOM      4  C   LIG d   1      -0.533  90.615 117.258  0.00  0.00     0.028 C 
ATOM      5  C   LIG d   1       0.515  91.293 118.134  0.00  0.00    -0.047 C 
ATOM      6  C   LIG d   1       1.919  90.811 117.701  0.00  0.00     0.091 C 
ENDROOT
BRANCH   1   7
ATOM      7  O   LIG d   1       3.140  88.830 116.935  0.00  0.00    -0.368 OA
BRANCH   7   8
ATOM      8  C   LIG d   1       3.143  89.273 115.555  0.00  0.00     0.119 C 
BRANCH   8   9
ATOM      9  C   LIG d   1       3.189  88.016 114.665  0.00  0.00     0.028 C 
ATOM     10  C   LIG d   1       3.572  86.752 115.453  0.00  0.00     0.006 C 
ENDBRANCH   8   9
BRANCH   8  11
ATOM     11  C   LIG d   1       4.419  90.052 115.224  0.00  0.00     0.028 C 
ATOM     12  C   LIG d   1       5.494  89.928 116.315  0.00  0.00     0.006 C 
ENDBRANCH   8  11
ENDBRANCH   7   8
ENDBRANCH   1   7
BRANCH   6  13
ATOM     13  N   LIG d   1       2.998  91.362 118.563  0.00  0.00    -0.311 N 
ATOM     14  C   LIG d   1       3.642  92.496 118.295  0.00  0.00     0.210 C 
ATOM     15  C   LIG d   1       4.734  92.873 119.302  0.00  0.00     0.109 C 
ATOM     16  O   LIG d   1       3.392  93.243 117.337  0.00  0.00    -0.276 OA
ATOM     17  H   LIG d   1       3.243  90.836 119.378  0.00  0.00     0.149 HD
ENDBRANCH   6  13
BRANCH   5  18
ATOM     18  N   LIG d   1       0.336  92.750 117.996  0.00  0.00     0.381 N 
ATOM     19  H   LIG d   1       0.067  93.143 118.876  0.00  0.00    -0.090 HD
ATOM     20  H   LIG d   1      -0.399  92.926 117.334  0.00  0.00    -0.090 HD
ATOM     21  H   LIG d   1       1.184  93.170 117.682  0.00  0.00    -0.090 HD
ENDBRANCH   5  18
BRANCH   3  22
ATOM     22  C   LIG d   1      -1.530  88.451 117.013  0.00  0.00     0.382 C 
ATOM     23  O   LIG d   1      -1.428  87.269 116.603  0.00  0.00    -0.241 OA
ATOM     24  O   LIG d   1      -2.660  88.937 117.207  0.00  0.00    -0.241 OA
ENDBRANCH   3  22
TORSDOF 7
ENDMDL
