MODEL 1
REMARK VINA RESULT:      -4.5      0.000      0.000
REMARK  7 active torsions:
REMARK  status: ('A' for Active; 'I' for Inactive)
REMARK    1  A    between atoms: C_2  and  C_3 
REMARK    2  A    between atoms: C_3  and  O_6 
REMARK    3  A    between atoms: C_3  and  C_4 
REMARK    4  A    between atoms: C_7  and  O_6 
REMARK    5  A    between atoms: C_9  and  C_10 
REMARK    6  A    between atoms: N_15  and  C_14 
REMARK    7  A    between atoms: N_20  and  C_19 
REMARK       I    between atoms: C_22  and  N_20 
ROOT
ATOM      1  C   LIG d   1       3.093  88.982 115.794  0.00  0.00     0.161 C 
ATOM      2  C   LIG d   1       2.170  88.077 115.244  0.00  0.00     0.016 C 
ATOM      3  C   LIG d   1       0.882  87.854 115.784  0.00  0.00     0.038 C 
ATOM      4  C   LIG d   1       0.371  88.638 116.829  0.00  0.00     0.028 C 
ATOM      5  C   LIG d   1       1.451  89.214 117.738  0.00  0.00    -0.047 C 
ATOM      6  C   LIG d   1       2.512  89.925 116.868  0.00  0.00     0.091 C 
ENDROOT
BRANCH   1   7
ATOM      7  O   LIG d   1       3.717  89.744 114.742  0.00  0.00    -0.368 OA
BRANCH   7   8
ATOM      8  C   LIG d   1       5.152  89.593 114.610  0.00  0.00     0.119 C 
BRANCH   8   9
ATOM      9  C   LIG d   1       5.453  89.306 113.127  0.00  0.00     0.028 C 
ATOM     10  C   LIG d   1       5.149  87.849 112.737  0.00  0.00     0.006 C 
ENDBRANCH   8   9
BRANCH   8  11
ATOM     11  C   LIG d   1       5.655  88.363 115.372  0.00  0.00     0.028 C 
ATOM     12  C   LIG d   1       6.650  88.718 116.488  0.00  0.00     0.006 C 
ENDBRANCH   8  11
ENDBRANCH   7   8
ENDBRANCH   1   7
BRANCH   6  13
ATOM     13  N   LIG d   1       3.649  90.445 117.672  0.00  0.00    -0.311 N 
ATOM     14  C   LIG d   1       4.192  91.647 117.483  0.00  0.00     0.210 C 
ATOM     15  C   LIG d   1       5.367  91.978 118.408  0.00  0.00     0.109 C 
ATOM     16  O   LIG d   1       3.790  92.483 116.660  0.00  0.00    -0.276 OA
ATOM     17  H   LIG d   1       4.017  89.845 118.384  0.00  0.00     0.149 HD
ENDBRANCH   6  13
BRANCH   5  18
ATOM     18  N   LIG d   1       0.790  90.118 118.698  0.00  0.00     0.381 N 
ATOM     19  H   LIG d   1       0.914  89.773 119.629  0.00  0.00    -0.090 HD
ATOM     20  H   LIG d   1      -0.195  90.140 118.499  0.00  0.00    -0.090 HD
ATOM     21  H   LIG d   1       1.172  91.035 118.622  0.00  0.00    -0.090 HD
ENDBRANCH   5  18
BRANCH   3  22
ATOM     22  C   LIG d   1       0.106  86.811 115.302  0.00  0.00     0.382 C 
ATOM     23  O   LIG d   1       0.557  86.055 114.408  0.00  0.00    -0.241 OA
ATOM     24  O   LIG d   1      -1.056  86.644 115.718  0.00  0.00    -0.241 OA
ENDBRANCH   3  22
TORSDOF 7
ENDMDL
MODEL 2
REMARK VINA RESULT:      -4.4      2.709      3.960
REMARK  7 active torsions:
REMARK  status: ('A' for Active; 'I' for Inactive)
REMARK    1  A    between atoms: C_2  and  C_3 
REMARK    2  A    between atoms: C_3  and  O_6 
REMARK    3  A    between atoms: C_3  and  C_4 
REMARK    4  A    between atoms: C_7  and  O_6 
REMARK    5  A    between atoms: C_9  and  C_10 
REMARK    6  A    between atoms: N_15  and  C_14 
REMARK    7  A    between atoms: N_20  and  C_19 
REMARK       I    between atoms: C_22  and  N_20 
ROOT
ATOM      1  C   LIG d   1       1.137  90.016 117.865  0.00  0.00     0.161 C 
ATOM      2  C   LIG d   1      -0.250  89.850 118.015  0.00  0.00     0.016 C 
ATOM      3  C   LIG d   1      -1.097  90.840 118.563  0.00  0.00     0.038 C 
ATOM      4  C   LIG d   1      -0.634  92.130 118.863  0.00  0.00     0.028 C 
ATOM      5  C   LIG d   1       0.853  92.176 119.200  0.00  0.00    -0.047 C 
ATOM      6  C   LIG d   1       1.643  91.457 118.083  0.00  0.00     0.091 C 
ENDROOT
BRANCH   1   7
ATOM      7  O   LIG d   1       1.550  89.530 116.573  0.00  0.00    -0.368 OA
BRANCH   7   8
ATOM      8  C   LIG d   1       2.239  88.255 116.562  0.00  0.00     0.119 C 
BRANCH   8   9
ATOM      9  C   LIG d   1       3.685  88.515 116.097  0.00  0.00     0.028 C 
ATOM     10  C   LIG d   1       3.750  89.439 114.869  0.00  0.00     0.006 C 
ENDBRANCH   8   9
BRANCH   8  11
ATOM     11  C   LIG d   1       1.642  87.307 115.518  0.00  0.00     0.028 C 
ATOM     12  C   LIG d   1       0.250  86.789 115.912  0.00  0.00     0.006 C 
ENDBRANCH   8  11
ENDBRANCH   7   8
ENDBRANCH   1   7
BRANCH   6  13
ATOM     13  N   LIG d   1       3.098  91.383 118.376  0.00  0.00    -0.311 N 
ATOM     14  C   LIG d   1       4.033  91.915 117.589  0.00  0.00     0.210 C 
ATOM     15  C   LIG d   1       5.474  91.707 118.065  0.00  0.00     0.109 C 
ATOM     16  O   LIG d   1       3.803  92.566 116.559  0.00  0.00    -0.276 OA
ATOM     17  H   LIG d   1       3.372  90.899 119.209  0.00  0.00     0.149 HD
ENDBRANCH   6  13
BRANCH   5  18
ATOM     18  N   LIG d   1       1.231  93.594 119.355  0.00  0.00     0.381 N 
ATOM     19  H   LIG d   1       1.638  93.739 120.257  0.00  0.00    -0.090 HD
ATOM     20  H   LIG d   1       0.403  94.160 119.288  0.00  0.00    -0.090 HD
ATOM     21  H   LIG d   1       1.879  93.854 118.644  0.00  0.00    -0.090 HD
ENDBRANCH   5  18
BRANCH   3  22
ATOM     22  C   LIG d   1      -2.417  90.531 118.855  0.00  0.00     0.382 C 
ATOM     23  O   LIG d   1      -3.042  89.713 118.139  0.00  0.00    -0.241 OA
ATOM     24  O   LIG d   1      -3.004  91.092 119.800  0.00  0.00    -0.241 OA
ENDBRANCH   3  22
TORSDOF 7
ENDMDL
MODEL 3
REMARK VINA RESULT:      -4.3      2.921      4.285
REMARK  7 active torsions:
REMARK  status: ('A' for Active; 'I' for Inactive)
REMARK    1  A    between atoms: C_2  and  C_3 
REMARK    2  A    between atoms: C_3  and  O_6 
REMARK    3  A    between atoms: C_3  and  C_4 
REMARK    4  A    between atoms: C_7  and  O_6 
REMARK    5  A    between atoms: C_9  and  C_10 
REMARK    6  A    between atoms: N_15  and  C_14 
REMARK    7  A    between atoms: N_20  and  C_19 
REMARK       I    between atoms: C_22  and  N_20 
ROOT
ATOM      1  C   LIG d   1       1.154  90.287 118.102  0.00  0.00     0.161 C 
ATOM      2  C   LIG d   1      -0.225  90.051 118.221  0.00  0.00     0.016 C 
ATOM      3  C   LIG d   1      -1.142  91.017 118.696  0.00  0.00     0.038 C 
ATOM      4  C   LIG d   1      -0.759  92.344 118.944  0.00  0.00     0.028 C 
ATOM      5  C   LIG d   1       0.712  92.490 119.319  0.00  0.00    -0.047 C 
ATOM      6  C   LIG d   1       1.574  91.763 118.261  0.00  0.00     0.091 C 
ENDROOT
BRANCH   1   7
ATOM      7  O   LIG d   1       1.633  89.763 116.847  0.00  0.00    -0.368 OA
BRANCH   7   8
ATOM      8  C   LIG d   1       1.151  88.446 116.482  0.00  0.00     0.119 C 
BRANCH   8   9
ATOM      9  C   LIG d   1       2.001  87.413 117.247  0.00  0.00     0.028 C 
ATOM     10  C   LIG d   1       1.346  86.022 117.279  0.00  0.00     0.006 C 
ENDBRANCH   8   9
BRANCH   8  11
ATOM     11  C   LIG d   1       1.398  88.155 114.998  0.00  0.00     0.028 C 
ATOM     12  C   LIG d   1       2.664  88.840 114.459  0.00  0.00     0.006 C 
ENDBRANCH   8  11
ENDBRANCH   7   8
ENDBRANCH   1   7
BRANCH   6  13
ATOM     13  N   LIG d   1       3.021  91.786 118.597  0.00  0.00    -0.311 N 
ATOM     14  C   LIG d   1       3.968  92.157 117.737  0.00  0.00     0.210 C 
ATOM     15  C   LIG d   1       5.399  92.088 118.280  0.00  0.00     0.109 C 
ATOM     16  O   LIG d   1       3.756  92.568 116.586  0.00  0.00    -0.276 OA
ATOM     17  H   LIG d   1       3.280  91.497 119.520  0.00  0.00     0.149 HD
ENDBRANCH   6  13
BRANCH   5  18
ATOM     18  N   LIG d   1       1.007  93.932 119.413  0.00  0.00     0.381 N 
ATOM     19  H   LIG d   1       1.347  94.267 118.533  0.00  0.00    -0.090 HD
ATOM     20  H   LIG d   1       1.724  94.073 120.103  0.00  0.00    -0.090 HD
ATOM     21  H   LIG d   1       0.184  94.432 119.671  0.00  0.00    -0.090 HD
ENDBRANCH   5  18
BRANCH   3  22
ATOM     22  C   LIG d   1      -2.451  90.648 118.967  0.00  0.00     0.382 C 
ATOM     23  O   LIG d   1      -3.011  89.767 118.271  0.00  0.00    -0.241 OA
ATOM     24  O   LIG d   1      -3.093  91.216 119.871  0.00  0.00    -0.241 OA
ENDBRANCH   3  22
TORSDOF 7
ENDMDL
MODEL 4
REMARK VINA RESULT:      -4.1      2.690      5.980
REMARK  7 active torsions:
REMARK  status: ('A' for Active; 'I' for Inactive)
REMARK    1  A    between atoms: C_2  and  C_3 
REMARK    2  A    between atoms: C_3  and  O_6 
REMARK    3  A    between atoms: C_3  and  C_4 
REMARK    4  A    between atoms: C_7  and  O_6 
REMARK    5  A    between atoms: C_9  and  C_10 
REMARK    6  A    between atoms: N_15  and  C_14 
REMARK    7  A    between atoms: N_20  and  C_19 
REMARK       I    between atoms: C_22  and  N_20 
ROOT
ATOM      1  C   LIG d   1       3.200  89.421 117.026  0.00  0.00     0.161 C 
ATOM      2  C   LIG d   1       4.034  89.649 118.134  0.00  0.00     0.016 C 
ATOM      3  C   LIG d   1       5.443  89.723 118.045  0.00  0.00     0.038 C 
ATOM      4  C   LIG d   1       6.109  89.722 116.811  0.00  0.00     0.028 C 
ATOM      5  C   LIG d   1       5.348  88.988 115.712  0.00  0.00    -0.047 C 
ATOM      6  C   LIG d   1       3.901  89.529 115.656  0.00  0.00     0.091 C 
ENDROOT
BRANCH   1   7
ATOM      7  O   LIG d   1       2.064  90.306 117.079  0.00  0.00    -0.368 OA
BRANCH   7   8
ATOM      8  C   LIG d   1       1.014  89.940 118.008  0.00  0.00     0.119 C 
BRANCH   8   9
ATOM      9  C   LIG d   1      -0.299  89.843 117.208  0.00  0.00     0.028 C 
ATOM     10  C   LIG d   1      -0.277  88.698 116.181  0.00  0.00     0.006 C 
ENDBRANCH   8   9
BRANCH   8  11
ATOM     11  C   LIG d   1       0.777  91.044 119.043  0.00  0.00     0.028 C 
ATOM     12  C   LIG d   1       0.803  92.453 118.429  0.00  0.00     0.006 C 
ENDBRANCH   8  11
ENDBRANCH   7   8
ENDBRANCH   1   7
BRANCH   6  13
ATOM     13  N   LIG d   1       3.064  88.805 114.664  0.00  0.00    -0.311 N 
ATOM     14  C   LIG d   1       2.947  89.179 113.391  0.00  0.00     0.210 C 
ATOM     15  C   LIG d   1       2.017  88.306 112.543  0.00  0.00     0.109 C 
ATOM     16  O   LIG d   1       3.551  90.132 112.876  0.00  0.00    -0.276 OA
ATOM     17  H   LIG d   1       2.563  88.001 114.989  0.00  0.00     0.149 HD
ENDBRANCH   6  13
BRANCH   5  18
ATOM     18  N   LIG d   1       6.088  89.183 114.451  0.00  0.00     0.381 N 
ATOM     19  H   LIG d   1       5.518  88.903 113.677  0.00  0.00    -0.090 HD
ATOM     20  H   LIG d   1       6.910  88.606 114.463  0.00  0.00    -0.090 HD
ATOM     21  H   LIG d   1       6.346  90.140 114.352  0.00  0.00    -0.090 HD
ENDBRANCH   5  18
BRANCH   3  22
ATOM     22  C   LIG d   1       6.203  89.757 119.204  0.00  0.00     0.382 C 
ATOM     23  O   LIG d   1       6.330  88.722 119.902  0.00  0.00    -0.241 OA
ATOM     24  O   LIG d   1       6.728  90.821 119.584  0.00  0.00    -0.241 OA
ENDBRANCH   3  22
TORSDOF 7
ENDMDL
MODEL 5
REMARK VINA RESULT:      -4.0      1.894      2.887
REMARK  7 active torsions:
REMARK  status: ('A' for Active; 'I' for Inactive)
REMARK    1  A    between atoms: C_2  and  C_3 
REMARK    2  A    between atoms: C_3  and  O_6 
REMARK    3  A    between atoms: C_3  and  C_4 
REMARK    4  A    between atoms: C_7  and  O_6 
REMARK    5  A    between atoms: C_9  and  C_10 
REMARK    6  A    between atoms: N_15  and  C_14 
REMARK    7  A    between atoms: N_20  and  C_19 
REMARK       I    between atoms: C_22  and  N_20 
ROOT
ATOM      1  C   LIG d   1       2.356  88.630 115.355  0.00  0.00     0.161 C 
ATOM      2  C   LIG d   1       0.975  88.839 115.505  0.00  0.00     0.016 C 
ATOM      3  C   LIG d   1       0.379  89.258 116.717  0.00  0.00     0.038 C 
ATOM      4  C   LIG d   1       1.146  89.644 117.826  0.00  0.00     0.028 C 
ATOM      5  C   LIG d   1       2.511  88.968 117.884  0.00  0.00    -0.047 C 
ATOM      6  C   LIG d   1       3.220  89.152 116.522  0.00  0.00     0.091 C 
ENDROOT
BRANCH   1   7
ATOM      7  O   LIG d   1       2.804  89.196 114.108  0.00  0.00    -0.368 OA
BRANCH   7   8
ATOM      8  C   LIG d   1       3.146  88.250 113.065  0.00  0.00     0.119 C 
BRANCH   8   9
ATOM      9  C   LIG d   1       2.662  86.861 113.523  0.00  0.00     0.028 C 
ATOM     10  C   LIG d   1       1.632  86.250 112.558  0.00  0.00     0.006 C 
ENDBRANCH   8   9
BRANCH   8  11
ATOM     11  C   LIG d   1       4.664  88.120 112.907  0.00  0.00     0.028 C 
ATOM     12  C   LIG d   1       5.403  89.448 113.131  0.00  0.00     0.006 C 
ENDBRANCH   8  11
ENDBRANCH   7   8
ENDBRANCH   1   7
BRANCH   6  13
ATOM     13  N   LIG d   1       4.528  88.449 116.464  0.00  0.00    -0.311 N 
ATOM     14  C   LIG d   1       5.694  89.048 116.698  0.00  0.00     0.210 C 
ATOM     15  C   LIG d   1       6.924  88.144 116.566  0.00  0.00     0.109 C 
ATOM     16  O   LIG d   1       5.824  90.235 117.034  0.00  0.00    -0.276 OA
ATOM     17  H   LIG d   1       4.512  87.475 116.229  0.00  0.00     0.149 HD
ENDBRANCH   6  13
BRANCH   5  18
ATOM     18  N   LIG d   1       3.256  89.563 119.009  0.00  0.00     0.381 N 
ATOM     19  H   LIG d   1       3.803  88.859 119.463  0.00  0.00    -0.090 HD
ATOM     20  H   LIG d   1       2.600  89.931 119.675  0.00  0.00    -0.090 HD
ATOM     21  H   LIG d   1       3.850  90.292 118.678  0.00  0.00    -0.090 HD
ENDBRANCH   5  18
BRANCH   3  22
ATOM     22  C   LIG d   1      -1.002  89.256 116.839  0.00  0.00     0.382 C 
ATOM     23  O   LIG d   1      -1.560  90.020 117.664  0.00  0.00    -0.241 OA
ATOM     24  O   LIG d   1      -1.695  88.468 116.168  0.00  0.00    -0.241 OA
ENDBRANCH   3  22
TORSDOF 7
ENDMDL
MODEL 6
REMARK VINA RESULT:      -3.8      1.906      4.773
REMARK  7 active torsions:
REMARK  status: ('A' for Active; 'I' for Inactive)
REMARK    1  A    between atoms: C_2  and  C_3 
REMARK    2  A    between atoms: C_3  and  O_6 
REMARK    3  A    between atoms: C_3  and  C_4 
REMARK    4  A    between atoms: C_7  and  O_6 
REMARK    5  A    between atoms: C_9  and  C_10 
REMARK    6  A    between atoms: N_15  and  C_14 
REMARK    7  A    between atoms: N_20  and  C_19 
REMARK       I    between atoms: C_22  and  N_20 
ROOT
ATOM      1  C   LIG d   1       3.202  88.394 115.581  0.00  0.00     0.161 C 
ATOM      2  C   LIG d   1       3.853  89.622 115.789  0.00  0.00     0.016 C 
ATOM      3  C   LIG d   1       3.911  90.269 117.045  0.00  0.00     0.038 C 
ATOM      4  C   LIG d   1       3.449  89.653 118.218  0.00  0.00     0.028 C 
ATOM      5  C   LIG d   1       2.336  88.640 117.972  0.00  0.00    -0.047 C 
ATOM      6  C   LIG d   1       2.788  87.655 116.870  0.00  0.00     0.091 C 
ENDROOT
BRANCH   1   7
ATOM      7  O   LIG d   1       4.019  87.542 114.755  0.00  0.00    -0.368 OA
BRANCH   7   8
ATOM      8  C   LIG d   1       3.649  87.464 113.356  0.00  0.00     0.119 C 
BRANCH   8   9
ATOM      9  C   LIG d   1       3.012  86.080 113.122  0.00  0.00     0.028 C 
ATOM     10  C   LIG d   1       1.627  86.177 112.461  0.00  0.00     0.006 C 
ENDBRANCH   8   9
BRANCH   8  11
ATOM     11  C   LIG d   1       4.883  87.501 112.450  0.00  0.00     0.028 C 
ATOM     12  C   LIG d   1       5.946  88.500 112.932  0.00  0.00     0.006 C 
ENDBRANCH   8  11
ENDBRANCH   7   8
ENDBRANCH   1   7
BRANCH   6  13
ATOM     13  N   LIG d   1       1.725  86.681 116.509  0.00  0.00    -0.311 N 
ATOM     14  C   LIG d   1       0.585  87.028 115.913  0.00  0.00     0.210 C 
ATOM     15  C   LIG d   1      -0.383  85.871 115.648  0.00  0.00     0.109 C 
ATOM     16  O   LIG d   1       0.298  88.178 115.550  0.00  0.00    -0.276 OA
ATOM     17  H   LIG d   1       1.889  85.721 116.740  0.00  0.00     0.149 HD
ENDBRANCH   6  13
BRANCH   5  18
ATOM     18  N   LIG d   1       2.045  87.977 119.257  0.00  0.00     0.381 N 
ATOM     19  H   LIG d   1       1.358  88.501 119.761  0.00  0.00    -0.090 HD
ATOM     20  H   LIG d   1       2.886  87.950 119.807  0.00  0.00    -0.090 HD
ATOM     21  H   LIG d   1       1.715  87.051 119.096  0.00  0.00    -0.090 HD
ENDBRANCH   5  18
BRANCH   3  22
ATOM     22  C   LIG d   1       4.401  91.563 117.129  0.00  0.00     0.382 C 
ATOM     23  O   LIG d   1       3.839  92.489 116.495  0.00  0.00    -0.241 OA
ATOM     24  O   LIG d   1       5.424  91.809 117.795  0.00  0.00    -0.241 OA
ENDBRANCH   3  22
TORSDOF 7
ENDMDL
MODEL 7
REMARK VINA RESULT:      -3.8      2.330      4.531
REMARK  7 active torsions:
REMARK  status: ('A' for Active; 'I' for Inactive)
REMARK    1  A    between atoms: C_2  and  C_3 
REMARK    2  A    between atoms: C_3  and  O_6 
REMARK    3  A    between atoms: C_3  and  C_4 
REMARK    4  A    between atoms: C_7  and  O_6 
REMARK    5  A    between atoms: C_9  and  C_10 
REMARK    6  A    between atoms: N_15  and  C_14 
REMARK    7  A    between atoms: N_20  and  C_19 
REMARK       I    between atoms: C_22  and  N_20 
ROOT
ATOM      1  C   LIG d   1       3.989  89.950 116.053  0.00  0.00     0.161 C 
ATOM      2  C   LIG d   1       4.991  88.994 115.817  0.00  0.00     0.016 C 
ATOM      3  C   LIG d   1       5.842  88.493 116.828  0.00  0.00     0.038 C 
ATOM      4  C   LIG d   1       5.648  88.803 118.182  0.00  0.00     0.028 C 
ATOM      5  C   LIG d   1       4.972  90.152 118.403  0.00  0.00    -0.047 C 
ATOM      6  C   LIG d   1       3.689  90.217 117.543  0.00  0.00     0.091 C 
ENDROOT
BRANCH   1   7
ATOM      7  O   LIG d   1       2.783  89.576 115.359  0.00  0.00    -0.368 OA
BRANCH   7   8
ATOM      8  C   LIG d   1       2.471  88.161 115.340  0.00  0.00     0.119 C 
BRANCH   8   9
ATOM      9  C   LIG d   1       1.933  87.824 113.936  0.00  0.00     0.028 C 
ATOM     10  C   LIG d   1       2.073  89.001 112.956  0.00  0.00     0.006 C 
ENDBRANCH   8   9
BRANCH   8  11
ATOM     11  C   LIG d   1       1.327  87.830 116.303  0.00  0.00     0.028 C 
ATOM     12  C   LIG d   1       0.314  88.977 116.442  0.00  0.00     0.006 C 
ENDBRANCH   8  11
ENDBRANCH   7   8
ENDBRANCH   1   7
BRANCH   6  13
ATOM     13  N   LIG d   1       3.012  91.537 117.636  0.00  0.00    -0.311 N 
ATOM     14  C   LIG d   1       2.010  91.789 118.477  0.00  0.00     0.210 C 
ATOM     15  C   LIG d   1       1.440  93.209 118.396  0.00  0.00     0.109 C 
ATOM     16  O   LIG d   1       1.560  90.981 119.304  0.00  0.00    -0.276 OA
ATOM     17  H   LIG d   1       3.334  92.259 117.022  0.00  0.00     0.149 HD
ENDBRANCH   6  13
BRANCH   5  18
ATOM     18  N   LIG d   1       4.707  90.286 119.848  0.00  0.00     0.381 N 
ATOM     19  H   LIG d   1       3.874  90.821 119.991  0.00  0.00    -0.090 HD
ATOM     20  H   LIG d   1       5.473  90.776 120.275  0.00  0.00    -0.090 HD
ATOM     21  H   LIG d   1       4.607  89.385 120.262  0.00  0.00    -0.090 HD
ENDBRANCH   5  18
BRANCH   3  22
ATOM     22  C   LIG d   1       6.927  87.701 116.483  0.00  0.00     0.382 C 
ATOM     23  O   LIG d   1       8.092  88.160 116.572  0.00  0.00    -0.241 OA
ATOM     24  O   LIG d   1       6.754  86.550 116.040  0.00  0.00    -0.241 OA
ENDBRANCH   3  22
TORSDOF 7
ENDMDL
MODEL 8
REMARK VINA RESULT:      -3.7      2.464      6.215
REMARK  7 active torsions:
REMARK  status: ('A' for Active; 'I' for Inactive)
REMARK    1  A    between atoms: C_2  and  C_3 
REMARK    2  A    between atoms: C_3  and  O_6 
REMARK    3  A    between atoms: C_3  and  C_4 
REMARK    4  A    between atoms: C_7  and  O_6 
REMARK    5  A    between atoms: C_9  and  C_10 
REMARK    6  A    between atoms: N_15  and  C_14 
REMARK    7  A    between atoms: N_20  and  C_19 
REMARK       I    between atoms: C_22  and  N_20 
ROOT
ATOM      1  C   LIG d   1       2.885  88.507 117.163  0.00  0.00     0.161 C 
ATOM      2  C   LIG d   1       3.652  89.413 117.916  0.00  0.00     0.016 C 
ATOM      3  C   LIG d   1       4.553  90.337 117.339  0.00  0.00     0.038 C 
ATOM      4  C   LIG d   1       4.637  90.522 115.951  0.00  0.00     0.028 C 
ATOM      5  C   LIG d   1       4.254  89.283 115.150  0.00  0.00    -0.047 C 
ATOM      6  C   LIG d   1       2.882  88.771 115.643  0.00  0.00     0.091 C 
ENDROOT
BRANCH   1   7
ATOM      7  O   LIG d   1       1.536  88.471 117.669  0.00  0.00    -0.368 OA
BRANCH   7   8
ATOM      8  C   LIG d   1       0.695  89.598 117.321  0.00  0.00     0.119 C 
BRANCH   8   9
ATOM      9  C   LIG d   1       0.292  90.298 118.633  0.00  0.00     0.028 C 
ATOM     10  C   LIG d   1       0.956  91.676 118.790  0.00  0.00     0.006 C 
ENDBRANCH   8   9
BRANCH   8  11
ATOM     11  C   LIG d   1      -0.621  89.135 116.688  0.00  0.00     0.028 C 
ATOM     12  C   LIG d   1      -1.857  89.723 117.387  0.00  0.00     0.006 C 
ENDBRANCH   8  11
ENDBRANCH   7   8
ENDBRANCH   1   7
BRANCH   6  13
ATOM     13  N   LIG d   1       2.471  87.511 114.969  0.00  0.00    -0.311 N 
ATOM     14  C   LIG d   1       1.677  87.477 113.900  0.00  0.00     0.210 C 
ATOM     15  C   LIG d   1       1.361  86.073 113.374  0.00  0.00     0.109 C 
ATOM     16  O   LIG d   1       1.230  88.477 113.319  0.00  0.00    -0.276 OA
ATOM     17  H   LIG d   1       2.813  86.654 115.357  0.00  0.00     0.149 HD
ENDBRANCH   6  13
BRANCH   5  18
ATOM     18  N   LIG d   1       4.253  89.657 113.723  0.00  0.00     0.381 N 
ATOM     19  H   LIG d   1       3.549  89.137 113.237  0.00  0.00    -0.090 HD
ATOM     20  H   LIG d   1       5.147  89.426 113.326  0.00  0.00    -0.090 HD
ATOM     21  H   LIG d   1       4.081  90.633 113.627  0.00  0.00    -0.090 HD
ENDBRANCH   5  18
BRANCH   3  22
ATOM     22  C   LIG d   1       5.411  91.060 118.153  0.00  0.00     0.382 C 
ATOM     23  O   LIG d   1       4.957  91.960 118.900  0.00  0.00    -0.241 OA
ATOM     24  O   LIG d   1       6.639  90.853 118.118  0.00  0.00    -0.241 OA
ENDBRANCH   3  22
TORSDOF 7
ENDMDL
MODEL 9
REMARK VINA RESULT:      -3.6      2.285      5.521
REMARK  7 active torsions:
REMARK  status: ('A' for Active; 'I' for Inactive)
REMARK    1  A    between atoms: C_2  and  C_3 
REMARK    2  A    between atoms: C_3  and  O_6 
REMARK    3  A    between atoms: C_3  and  C_4 
REMARK    4  A    between atoms: C_7  and  O_6 
REMARK    5  A    between atoms: C_9  and  C_10 
REMARK    6  A    between atoms: N_15  and  C_14 
REMARK    7  A    between atoms: N_20  and  C_19 
REMARK       I    between atoms: C_22  and  N_20 
ROOT
ATOM      1  C   LIG d   1       4.191  90.990 117.051  0.00  0.00     0.161 C 
ATOM      2  C   LIG d   1       5.336  91.708 117.433  0.00  0.00     0.016 C 
ATOM      3  C   LIG d   1       5.378  92.567 118.555  0.00  0.00     0.038 C 
ATOM      4  C   LIG d   1       4.313  92.650 119.465  0.00  0.00     0.028 C 
ATOM      5  C   LIG d   1       2.958  92.331 118.843  0.00  0.00    -0.047 C 
ATOM      6  C   LIG d   1       3.054  90.982 118.095  0.00  0.00     0.091 C 
ENDROOT
BRANCH   1   7
ATOM      7  O   LIG d   1       4.555  89.641 116.697  0.00  0.00    -0.368 OA
BRANCH   7   8
ATOM      8  C   LIG d   1       4.369  89.274 115.308  0.00  0.00     0.119 C 
BRANCH   8   9
ATOM      9  C   LIG d   1       3.284  88.181 115.259  0.00  0.00     0.028 C 
ATOM     10  C   LIG d   1       2.092  88.577 114.371  0.00  0.00     0.006 C 
ENDBRANCH   8   9
BRANCH   8  11
ATOM     11  C   LIG d   1       5.628  88.621 114.731  0.00  0.00     0.028 C 
ATOM     12  C   LIG d   1       5.713  88.740 113.201  0.00  0.00     0.006 C 
ENDBRANCH   8  11
ENDBRANCH   7   8
ENDBRANCH   1   7
BRANCH   6  13
ATOM     13  N   LIG d   1       1.795  90.635 117.386  0.00  0.00    -0.311 N 
ATOM     14  C   LIG d   1       0.822  89.908 117.933  0.00  0.00     0.210 C 
ATOM     15  C   LIG d   1      -0.382  89.651 117.022  0.00  0.00     0.109 C 
ATOM     16  O   LIG d   1       0.828  89.480 119.097  0.00  0.00    -0.276 OA
ATOM     17  H   LIG d   1       1.693  90.969 116.448  0.00  0.00     0.149 HD
ENDBRANCH   6  13
BRANCH   5  18
ATOM     18  N   LIG d   1       1.960  92.320 119.929  0.00  0.00     0.381 N 
ATOM     19  H   LIG d   1       1.047  92.169 119.549  0.00  0.00    -0.090 HD
ATOM     20  H   LIG d   1       1.967  93.215 120.386  0.00  0.00    -0.090 HD
ATOM     21  H   LIG d   1       2.178  91.603 120.585  0.00  0.00    -0.090 HD
ENDBRANCH   5  18
BRANCH   3  22
ATOM     22  C   LIG d   1       6.479  93.385 118.754  0.00  0.00     0.382 C 
ATOM     23  O   LIG d   1       7.612  93.019 118.357  0.00  0.00    -0.241 OA
ATOM     24  O   LIG d   1       6.363  94.465 119.364  0.00  0.00    -0.241 OA
ENDBRANCH   3  22
TORSDOF 7
ENDMDL
