MODEL 1
REMARK VINA RESULT:      -5.3      0.000      0.000
REMARK  7 active torsions:
REMARK  status: ('A' for Active; 'I' for Inactive)
REMARK    1  A    between atoms: C_2  and  C_3 
REMARK    2  A    between atoms: C_3  and  O_6 
REMARK    3  A    between atoms: C_3  and  C_4 
REMARK    4  A    between atoms: C_7  and  O_6 
REMARK    5  A    between atoms: C_9  and  C_10 
REMARK    6  A    between atoms: N_15  and  C_14 
REMARK    7  A    between atoms: N_20  and  C_19 
REMARK       I    between atoms: C_22  and  N_20 
ROOT
ATOM      1  C   LIG d   1      -6.217  93.222 117.028  0.00  0.00     0.161 C 
ATOM      2  C   LIG d   1      -7.234  92.379 116.551  0.00  0.00     0.016 C 
ATOM      3  C   LIG d   1      -7.018  91.030 116.184  0.00  0.00     0.038 C 
ATOM      4  C   LIG d   1      -5.793  90.387 116.414  0.00  0.00     0.028 C 
ATOM      5  C   LIG d   1      -4.601  91.338 116.423  0.00  0.00    -0.047 C 
ATOM      6  C   LIG d   1      -4.899  92.506 117.390  0.00  0.00     0.091 C 
ENDROOT
BRANCH   1   7
ATOM      7  O   LIG d   1      -6.700  93.982 118.153  0.00  0.00    -0.368 OA
BRANCH   7   8
ATOM      8  C   LIG d   1      -7.216  95.303 117.857  0.00  0.00     0.119 C 
BRANCH   8   9
ATOM      9  C   LIG d   1      -6.527  96.295 118.814  0.00  0.00     0.028 C 
ATOM     10  C   LIG d   1      -5.562  95.597 119.787  0.00  0.00     0.006 C 
ENDBRANCH   8   9
BRANCH   8  11
ATOM     11  C   LIG d   1      -8.711  95.402 118.177  0.00  0.00     0.028 C 
ATOM     12  C   LIG d   1      -9.138  94.468 119.320  0.00  0.00     0.006 C 
ENDBRANCH   8  11
ENDBRANCH   7   8
ENDBRANCH   1   7
BRANCH   6  13
ATOM     13  N   LIG d   1      -3.819  93.527 117.395  0.00  0.00    -0.311 N 
ATOM     14  C   LIG d   1      -2.809  93.522 118.264  0.00  0.00     0.210 C 
ATOM     15  C   LIG d   1      -1.816  94.677 118.107  0.00  0.00     0.109 C 
ATOM     16  O   LIG d   1      -2.625  92.652 119.128  0.00  0.00    -0.276 OA
ATOM     17  H   LIG d   1      -3.874  94.252 116.707  0.00  0.00     0.149 HD
ENDBRANCH   6  13
BRANCH   5  18
ATOM     18  N   LIG d   1      -3.410  90.557 116.809  0.00  0.00     0.381 N 
ATOM     19  H   LIG d   1      -3.636  89.951 117.572  0.00  0.00    -0.090 HD
ATOM     20  H   LIG d   1      -2.691  91.190 117.111  0.00  0.00    -0.090 HD
ATOM     21  H   LIG d   1      -3.088  90.021 116.034  0.00  0.00    -0.090 HD
ENDBRANCH   5  18
BRANCH   3  22
ATOM     22  C   LIG d   1      -8.023  90.323 115.543  0.00  0.00     0.382 C 
ATOM     23  O   LIG d   1      -8.553  89.336 116.108  0.00  0.00    -0.241 OA
ATOM     24  O   LIG d   1      -8.377  90.632 114.389  0.00  0.00    -0.241 OA
ENDBRANCH   3  22
TORSDOF 7
ENDMDL
MODEL 2
REMARK VINA RESULT:      -5.0      1.981      4.784
REMARK  7 active torsions:
REMARK  status: ('A' for Active; 'I' for Inactive)
REMARK    1  A    between atoms: C_2  and  C_3 
REMARK    2  A    between atoms: C_3  and  O_6 
REMARK    3  A    between atoms: C_3  and  C_4 
REMARK    4  A    between atoms: C_7  and  O_6 
REMARK    5  A    between atoms: C_9  and  C_10 
REMARK    6  A    between atoms: N_15  and  C_14 
REMARK    7  A    between atoms: N_20  and  C_19 
REMARK       I    between atoms: C_22  and  N_20 
ROOT
ATOM      1  C   LIG d   1      -5.807  93.268 117.599  0.00  0.00     0.161 C 
ATOM      2  C   LIG d   1      -7.037  93.944 117.539  0.00  0.00     0.016 C 
ATOM      3  C   LIG d   1      -7.274  95.187 118.171  0.00  0.00     0.038 C 
ATOM      4  C   LIG d   1      -6.243  95.915 118.783  0.00  0.00     0.028 C 
ATOM      5  C   LIG d   1      -5.109  95.039 119.304  0.00  0.00    -0.047 C 
ATOM      6  C   LIG d   1      -4.639  94.100 118.170  0.00  0.00     0.091 C 
ENDROOT
BRANCH   1   7
ATOM      7  O   LIG d   1      -5.467  92.755 116.296  0.00  0.00    -0.368 OA
BRANCH   7   8
ATOM      8  C   LIG d   1      -6.324  91.706 115.781  0.00  0.00     0.119 C 
BRANCH   8   9
ATOM      9  C   LIG d   1      -5.438  90.476 115.508  0.00  0.00     0.028 C 
ATOM     10  C   LIG d   1      -4.281  90.351 116.515  0.00  0.00     0.006 C 
ENDBRANCH   8   9
BRANCH   8  11
ATOM     11  C   LIG d   1      -6.916  92.089 114.421  0.00  0.00     0.028 C 
ATOM     12  C   LIG d   1      -7.686  90.934 113.760  0.00  0.00     0.006 C 
ENDBRANCH   8  11
ENDBRANCH   7   8
ENDBRANCH   1   7
BRANCH   6  13
ATOM     13  N   LIG d   1      -3.588  93.150 118.619  0.00  0.00    -0.311 N 
ATOM     14  C   LIG d   1      -2.288  93.340 118.401  0.00  0.00     0.210 C 
ATOM     15  C   LIG d   1      -1.375  92.229 118.930  0.00  0.00     0.109 C 
ATOM     16  O   LIG d   1      -1.801  94.338 117.849  0.00  0.00    -0.276 OA
ATOM     17  H   LIG d   1      -3.892  92.328 119.103  0.00  0.00     0.149 HD
ENDBRANCH   6  13
BRANCH   5  18
ATOM     18  N   LIG d   1      -4.043  95.934 119.792  0.00  0.00     0.381 N 
ATOM     19  H   LIG d   1      -4.310  96.330 120.671  0.00  0.00    -0.090 HD
ATOM     20  H   LIG d   1      -3.919  96.682 119.133  0.00  0.00    -0.090 HD
ATOM     21  H   LIG d   1      -3.191  95.426 119.893  0.00  0.00    -0.090 HD
ENDBRANCH   5  18
BRANCH   3  22
ATOM     22  C   LIG d   1      -8.563  95.694 118.228  0.00  0.00     0.382 C 
ATOM     23  O   LIG d   1      -8.755  96.930 118.135  0.00  0.00    -0.241 OA
ATOM     24  O   LIG d   1      -9.533  94.935 118.415  0.00  0.00    -0.241 OA
ENDBRANCH   3  22
TORSDOF 7
ENDMDL
MODEL 3
REMARK VINA RESULT:      -5.0      2.134      4.850
REMARK  7 active torsions:
REMARK  status: ('A' for Active; 'I' for Inactive)
REMARK    1  A    between atoms: C_2  and  C_3 
REMARK    2  A    between atoms: C_3  and  O_6 
REMARK    3  A    between atoms: C_3  and  C_4 
REMARK    4  A    between atoms: C_7  and  O_6 
REMARK    5  A    between atoms: C_9  and  C_10 
REMARK    6  A    between atoms: N_15  and  C_14 
REMARK    7  A    between atoms: N_20  and  C_19 
REMARK       I    between atoms: C_22  and  N_20 
ROOT
ATOM      1  C   LIG d   1      -6.520  91.519 117.983  0.00  0.00     0.161 C 
ATOM      2  C   LIG d   1      -7.313  92.647 117.720  0.00  0.00     0.016 C 
ATOM      3  C   LIG d   1      -6.865  93.975 117.909  0.00  0.00     0.038 C 
ATOM      4  C   LIG d   1      -5.532  94.268 118.233  0.00  0.00     0.028 C 
ATOM      5  C   LIG d   1      -4.833  93.149 118.998  0.00  0.00    -0.047 C 
ATOM      6  C   LIG d   1      -5.027  91.821 118.231  0.00  0.00     0.091 C 
ENDROOT
BRANCH   1   7
ATOM      7  O   LIG d   1      -6.667  90.559 116.918  0.00  0.00    -0.368 OA
BRANCH   7   8
ATOM      8  C   LIG d   1      -7.533  90.949 115.824  0.00  0.00     0.119 C 
BRANCH   8   9
ATOM      9  C   LIG d   1      -8.327  89.700 115.395  0.00  0.00     0.028 C 
ATOM     10  C   LIG d   1      -9.295  89.217 116.488  0.00  0.00     0.006 C 
ENDBRANCH   8   9
BRANCH   8  11
ATOM     11  C   LIG d   1      -6.722  91.357 114.590  0.00  0.00     0.028 C 
ATOM     12  C   LIG d   1      -7.095  92.754 114.069  0.00  0.00     0.006 C 
ENDBRANCH   8  11
ENDBRANCH   7   8
ENDBRANCH   1   7
BRANCH   6  13
ATOM     13  N   LIG d   1      -4.446  90.659 118.953  0.00  0.00    -0.311 N 
ATOM     14  C   LIG d   1      -3.646  89.763 118.378  0.00  0.00     0.210 C 
ATOM     15  C   LIG d   1      -3.175  88.633 119.298  0.00  0.00     0.109 C 
ATOM     16  O   LIG d   1      -3.257  89.815 117.202  0.00  0.00    -0.276 OA
ATOM     17  H   LIG d   1      -4.685  90.558 119.920  0.00  0.00     0.149 HD
ENDBRANCH   6  13
BRANCH   5  18
ATOM     18  N   LIG d   1      -3.416  93.529 119.148  0.00  0.00     0.381 N 
ATOM     19  H   LIG d   1      -3.241  93.818 120.090  0.00  0.00    -0.090 HD
ATOM     20  H   LIG d   1      -3.221  94.303 118.539  0.00  0.00    -0.090 HD
ATOM     21  H   LIG d   1      -2.830  92.758 118.916  0.00  0.00    -0.090 HD
ENDBRANCH   5  18
BRANCH   3  22
ATOM     22  C   LIG d   1      -7.766  95.025 117.813  0.00  0.00     0.382 C 
ATOM     23  O   LIG d   1      -8.992  94.789 117.694  0.00  0.00    -0.241 OA
ATOM     24  O   LIG d   1      -7.363  96.203 117.800  0.00  0.00    -0.241 OA
ENDBRANCH   3  22
TORSDOF 7
ENDMDL
MODEL 4
REMARK VINA RESULT:      -4.9      2.528      6.105
REMARK  7 active torsions:
REMARK  status: ('A' for Active; 'I' for Inactive)
REMARK    1  A    between atoms: C_2  and  C_3 
REMARK    2  A    between atoms: C_3  and  O_6 
REMARK    3  A    between atoms: C_3  and  C_4 
REMARK    4  A    between atoms: C_7  and  O_6 
REMARK    5  A    between atoms: C_9  and  C_10 
REMARK    6  A    between atoms: N_15  and  C_14 
REMARK    7  A    between atoms: N_20  and  C_19 
REMARK       I    between atoms: C_22  and  N_20 
ROOT
ATOM      1  C   LIG d   1      -4.860  92.549 116.950  0.00  0.00     0.161 C 
ATOM      2  C   LIG d   1      -4.293  93.436 117.880  0.00  0.00     0.016 C 
ATOM      3  C   LIG d   1      -5.016  94.483 118.497  0.00  0.00     0.038 C 
ATOM      4  C   LIG d   1      -6.403  94.620 118.339  0.00  0.00     0.028 C 
ATOM      5  C   LIG d   1      -6.920  94.058 117.018  0.00  0.00    -0.047 C 
ATOM      6  C   LIG d   1      -6.398  92.613 116.849  0.00  0.00     0.091 C 
ENDROOT
BRANCH   1   7
ATOM      7  O   LIG d   1      -4.432  91.202 117.237  0.00  0.00    -0.368 OA
BRANCH   7   8
ATOM      8  C   LIG d   1      -3.418  91.060 118.261  0.00  0.00     0.119 C 
BRANCH   8   9
ATOM      9  C   LIG d   1      -2.181  90.420 117.601  0.00  0.00     0.028 C 
ATOM     10  C   LIG d   1      -0.924  91.296 117.736  0.00  0.00     0.006 C 
ENDBRANCH   8   9
BRANCH   8  11
ATOM     11  C   LIG d   1      -3.856  90.072 119.346  0.00  0.00     0.028 C 
ATOM     12  C   LIG d   1      -3.163  88.705 119.222  0.00  0.00     0.006 C 
ENDBRANCH   8  11
ENDBRANCH   7   8
ENDBRANCH   1   7
BRANCH   6  13
ATOM     13  N   LIG d   1      -6.788  92.019 115.543  0.00  0.00    -0.311 N 
ATOM     14  C   LIG d   1      -7.506  90.903 115.431  0.00  0.00     0.210 C 
ATOM     15  C   LIG d   1      -7.781  90.453 113.993  0.00  0.00     0.109 C 
ATOM     16  O   LIG d   1      -7.970  90.261 116.386  0.00  0.00    -0.276 OA
ATOM     17  H   LIG d   1      -6.480  92.493 114.717  0.00  0.00     0.149 HD
ENDBRANCH   6  13
BRANCH   5  18
ATOM     18  N   LIG d   1      -8.393  94.142 117.045  0.00  0.00     0.381 N 
ATOM     19  H   LIG d   1      -8.758  93.477 117.697  0.00  0.00    -0.090 HD
ATOM     20  H   LIG d   1      -8.747  93.915 116.132  0.00  0.00    -0.090 HD
ATOM     21  H   LIG d   1      -8.678  95.061 117.301  0.00  0.00    -0.090 HD
ENDBRANCH   5  18
BRANCH   3  22
ATOM     22  C   LIG d   1      -4.343  95.431 119.253  0.00  0.00     0.382 C 
ATOM     23  O   LIG d   1      -4.988  96.267 119.930  0.00  0.00    -0.241 OA
ATOM     24  O   LIG d   1      -3.099  95.489 119.230  0.00  0.00    -0.241 OA
ENDBRANCH   3  22
TORSDOF 7
ENDMDL
MODEL 5
REMARK VINA RESULT:      -4.8      2.227      3.808
REMARK  7 active torsions:
REMARK  status: ('A' for Active; 'I' for Inactive)
REMARK    1  A    between atoms: C_2  and  C_3 
REMARK    2  A    between atoms: C_3  and  O_6 
REMARK    3  A    between atoms: C_3  and  C_4 
REMARK    4  A    between atoms: C_7  and  O_6 
REMARK    5  A    between atoms: C_9  and  C_10 
REMARK    6  A    between atoms: N_15  and  C_14 
REMARK    7  A    between atoms: N_20  and  C_19 
REMARK       I    between atoms: C_22  and  N_20 
ROOT
ATOM      1  C   LIG d   1      -4.435  92.277 117.472  0.00  0.00     0.161 C 
ATOM      2  C   LIG d   1      -5.651  92.907 117.159  0.00  0.00     0.016 C 
ATOM      3  C   LIG d   1      -6.565  92.403 116.205  0.00  0.00     0.038 C 
ATOM      4  C   LIG d   1      -6.394  91.147 115.606  0.00  0.00     0.028 C 
ATOM      5  C   LIG d   1      -4.935  90.713 115.514  0.00  0.00    -0.047 C 
ATOM      6  C   LIG d   1      -4.283  90.849 116.909  0.00  0.00     0.091 C 
ENDROOT
BRANCH   1   7
ATOM      7  O   LIG d   1      -4.238  92.277 118.899  0.00  0.00    -0.368 OA
BRANCH   7   8
ATOM      8  C   LIG d   1      -3.245  93.203 119.406  0.00  0.00     0.119 C 
BRANCH   8   9
ATOM      9  C   LIG d   1      -3.994  94.445 119.927  0.00  0.00     0.028 C 
ATOM     10  C   LIG d   1      -3.691  95.704 119.097  0.00  0.00     0.006 C 
ENDBRANCH   8   9
BRANCH   8  11
ATOM     11  C   LIG d   1      -2.338  93.717 118.284  0.00  0.00     0.028 C 
ATOM     12  C   LIG d   1      -0.891  93.215 118.410  0.00  0.00     0.006 C 
ENDBRANCH   8  11
ENDBRANCH   7   8
ENDBRANCH   1   7
BRANCH   6  13
ATOM     13  N   LIG d   1      -2.832  90.525 116.890  0.00  0.00    -0.311 N 
ATOM     14  C   LIG d   1      -2.279  89.594 117.666  0.00  0.00     0.210 C 
ATOM     15  C   LIG d   1      -0.764  89.433 117.503  0.00  0.00     0.109 C 
ATOM     16  O   LIG d   1      -2.904  88.864 118.450  0.00  0.00    -0.276 OA
ATOM     17  H   LIG d   1      -2.256  91.048 116.261  0.00  0.00     0.149 HD
ENDBRANCH   6  13
BRANCH   5  18
ATOM     18  N   LIG d   1      -4.912  89.332 114.997  0.00  0.00     0.381 N 
ATOM     19  H   LIG d   1      -5.823  89.076 114.674  0.00  0.00    -0.090 HD
ATOM     20  H   LIG d   1      -4.656  88.709 115.743  0.00  0.00    -0.090 HD
ATOM     21  H   LIG d   1      -4.254  89.257 114.252  0.00  0.00    -0.090 HD
ENDBRANCH   5  18
BRANCH   3  22
ATOM     22  C   LIG d   1      -7.646  93.178 115.814  0.00  0.00     0.382 C 
ATOM     23  O   LIG d   1      -8.247  93.888 116.656  0.00  0.00    -0.241 OA
ATOM     24  O   LIG d   1      -8.056  93.142 114.638  0.00  0.00    -0.241 OA
ENDBRANCH   3  22
TORSDOF 7
ENDMDL
MODEL 6
REMARK VINA RESULT:      -4.8      2.362      6.194
REMARK  7 active torsions:
REMARK  status: ('A' for Active; 'I' for Inactive)
REMARK    1  A    between atoms: C_2  and  C_3 
REMARK    2  A    between atoms: C_3  and  O_6 
REMARK    3  A    between atoms: C_3  and  C_4 
REMARK    4  A    between atoms: C_7  and  O_6 
REMARK    5  A    between atoms: C_9  and  C_10 
REMARK    6  A    between atoms: N_15  and  C_14 
REMARK    7  A    between atoms: N_20  and  C_19 
REMARK       I    between atoms: C_22  and  N_20 
ROOT
ATOM      1  C   LIG d   1      -5.063  92.981 117.536  0.00  0.00     0.161 C 
ATOM      2  C   LIG d   1      -4.698  93.989 118.444  0.00  0.00     0.016 C 
ATOM      3  C   LIG d   1      -5.557  95.050 118.816  0.00  0.00     0.038 C 
ATOM      4  C   LIG d   1      -6.900  95.091 118.415  0.00  0.00     0.028 C 
ATOM      5  C   LIG d   1      -7.162  94.371 117.097  0.00  0.00    -0.047 C 
ATOM      6  C   LIG d   1      -6.562  92.948 117.174  0.00  0.00     0.091 C 
ENDROOT
BRANCH   1   7
ATOM      7  O   LIG d   1      -4.638  91.697 118.034  0.00  0.00    -0.368 OA
BRANCH   7   8
ATOM      8  C   LIG d   1      -3.310  91.270 117.645  0.00  0.00     0.119 C 
BRANCH   8   9
ATOM      9  C   LIG d   1      -3.370  89.752 117.385  0.00  0.00     0.028 C 
ATOM     10  C   LIG d   1      -3.070  88.928 118.648  0.00  0.00     0.006 C 
ENDBRANCH   8   9
BRANCH   8  11
ATOM     11  C   LIG d   1      -2.310  91.445 118.791  0.00  0.00     0.028 C 
ATOM     12  C   LIG d   1      -1.162  92.405 118.438  0.00  0.00     0.006 C 
ENDBRANCH   8  11
ENDBRANCH   7   8
ENDBRANCH   1   7
BRANCH   6  13
ATOM     13  N   LIG d   1      -6.700  92.204 115.895  0.00  0.00    -0.311 N 
ATOM     14  C   LIG d   1      -7.361  91.053 115.784  0.00  0.00     0.210 C 
ATOM     15  C   LIG d   1      -7.365  90.442 114.379  0.00  0.00     0.109 C 
ATOM     16  O   LIG d   1      -7.971  90.495 116.709  0.00  0.00    -0.276 OA
ATOM     17  H   LIG d   1      -6.262  92.601 115.087  0.00  0.00     0.149 HD
ENDBRANCH   6  13
BRANCH   5  18
ATOM     18  N   LIG d   1      -8.619  94.372 116.870  0.00  0.00     0.381 N 
ATOM     19  H   LIG d   1      -8.827  93.923 116.000  0.00  0.00    -0.090 HD
ATOM     20  H   LIG d   1      -8.939  95.323 116.818  0.00  0.00    -0.090 HD
ATOM     21  H   LIG d   1      -9.081  93.899 117.615  0.00  0.00    -0.090 HD
ENDBRANCH   5  18
BRANCH   3  22
ATOM     22  C   LIG d   1      -5.060  96.106 119.564  0.00  0.00     0.382 C 
ATOM     23  O   LIG d   1      -3.855  96.113 119.916  0.00  0.00    -0.241 OA
ATOM     24  O   LIG d   1      -5.811  97.030 119.929  0.00  0.00    -0.241 OA
ENDBRANCH   3  22
TORSDOF 7
ENDMDL
MODEL 7
REMARK VINA RESULT:      -4.6      1.393      2.163
REMARK  7 active torsions:
REMARK  status: ('A' for Active; 'I' for Inactive)
REMARK    1  A    between atoms: C_2  and  C_3 
REMARK    2  A    between atoms: C_3  and  O_6 
REMARK    3  A    between atoms: C_3  and  C_4 
REMARK    4  A    between atoms: C_7  and  O_6 
REMARK    5  A    between atoms: C_9  and  C_10 
REMARK    6  A    between atoms: N_15  and  C_14 
REMARK    7  A    between atoms: N_20  and  C_19 
REMARK       I    between atoms: C_22  and  N_20 
ROOT
ATOM      1  C   LIG d   1      -6.065  92.617 117.805  0.00  0.00     0.161 C 
ATOM      2  C   LIG d   1      -6.829  92.534 116.629  0.00  0.00     0.016 C 
ATOM      3  C   LIG d   1      -6.550  91.626 115.582  0.00  0.00     0.038 C 
ATOM      4  C   LIG d   1      -5.572  90.628 115.707  0.00  0.00     0.028 C 
ATOM      5  C   LIG d   1      -4.447  90.999 116.667  0.00  0.00    -0.047 C 
ATOM      6  C   LIG d   1      -5.063  91.461 118.008  0.00  0.00     0.091 C 
ENDROOT
BRANCH   1   7
ATOM      7  O   LIG d   1      -6.937  92.730 118.947  0.00  0.00    -0.368 OA
BRANCH   7   8
ATOM      8  C   LIG d   1      -7.017  94.040 119.560  0.00  0.00     0.119 C 
BRANCH   8   9
ATOM      9  C   LIG d   1      -8.479  94.514 119.450  0.00  0.00     0.028 C 
ATOM     10  C   LIG d   1      -8.725  95.373 118.197  0.00  0.00     0.006 C 
ENDBRANCH   8   9
BRANCH   8  11
ATOM     11  C   LIG d   1      -6.196  95.071 118.781  0.00  0.00     0.028 C 
ATOM     12  C   LIG d   1      -5.261  95.893 119.683  0.00  0.00     0.006 C 
ENDBRANCH   8  11
ENDBRANCH   7   8
ENDBRANCH   1   7
BRANCH   6  13
ATOM     13  N   LIG d   1      -4.034  91.923 118.975  0.00  0.00    -0.311 N 
ATOM     14  C   LIG d   1      -3.182  92.915 118.722  0.00  0.00     0.210 C 
ATOM     15  C   LIG d   1      -2.189  93.218 119.848  0.00  0.00     0.109 C 
ATOM     16  O   LIG d   1      -3.176  93.594 117.684  0.00  0.00    -0.276 OA
ATOM     17  H   LIG d   1      -3.989  91.448 119.855  0.00  0.00     0.149 HD
ENDBRANCH   6  13
BRANCH   5  18
ATOM     18  N   LIG d   1      -3.573  89.819 116.809  0.00  0.00     0.381 N 
ATOM     19  H   LIG d   1      -4.088  88.989 116.593  0.00  0.00    -0.090 HD
ATOM     20  H   LIG d   1      -3.262  89.757 117.762  0.00  0.00    -0.090 HD
ATOM     21  H   LIG d   1      -2.789  89.900 116.200  0.00  0.00    -0.090 HD
ENDBRANCH   5  18
BRANCH   3  22
ATOM     22  C   LIG d   1      -7.227  91.736 114.377  0.00  0.00     0.382 C 
ATOM     23  O   LIG d   1      -7.475  92.870 113.899  0.00  0.00    -0.241 OA
ATOM     24  O   LIG d   1      -7.631  90.719 113.784  0.00  0.00    -0.241 OA
ENDBRANCH   3  22
TORSDOF 7
ENDMDL
MODEL 8
REMARK VINA RESULT:      -4.6      2.099      4.674
REMARK  7 active torsions:
REMARK  status: ('A' for Active; 'I' for Inactive)
REMARK    1  A    between atoms: C_2  and  C_3 
REMARK    2  A    between atoms: C_3  and  O_6 
REMARK    3  A    between atoms: C_3  and  C_4 
REMARK    4  A    between atoms: C_7  and  O_6 
REMARK    5  A    between atoms: C_9  and  C_10 
REMARK    6  A    between atoms: N_15  and  C_14 
REMARK    7  A    between atoms: N_20  and  C_19 
REMARK       I    between atoms: C_22  and  N_20 
ROOT
ATOM      1  C   LIG d   1      -5.882  92.357 118.840  0.00  0.00     0.161 C 
ATOM      2  C   LIG d   1      -7.191  92.825 118.640  0.00  0.00     0.016 C 
ATOM      3  C   LIG d   1      -7.506  94.184 118.411  0.00  0.00     0.038 C 
ATOM      4  C   LIG d   1      -6.510  95.153 118.215  0.00  0.00     0.028 C 
ATOM      5  C   LIG d   1      -5.194  94.817 118.908  0.00  0.00    -0.047 C 
ATOM      6  C   LIG d   1      -4.773  93.382 118.519  0.00  0.00     0.091 C 
ENDROOT
BRANCH   1   7
ATOM      7  O   LIG d   1      -5.676  91.145 118.089  0.00  0.00    -0.368 OA
BRANCH   7   8
ATOM      8  C   LIG d   1      -5.086  91.301 116.775  0.00  0.00     0.119 C 
BRANCH   8   9
ATOM      9  C   LIG d   1      -6.160  90.923 115.737  0.00  0.00     0.028 C 
ATOM     10  C   LIG d   1      -6.678  92.144 114.957  0.00  0.00     0.006 C 
ENDBRANCH   8   9
BRANCH   8  11
ATOM     11  C   LIG d   1      -3.942  90.306 116.555  0.00  0.00     0.028 C 
ATOM     12  C   LIG d   1      -3.477  89.637 117.858  0.00  0.00     0.006 C 
ENDBRANCH   8  11
ENDBRANCH   7   8
ENDBRANCH   1   7
BRANCH   6  13
ATOM     13  N   LIG d   1      -3.538  92.943 119.220  0.00  0.00    -0.311 N 
ATOM     14  C   LIG d   1      -2.313  93.132 118.734  0.00  0.00     0.210 C 
ATOM     15  C   LIG d   1      -1.180  92.584 119.608  0.00  0.00     0.109 C 
ATOM     16  O   LIG d   1      -2.055  93.728 117.678  0.00  0.00    -0.276 OA
ATOM     17  H   LIG d   1      -3.654  92.478 120.099  0.00  0.00     0.149 HD
ENDBRANCH   6  13
BRANCH   5  18
ATOM     18  N   LIG d   1      -4.206  95.838 118.508  0.00  0.00     0.381 N 
ATOM     19  H   LIG d   1      -3.478  95.891 119.192  0.00  0.00    -0.090 HD
ATOM     20  H   LIG d   1      -4.663  96.732 118.463  0.00  0.00    -0.090 HD
ATOM     21  H   LIG d   1      -3.821  95.609 117.618  0.00  0.00    -0.090 HD
ENDBRANCH   5  18
BRANCH   3  22
ATOM     22  C   LIG d   1      -8.830  94.593 118.416  0.00  0.00     0.382 C 
ATOM     23  O   LIG d   1      -9.197  95.541 117.680  0.00  0.00    -0.241 OA
ATOM     24  O   LIG d   1      -9.655  94.056 119.180  0.00  0.00    -0.241 OA
ENDBRANCH   3  22
TORSDOF 7
ENDMDL
MODEL 9
REMARK VINA RESULT:      -4.6      2.354      4.348
REMARK  7 active torsions:
REMARK  status: ('A' for Active; 'I' for Inactive)
REMARK    1  A    between atoms: C_2  and  C_3 
REMARK    2  A    between atoms: C_3  and  O_6 
REMARK    3  A    between atoms: C_3  and  C_4 
REMARK    4  A    between atoms: C_7  and  O_6 
REMARK    5  A    between atoms: C_9  and  C_10 
REMARK    6  A    between atoms: N_15  and  C_14 
REMARK    7  A    between atoms: N_20  and  C_19 
REMARK       I    between atoms: C_22  and  N_20 
ROOT
ATOM      1  C   LIG d   1      -5.858  92.771 118.851  0.00  0.00     0.161 C 
ATOM      2  C   LIG d   1      -5.125  91.768 118.195  0.00  0.00     0.016 C 
ATOM      3  C   LIG d   1      -5.340  91.403 116.846  0.00  0.00     0.038 C 
ATOM      4  C   LIG d   1      -6.205  92.126 116.011  0.00  0.00     0.028 C 
ATOM      5  C   LIG d   1      -7.333  92.822 116.765  0.00  0.00    -0.047 C 
ATOM      6  C   LIG d   1      -6.729  93.646 117.925  0.00  0.00     0.091 C 
ENDROOT
BRANCH   1   7
ATOM      7  O   LIG d   1      -4.968  93.597 119.629  0.00  0.00    -0.368 OA
BRANCH   7   8
ATOM      8  C   LIG d   1      -4.284  94.651 118.908  0.00  0.00     0.119 C 
BRANCH   8   9
ATOM      9  C   LIG d   1      -2.770  94.441 119.108  0.00  0.00     0.028 C 
ATOM     10  C   LIG d   1      -2.064  93.990 117.818  0.00  0.00     0.006 C 
ENDBRANCH   8   9
BRANCH   8  11
ATOM     11  C   LIG d   1      -4.586  96.026 119.512  0.00  0.00     0.028 C 
ATOM     12  C   LIG d   1      -3.629  97.119 119.011  0.00  0.00     0.006 C 
ENDBRANCH   8  11
ENDBRANCH   7   8
ENDBRANCH   1   7
BRANCH   6  13
ATOM     13  N   LIG d   1      -7.771  94.291 118.765  0.00  0.00    -0.311 N 
ATOM     14  C   LIG d   1      -8.171  95.551 118.597  0.00  0.00     0.210 C 
ATOM     15  C   LIG d   1      -9.243  96.025 119.584  0.00  0.00     0.109 C 
ATOM     16  O   LIG d   1      -7.765  96.309 117.705  0.00  0.00    -0.276 OA
ATOM     17  H   LIG d   1      -8.177  93.738 119.493  0.00  0.00     0.149 HD
ENDBRANCH   6  13
BRANCH   5  18
ATOM     18  N   LIG d   1      -8.075  93.648 115.794  0.00  0.00     0.381 N 
ATOM     19  H   LIG d   1      -7.709  94.579 115.792  0.00  0.00    -0.090 HD
ATOM     20  H   LIG d   1      -9.040  93.688 116.072  0.00  0.00    -0.090 HD
ATOM     21  H   LIG d   1      -8.001  93.252 114.883  0.00  0.00    -0.090 HD
ENDBRANCH   5  18
BRANCH   3  22
ATOM     22  C   LIG d   1      -4.713  90.279 116.330  0.00  0.00     0.382 C 
ATOM     23  O   LIG d   1      -5.148  89.745 115.281  0.00  0.00    -0.241 OA
ATOM     24  O   LIG d   1      -3.747  89.765 116.925  0.00  0.00    -0.241 OA
ENDBRANCH   3  22
TORSDOF 7
ENDMDL
