MODEL 1
REMARK VINA RESULT:      -4.5      0.000      0.000
REMARK  7 active torsions:
REMARK  status: ('A' for Active; 'I' for Inactive)
REMARK    1  A    between atoms: C_2  and  C_3 
REMARK    2  A    between atoms: C_3  and  O_6 
REMARK    3  A    between atoms: C_3  and  C_4 
REMARK    4  A    between atoms: C_7  and  O_6 
REMARK    5  A    between atoms: C_9  and  C_10 
REMARK    6  A    between atoms: N_15  and  C_14 
REMARK    7  A    between atoms: N_20  and  C_19 
REMARK       I    between atoms: C_22  and  N_20 
ROOT
ATOM      1  C   LIG d   1       4.636  87.530 116.236  0.00  0.00     0.161 C 
ATOM      2  C   LIG d   1       5.660  88.146 116.975  0.00  0.00     0.016 C 
ATOM      3  C   LIG d   1       6.624  89.007 116.402  0.00  0.00     0.038 C 
ATOM      4  C   LIG d   1       6.537  89.433 115.069  0.00  0.00     0.028 C 
ATOM      5  C   LIG d   1       5.816  88.442 114.161  0.00  0.00    -0.047 C 
ATOM      6  C   LIG d   1       4.459  88.071 114.802  0.00  0.00     0.091 C 
ENDROOT
BRANCH   1   7
ATOM      7  O   LIG d   1       3.392  87.614 116.960  0.00  0.00    -0.368 OA
BRANCH   7   8
ATOM      8  C   LIG d   1       2.537  88.737 116.630  0.00  0.00     0.119 C 
BRANCH   8   9
ATOM      9  C   LIG d   1       2.620  89.740 117.797  0.00  0.00     0.028 C 
ATOM     10  C   LIG d   1       3.368  91.028 117.412  0.00  0.00     0.006 C 
ENDBRANCH   8   9
BRANCH   8  11
ATOM     11  C   LIG d   1       1.067  88.316 116.561  0.00  0.00     0.028 C 
ATOM     12  C   LIG d   1       0.889  86.809 116.312  0.00  0.00     0.006 C 
ENDBRANCH   8  11
ENDBRANCH   7   8
ENDBRANCH   1   7
BRANCH   6  13
ATOM     13  N   LIG d   1       3.726  87.042 114.020  0.00  0.00    -0.311 N 
ATOM     14  C   LIG d   1       2.802  87.335 113.106  0.00  0.00     0.210 C 
ATOM     15  C   LIG d   1       2.154  86.123 112.430  0.00  0.00     0.109 C 
ATOM     16  O   LIG d   1       2.482  88.484 112.768  0.00  0.00    -0.276 OA
ATOM     17  H   LIG d   1       3.947  86.083 114.208  0.00  0.00     0.149 HD
ENDBRANCH   6  13
BRANCH   5  18
ATOM     18  N   LIG d   1       5.677  89.072 112.835  0.00  0.00     0.381 N 
ATOM     19  H   LIG d   1       6.582  89.250 112.447  0.00  0.00    -0.090 HD
ATOM     20  H   LIG d   1       5.201  89.951 112.941  0.00  0.00    -0.090 HD
ATOM     21  H   LIG d   1       5.158  88.477 112.227  0.00  0.00    -0.090 HD
ENDBRANCH   5  18
BRANCH   3  22
ATOM     22  C   LIG d   1       7.712  89.419 117.157  0.00  0.00     0.382 C 
ATOM     23  O   LIG d   1       7.896  90.641 117.375  0.00  0.00    -0.241 OA
ATOM     24  O   LIG d   1       8.535  88.588 117.584  0.00  0.00    -0.241 OA
ENDBRANCH   3  22
TORSDOF 7
ENDMDL
MODEL 2
REMARK VINA RESULT:      -4.3      3.665      6.744
REMARK  7 active torsions:
REMARK  status: ('A' for Active; 'I' for Inactive)
REMARK    1  A    between atoms: C_2  and  C_3 
REMARK    2  A    between atoms: C_3  and  O_6 
REMARK    3  A    between atoms: C_3  and  C_4 
REMARK    4  A    between atoms: C_7  and  O_6 
REMARK    5  A    between atoms: C_9  and  C_10 
REMARK    6  A    between atoms: N_15  and  C_14 
REMARK    7  A    between atoms: N_20  and  C_19 
REMARK       I    between atoms: C_22  and  N_20 
ROOT
ATOM      1  C   LIG d   1       1.066  88.877 117.006  0.00  0.00     0.161 C 
ATOM      2  C   LIG d   1      -0.322  88.673 116.947  0.00  0.00     0.016 C 
ATOM      3  C   LIG d   1      -1.266  89.591 117.461  0.00  0.00     0.038 C 
ATOM      4  C   LIG d   1      -0.888  90.855 117.938  0.00  0.00     0.028 C 
ATOM      5  C   LIG d   1       0.537  90.896 118.480  0.00  0.00    -0.047 C 
ATOM      6  C   LIG d   1       1.494  90.300 117.421  0.00  0.00     0.091 C 
ENDROOT
BRANCH   1   7
ATOM      7  O   LIG d   1       1.666  88.522 115.744  0.00  0.00    -0.368 OA
BRANCH   7   8
ATOM      8  C   LIG d   1       2.417  87.283 115.721  0.00  0.00     0.119 C 
BRANCH   8   9
ATOM      9  C   LIG d   1       3.866  87.627 115.326  0.00  0.00     0.028 C 
ATOM     10  C   LIG d   1       3.976  88.996 114.633  0.00  0.00     0.006 C 
ENDBRANCH   8   9
BRANCH   8  11
ATOM     11  C   LIG d   1       1.909  86.344 114.623  0.00  0.00     0.028 C 
ATOM     12  C   LIG d   1       0.617  85.611 115.016  0.00  0.00     0.006 C 
ENDBRANCH   8  11
ENDBRANCH   7   8
ENDBRANCH   1   7
BRANCH   6  13
ATOM     13  N   LIG d   1       2.897  90.225 117.904  0.00  0.00    -0.311 N 
ATOM     14  C   LIG d   1       3.785  91.202 117.731  0.00  0.00     0.210 C 
ATOM     15  C   LIG d   1       5.183  90.913 118.288  0.00  0.00     0.109 C 
ATOM     16  O   LIG d   1       3.540  92.294 117.196  0.00  0.00    -0.276 OA
ATOM     17  H   LIG d   1       3.173  89.387 118.377  0.00  0.00     0.149 HD
ENDBRANCH   6  13
BRANCH   5  18
ATOM     18  N   LIG d   1       0.847  92.299 118.814  0.00  0.00     0.381 N 
ATOM     19  H   LIG d   1       0.971  92.393 119.802  0.00  0.00    -0.090 HD
ATOM     20  H   LIG d   1       0.073  92.877 118.537  0.00  0.00    -0.090 HD
ATOM     21  H   LIG d   1       1.673  92.588 118.339  0.00  0.00    -0.090 HD
ENDBRANCH   5  18
BRANCH   3  22
ATOM     22  C   LIG d   1      -2.603  89.231 117.539  0.00  0.00     0.382 C 
ATOM     23  O   LIG d   1      -2.931  88.022 117.480  0.00  0.00    -0.241 OA
ATOM     24  O   LIG d   1      -3.488  90.103 117.624  0.00  0.00    -0.241 OA
ENDBRANCH   3  22
TORSDOF 7
ENDMDL
MODEL 3
REMARK VINA RESULT:      -4.2      4.254      6.225
REMARK  7 active torsions:
REMARK  status: ('A' for Active; 'I' for Inactive)
REMARK    1  A    between atoms: C_2  and  C_3 
REMARK    2  A    between atoms: C_3  and  O_6 
REMARK    3  A    between atoms: C_3  and  C_4 
REMARK    4  A    between atoms: C_7  and  O_6 
REMARK    5  A    between atoms: C_9  and  C_10 
REMARK    6  A    between atoms: N_15  and  C_14 
REMARK    7  A    between atoms: N_20  and  C_19 
REMARK       I    between atoms: C_22  and  N_20 
ROOT
ATOM      1  C   LIG d   1      -0.016  89.955 116.900  0.00  0.00     0.161 C 
ATOM      2  C   LIG d   1       1.297  90.354 117.200  0.00  0.00     0.016 C 
ATOM      3  C   LIG d   1       1.626  91.182 118.298  0.00  0.00     0.038 C 
ATOM      4  C   LIG d   1       0.676  91.546 119.264  0.00  0.00     0.028 C 
ATOM      5  C   LIG d   1      -0.750  91.585 118.726  0.00  0.00    -0.047 C 
ATOM      6  C   LIG d   1      -1.051  90.251 118.006  0.00  0.00     0.091 C 
ENDROOT
BRANCH   1   7
ATOM      7  O   LIG d   1      -0.035  88.556 116.557  0.00  0.00    -0.368 OA
BRANCH   7   8
ATOM      8  C   LIG d   1       1.092  87.771 117.018  0.00  0.00     0.119 C 
BRANCH   8   9
ATOM      9  C   LIG d   1       1.576  86.915 115.831  0.00  0.00     0.028 C 
ATOM     10  C   LIG d   1       2.737  87.574 115.067  0.00  0.00     0.006 C 
ENDBRANCH   8   9
BRANCH   8  11
ATOM     11  C   LIG d   1       0.671  86.768 118.096  0.00  0.00     0.028 C 
ATOM     12  C   LIG d   1       0.781  87.341 119.518  0.00  0.00     0.006 C 
ENDBRANCH   8  11
ENDBRANCH   7   8
ENDBRANCH   1   7
BRANCH   6  13
ATOM     13  N   LIG d   1      -2.398  90.238 117.376  0.00  0.00    -0.311 N 
ATOM     14  C   LIG d   1      -3.246  89.217 117.482  0.00  0.00     0.210 C 
ATOM     15  C   LIG d   1      -4.574  89.401 116.740  0.00  0.00     0.109 C 
ATOM     16  O   LIG d   1      -3.039  88.191 118.147  0.00  0.00    -0.276 OA
ATOM     17  H   LIG d   1      -2.660  91.045 116.844  0.00  0.00     0.149 HD
ENDBRANCH   6  13
BRANCH   5  18
ATOM     18  N   LIG d   1      -1.650  91.843 119.866  0.00  0.00     0.381 N 
ATOM     19  H   LIG d   1      -1.123  91.853 120.717  0.00  0.00    -0.090 HD
ATOM     20  H   LIG d   1      -2.325  91.100 119.922  0.00  0.00    -0.090 HD
ATOM     21  H   LIG d   1      -2.114  92.715 119.744  0.00  0.00    -0.090 HD
ENDBRANCH   5  18
BRANCH   3  22
ATOM     22  C   LIG d   1       2.912  91.688 118.416  0.00  0.00     0.382 C 
ATOM     23  O   LIG d   1       3.422  92.332 117.467  0.00  0.00    -0.241 OA
ATOM     24  O   LIG d   1       3.585  91.470 119.441  0.00  0.00    -0.241 OA
ENDBRANCH   3  22
TORSDOF 7
ENDMDL
MODEL 4
REMARK VINA RESULT:      -4.2      2.913      6.243
REMARK  7 active torsions:
REMARK  status: ('A' for Active; 'I' for Inactive)
REMARK    1  A    between atoms: C_2  and  C_3 
REMARK    2  A    between atoms: C_3  and  O_6 
REMARK    3  A    between atoms: C_3  and  C_4 
REMARK    4  A    between atoms: C_7  and  O_6 
REMARK    5  A    between atoms: C_9  and  C_10 
REMARK    6  A    between atoms: N_15  and  C_14 
REMARK    7  A    between atoms: N_20  and  C_19 
REMARK       I    between atoms: C_22  and  N_20 
ROOT
ATOM      1  C   LIG d   1       3.072  89.104 116.589  0.00  0.00     0.161 C 
ATOM      2  C   LIG d   1       2.014  88.263 116.206  0.00  0.00     0.016 C 
ATOM      3  C   LIG d   1       0.745  88.277 116.828  0.00  0.00     0.038 C 
ATOM      4  C   LIG d   1       0.398  89.244 117.783  0.00  0.00     0.028 C 
ATOM      5  C   LIG d   1       1.594  89.787 118.558  0.00  0.00    -0.047 C 
ATOM      6  C   LIG d   1       2.677  90.242 117.553  0.00  0.00     0.091 C 
ENDROOT
BRANCH   1   7
ATOM      7  O   LIG d   1       3.718  89.642 115.417  0.00  0.00    -0.368 OA
BRANCH   7   8
ATOM      8  C   LIG d   1       4.791  88.846 114.859  0.00  0.00     0.119 C 
BRANCH   8   9
ATOM      9  C   LIG d   1       6.121  89.479 115.312  0.00  0.00     0.028 C 
ATOM     10  C   LIG d   1       6.801  88.677 116.434  0.00  0.00     0.006 C 
ENDBRANCH   8   9
BRANCH   8  11
ATOM     11  C   LIG d   1       4.805  88.923 113.330  0.00  0.00     0.028 C 
ATOM     12  C   LIG d   1       4.391  87.602 112.662  0.00  0.00     0.006 C 
ENDBRANCH   8  11
ENDBRANCH   7   8
ENDBRANCH   1   7
BRANCH   6  13
ATOM     13  N   LIG d   1       3.916  90.709 118.229  0.00  0.00    -0.311 N 
ATOM     14  C   LIG d   1       4.426  91.928 118.062  0.00  0.00     0.210 C 
ATOM     15  C   LIG d   1       5.721  92.198 118.836  0.00  0.00     0.109 C 
ATOM     16  O   LIG d   1       3.913  92.822 117.372  0.00  0.00    -0.276 OA
ATOM     17  H   LIG d   1       4.380  90.059 118.832  0.00  0.00     0.149 HD
ENDBRANCH   6  13
BRANCH   5  18
ATOM     18  N   LIG d   1       1.107  90.882 119.418  0.00  0.00     0.381 N 
ATOM     19  H   LIG d   1       0.826  90.516 120.306  0.00  0.00    -0.090 HD
ATOM     20  H   LIG d   1       0.306  91.306 118.984  0.00  0.00    -0.090 HD
ATOM     21  H   LIG d   1       1.824  91.562 119.543  0.00  0.00    -0.090 HD
ENDBRANCH   5  18
BRANCH   3  22
ATOM     22  C   LIG d   1      -0.180  87.289 116.525  0.00  0.00     0.382 C 
ATOM     23  O   LIG d   1      -1.168  87.104 117.275  0.00  0.00    -0.241 OA
ATOM     24  O   LIG d   1      -0.014  86.551 115.535  0.00  0.00    -0.241 OA
ENDBRANCH   3  22
TORSDOF 7
ENDMDL
MODEL 5
REMARK VINA RESULT:      -4.1      2.741      4.661
REMARK  7 active torsions:
REMARK  status: ('A' for Active; 'I' for Inactive)
REMARK    1  A    between atoms: C_2  and  C_3 
REMARK    2  A    between atoms: C_3  and  O_6 
REMARK    3  A    between atoms: C_3  and  C_4 
REMARK    4  A    between atoms: C_7  and  O_6 
REMARK    5  A    between atoms: C_9  and  C_10 
REMARK    6  A    between atoms: N_15  and  C_14 
REMARK    7  A    between atoms: N_20  and  C_19 
REMARK       I    between atoms: C_22  and  N_20 
ROOT
ATOM      1  C   LIG d   1       2.789  89.366 116.595  0.00  0.00     0.161 C 
ATOM      2  C   LIG d   1       2.904  88.910 115.271  0.00  0.00     0.016 C 
ATOM      3  C   LIG d   1       4.136  88.813 114.585  0.00  0.00     0.038 C 
ATOM      4  C   LIG d   1       5.363  89.024 115.232  0.00  0.00     0.028 C 
ATOM      5  C   LIG d   1       5.265  89.973 116.422  0.00  0.00    -0.047 C 
ATOM      6  C   LIG d   1       4.127  89.494 117.353  0.00  0.00     0.091 C 
ENDROOT
BRANCH   1   7
ATOM      7  O   LIG d   1       1.879  88.520 117.326  0.00  0.00    -0.368 OA
BRANCH   7   8
ATOM      8  C   LIG d   1       0.468  88.734 117.074  0.00  0.00     0.119 C 
BRANCH   8   9
ATOM      9  C   LIG d   1       0.138  90.180 117.492  0.00  0.00     0.028 C 
ATOM     10  C   LIG d   1       0.232  90.388 119.012  0.00  0.00     0.006 C 
ENDBRANCH   8   9
BRANCH   8  11
ATOM     11  C   LIG d   1      -0.399  87.845 117.970  0.00  0.00     0.028 C 
ATOM     12  C   LIG d   1      -1.827  87.666 117.429  0.00  0.00     0.006 C 
ENDBRANCH   8  11
ENDBRANCH   7   8
ENDBRANCH   1   7
BRANCH   6  13
ATOM     13  N   LIG d   1       3.907  90.414 118.499  0.00  0.00    -0.311 N 
ATOM     14  C   LIG d   1       3.678  91.719 118.359  0.00  0.00     0.210 C 
ATOM     15  C   LIG d   1       3.499  92.489 119.671  0.00  0.00     0.109 C 
ATOM     16  O   LIG d   1       3.574  92.306 117.271  0.00  0.00    -0.276 OA
ATOM     17  H   LIG d   1       3.944  90.016 119.417  0.00  0.00     0.149 HD
ENDBRANCH   6  13
BRANCH   5  18
ATOM     18  N   LIG d   1       6.583  89.994 117.085  0.00  0.00     0.381 N 
ATOM     19  H   LIG d   1       6.503  89.622 118.010  0.00  0.00    -0.090 HD
ATOM     20  H   LIG d   1       6.896  90.947 117.154  0.00  0.00    -0.090 HD
ATOM     21  H   LIG d   1       7.238  89.458 116.559  0.00  0.00    -0.090 HD
ENDBRANCH   5  18
BRANCH   3  22
ATOM     22  C   LIG d   1       4.147  88.541 113.226  0.00  0.00     0.382 C 
ATOM     23  O   LIG d   1       5.232  88.302 112.643  0.00  0.00    -0.241 OA
ATOM     24  O   LIG d   1       3.091  88.575 112.567  0.00  0.00    -0.241 OA
ENDBRANCH   3  22
TORSDOF 7
ENDMDL
MODEL 6
REMARK VINA RESULT:      -4.1      2.439      5.559
REMARK  7 active torsions:
REMARK  status: ('A' for Active; 'I' for Inactive)
REMARK    1  A    between atoms: C_2  and  C_3 
REMARK    2  A    between atoms: C_3  and  O_6 
REMARK    3  A    between atoms: C_3  and  C_4 
REMARK    4  A    between atoms: C_7  and  O_6 
REMARK    5  A    between atoms: C_9  and  C_10 
REMARK    6  A    between atoms: N_15  and  C_14 
REMARK    7  A    between atoms: N_20  and  C_19 
REMARK       I    between atoms: C_22  and  N_20 
ROOT
ATOM      1  C   LIG d   1       3.680  88.161 116.470  0.00  0.00     0.161 C 
ATOM      2  C   LIG d   1       2.343  88.591 116.475  0.00  0.00     0.016 C 
ATOM      3  C   LIG d   1       1.913  89.789 117.090  0.00  0.00     0.038 C 
ATOM      4  C   LIG d   1       2.821  90.720 117.616  0.00  0.00     0.028 C 
ATOM      5  C   LIG d   1       4.131  90.093 118.081  0.00  0.00    -0.047 C 
ATOM      6  C   LIG d   1       4.701  89.218 116.941  0.00  0.00     0.091 C 
ENDROOT
BRANCH   1   7
ATOM      7  O   LIG d   1       4.032  87.674 115.160  0.00  0.00    -0.368 OA
BRANCH   7   8
ATOM      8  C   LIG d   1       3.463  88.393 114.038  0.00  0.00     0.119 C 
BRANCH   8   9
ATOM      9  C   LIG d   1       3.096  87.355 112.960  0.00  0.00     0.028 C 
ATOM     10  C   LIG d   1       2.124  86.284 113.484  0.00  0.00     0.006 C 
ENDBRANCH   8   9
BRANCH   8  11
ATOM     11  C   LIG d   1       4.498  89.311 113.381  0.00  0.00     0.028 C 
ATOM     12  C   LIG d   1       5.936  88.790 113.532  0.00  0.00     0.006 C 
ENDBRANCH   8  11
ENDBRANCH   7   8
ENDBRANCH   1   7
BRANCH   6  13
ATOM     13  N   LIG d   1       5.939  88.500 117.343  0.00  0.00    -0.311 N 
ATOM     14  C   LIG d   1       7.165  88.958 117.096  0.00  0.00     0.210 C 
ATOM     15  C   LIG d   1       8.302  88.052 117.577  0.00  0.00     0.109 C 
ATOM     16  O   LIG d   1       7.418  90.044 116.554  0.00  0.00    -0.276 OA
ATOM     17  H   LIG d   1       5.825  87.625 117.816  0.00  0.00     0.149 HD
ENDBRANCH   6  13
BRANCH   5  18
ATOM     18  N   LIG d   1       5.035  91.189 118.476  0.00  0.00     0.381 N 
ATOM     19  H   LIG d   1       4.979  91.931 117.808  0.00  0.00    -0.090 HD
ATOM     20  H   LIG d   1       5.979  90.844 118.487  0.00  0.00    -0.090 HD
ATOM     21  H   LIG d   1       4.787  91.527 119.380  0.00  0.00    -0.090 HD
ENDBRANCH   5  18
BRANCH   3  22
ATOM     22  C   LIG d   1       0.557  90.047 117.220  0.00  0.00     0.382 C 
ATOM     23  O   LIG d   1       0.155  90.877 118.070  0.00  0.00    -0.241 OA
ATOM     24  O   LIG d   1      -0.273  89.427 116.528  0.00  0.00    -0.241 OA
ENDBRANCH   3  22
TORSDOF 7
ENDMDL
MODEL 7
REMARK VINA RESULT:      -4.0      2.536      5.184
REMARK  7 active torsions:
REMARK  status: ('A' for Active; 'I' for Inactive)
REMARK    1  A    between atoms: C_2  and  C_3 
REMARK    2  A    between atoms: C_3  and  O_6 
REMARK    3  A    between atoms: C_3  and  C_4 
REMARK    4  A    between atoms: C_7  and  O_6 
REMARK    5  A    between atoms: C_9  and  C_10 
REMARK    6  A    between atoms: N_15  and  C_14 
REMARK    7  A    between atoms: N_20  and  C_19 
REMARK       I    between atoms: C_22  and  N_20 
ROOT
ATOM      1  C   LIG d   1       5.065  89.751 116.982  0.00  0.00     0.161 C 
ATOM      2  C   LIG d   1       4.626  89.650 115.652  0.00  0.00     0.016 C 
ATOM      3  C   LIG d   1       5.282  88.869 114.673  0.00  0.00     0.038 C 
ATOM      4  C   LIG d   1       6.342  88.010 114.998  0.00  0.00     0.028 C 
ATOM      5  C   LIG d   1       7.135  88.461 116.219  0.00  0.00    -0.047 C 
ATOM      6  C   LIG d   1       6.154  88.733 117.382  0.00  0.00     0.091 C 
ENDROOT
BRANCH   1   7
ATOM      7  O   LIG d   1       3.939  89.657 117.877  0.00  0.00    -0.368 OA
BRANCH   7   8
ATOM      8  C   LIG d   1       3.638  90.845 118.650  0.00  0.00     0.119 C 
BRANCH   8   9
ATOM      9  C   LIG d   1       2.105  90.973 118.724  0.00  0.00     0.028 C 
ATOM     10  C   LIG d   1       1.410  90.456 117.452  0.00  0.00     0.006 C 
ENDBRANCH   8   9
BRANCH   8  11
ATOM     11  C   LIG d   1       4.117  92.111 117.934  0.00  0.00     0.028 C 
ATOM     12  C   LIG d   1       5.018  92.990 118.816  0.00  0.00     0.006 C 
ENDBRANCH   8  11
ENDBRANCH   7   8
ENDBRANCH   1   7
BRANCH   6  13
ATOM     13  N   LIG d   1       6.840  89.260 118.591  0.00  0.00    -0.311 N 
ATOM     14  C   LIG d   1       7.698  90.279 118.561  0.00  0.00     0.210 C 
ATOM     15  C   LIG d   1       8.307  90.651 119.917  0.00  0.00     0.109 C 
ATOM     16  O   LIG d   1       7.986  90.931 117.547  0.00  0.00    -0.276 OA
ATOM     17  H   LIG d   1       6.640  88.810 119.462  0.00  0.00     0.149 HD
ENDBRANCH   6  13
BRANCH   5  18
ATOM     18  N   LIG d   1       8.119  87.406 116.527  0.00  0.00     0.381 N 
ATOM     19  H   LIG d   1       7.724  86.508 116.332  0.00  0.00    -0.090 HD
ATOM     20  H   LIG d   1       8.344  87.447 117.506  0.00  0.00    -0.090 HD
ATOM     21  H   LIG d   1       8.943  87.540 115.984  0.00  0.00    -0.090 HD
ENDBRANCH   5  18
BRANCH   3  22
ATOM     22  C   LIG d   1       4.903  88.974 113.343  0.00  0.00     0.382 C 
ATOM     23  O   LIG d   1       5.423  88.224 112.482  0.00  0.00    -0.241 OA
ATOM     24  O   LIG d   1       4.080  89.838 112.987  0.00  0.00    -0.241 OA
ENDBRANCH   3  22
TORSDOF 7
ENDMDL
MODEL 8
REMARK VINA RESULT:      -4.0      2.636      6.163
REMARK  7 active torsions:
REMARK  status: ('A' for Active; 'I' for Inactive)
REMARK    1  A    between atoms: C_2  and  C_3 
REMARK    2  A    between atoms: C_3  and  O_6 
REMARK    3  A    between atoms: C_3  and  C_4 
REMARK    4  A    between atoms: C_7  and  O_6 
REMARK    5  A    between atoms: C_9  and  C_10 
REMARK    6  A    between atoms: N_15  and  C_14 
REMARK    7  A    between atoms: N_20  and  C_19 
REMARK       I    between atoms: C_22  and  N_20 
ROOT
ATOM      1  C   LIG d   1       3.131  87.583 116.313  0.00  0.00     0.161 C 
ATOM      2  C   LIG d   1       1.946  86.891 116.011  0.00  0.00     0.016 C 
ATOM      3  C   LIG d   1       0.660  87.357 116.369  0.00  0.00     0.038 C 
ATOM      4  C   LIG d   1       0.461  88.630 116.925  0.00  0.00     0.028 C 
ATOM      5  C   LIG d   1       1.665  89.145 117.706  0.00  0.00    -0.047 C 
ATOM      6  C   LIG d   1       2.926  89.026 116.820  0.00  0.00     0.091 C 
ENDROOT
BRANCH   1   7
ATOM      7  O   LIG d   1       4.008  87.574 115.169  0.00  0.00    -0.368 OA
BRANCH   7   8
ATOM      8  C   LIG d   1       3.821  88.648 114.215  0.00  0.00     0.119 C 
BRANCH   8   9
ATOM      9  C   LIG d   1       3.189  88.038 112.948  0.00  0.00     0.028 C 
ATOM     10  C   LIG d   1       3.971  86.819 112.431  0.00  0.00     0.006 C 
ENDBRANCH   8   9
BRANCH   8  11
ATOM     11  C   LIG d   1       5.164  89.227 113.759  0.00  0.00     0.028 C 
ATOM     12  C   LIG d   1       6.324  88.847 114.692  0.00  0.00     0.006 C 
ENDBRANCH   8  11
ENDBRANCH   7   8
ENDBRANCH   1   7
BRANCH   6  13
ATOM     13  N   LIG d   1       4.163  89.430 117.538  0.00  0.00    -0.311 N 
ATOM     14  C   LIG d   1       4.630  90.677 117.549  0.00  0.00     0.210 C 
ATOM     15  C   LIG d   1       5.931  90.874 118.333  0.00  0.00     0.109 C 
ATOM     16  O   LIG d   1       4.073  91.646 117.011  0.00  0.00    -0.276 OA
ATOM     17  H   LIG d   1       4.661  88.713 118.028  0.00  0.00     0.149 HD
ENDBRANCH   6  13
BRANCH   5  18
ATOM     18  N   LIG d   1       1.372  90.532 118.112  0.00  0.00     0.381 N 
ATOM     19  H   LIG d   1       0.828  90.984 117.405  0.00  0.00    -0.090 HD
ATOM     20  H   LIG d   1       2.239  91.032 118.210  0.00  0.00    -0.090 HD
ATOM     21  H   LIG d   1       0.878  90.537 118.977  0.00  0.00    -0.090 HD
ENDBRANCH   5  18
BRANCH   3  22
ATOM     22  C   LIG d   1      -0.440  86.529 116.207  0.00  0.00     0.382 C 
ATOM     23  O   LIG d   1      -0.416  85.614 115.350  0.00  0.00    -0.241 OA
ATOM     24  O   LIG d   1      -1.473  86.714 116.878  0.00  0.00    -0.241 OA
ENDBRANCH   3  22
TORSDOF 7
ENDMDL
MODEL 9
REMARK VINA RESULT:      -3.9      7.414      9.675
REMARK  7 active torsions:
REMARK  status: ('A' for Active; 'I' for Inactive)
REMARK    1  A    between atoms: C_2  and  C_3 
REMARK    2  A    between atoms: C_3  and  O_6 
REMARK    3  A    between atoms: C_3  and  C_4 
REMARK    4  A    between atoms: C_7  and  O_6 
REMARK    5  A    between atoms: C_9  and  C_10 
REMARK    6  A    between atoms: N_15  and  C_14 
REMARK    7  A    between atoms: N_20  and  C_19 
REMARK       I    between atoms: C_22  and  N_20 
ROOT
ATOM      1  C   LIG d   1      -3.714  91.930 119.484  0.00  0.00     0.161 C 
ATOM      2  C   LIG d   1      -4.047  93.293 119.555  0.00  0.00     0.016 C 
ATOM      3  C   LIG d   1      -3.105  94.334 119.391  0.00  0.00     0.038 C 
ATOM      4  C   LIG d   1      -1.784  94.082 118.992  0.00  0.00     0.028 C 
ATOM      5  C   LIG d   1      -1.280  92.703 119.402  0.00  0.00    -0.047 C 
ATOM      6  C   LIG d   1      -2.300  91.638 118.940  0.00  0.00     0.091 C 
ENDROOT
BRANCH   1   7
ATOM      7  O   LIG d   1      -4.705  91.225 118.710  0.00  0.00    -0.368 OA
BRANCH   7   8
ATOM      8  C   LIG d   1      -4.403  91.040 117.305  0.00  0.00     0.119 C 
BRANCH   8   9
ATOM      9  C   LIG d   1      -5.565  91.652 116.498  0.00  0.00     0.028 C 
ATOM     10  C   LIG d   1      -6.586  92.372 117.394  0.00  0.00     0.006 C 
ENDBRANCH   8   9
BRANCH   8  11
ATOM     11  C   LIG d   1      -4.387  89.555 116.930  0.00  0.00     0.028 C 
ATOM     12  C   LIG d   1      -5.412  89.205 115.840  0.00  0.00     0.006 C 
ENDBRANCH   8  11
ENDBRANCH   7   8
ENDBRANCH   1   7
BRANCH   6  13
ATOM     13  N   LIG d   1      -1.926  90.267 119.375  0.00  0.00    -0.311 N 
ATOM     14  C   LIG d   1      -1.218  89.427 118.622  0.00  0.00     0.210 C 
ATOM     15  C   LIG d   1      -0.959  88.055 119.253  0.00  0.00     0.109 C 
ATOM     16  O   LIG d   1      -0.753  89.698 117.505  0.00  0.00    -0.276 OA
ATOM     17  H   LIG d   1      -2.236  89.975 120.281  0.00  0.00     0.149 HD
ENDBRANCH   6  13
BRANCH   5  18
ATOM     18  N   LIG d   1       0.057  92.521 118.805  0.00  0.00     0.381 N 
ATOM     19  H   LIG d   1       0.740  92.422 119.529  0.00  0.00    -0.090 HD
ATOM     20  H   LIG d   1       0.285  93.336 118.265  0.00  0.00    -0.090 HD
ATOM     21  H   LIG d   1       0.062  91.714 118.221  0.00  0.00    -0.090 HD
ENDBRANCH   5  18
BRANCH   3  22
ATOM     22  C   LIG d   1      -3.472  95.643 119.666  0.00  0.00     0.382 C 
ATOM     23  O   LIG d   1      -4.683  95.970 119.655  0.00  0.00    -0.241 OA
ATOM     24  O   LIG d   1      -2.604  96.510 119.880  0.00  0.00    -0.241 OA
ENDBRANCH   3  22
TORSDOF 7
ENDMDL
