MODEL 1
REMARK VINA RESULT:      -5.3      0.000      0.000
REMARK  7 active torsions:
REMARK  status: ('A' for Active; 'I' for Inactive)
REMARK    1  A    between atoms: C_2  and  C_3 
REMARK    2  A    between atoms: C_3  and  O_6 
REMARK    3  A    between atoms: C_3  and  C_4 
REMARK    4  A    between atoms: C_7  and  O_6 
REMARK    5  A    between atoms: C_9  and  C_10 
REMARK    6  A    between atoms: N_15  and  C_14 
REMARK    7  A    between atoms: N_20  and  C_19 
REMARK       I    between atoms: C_22  and  N_20 
ROOT
ATOM      1  C   LIG d   1      -6.060  92.504 118.003  0.00  0.00     0.161 C 
ATOM      2  C   LIG d   1      -7.006  91.769 117.269  0.00  0.00     0.016 C 
ATOM      3  C   LIG d   1      -6.669  90.671 116.445  0.00  0.00     0.038 C 
ATOM      4  C   LIG d   1      -5.373  90.135 116.417  0.00  0.00     0.028 C 
ATOM      5  C   LIG d   1      -4.288  91.154 116.751  0.00  0.00    -0.047 C 
ATOM      6  C   LIG d   1      -4.657  91.865 118.073  0.00  0.00     0.091 C 
ENDROOT
BRANCH   1   7
ATOM      7  O   LIG d   1      -6.562  92.757 119.330  0.00  0.00    -0.368 OA
BRANCH   7   8
ATOM      8  C   LIG d   1      -6.977  94.118 119.606  0.00  0.00     0.119 C 
BRANCH   8   9
ATOM      9  C   LIG d   1      -8.513  94.166 119.491  0.00  0.00     0.028 C 
ATOM     10  C   LIG d   1      -8.984  94.892 118.219  0.00  0.00     0.006 C 
ENDBRANCH   8   9
BRANCH   8  11
ATOM     11  C   LIG d   1      -6.460  95.085 118.537  0.00  0.00     0.028 C 
ATOM     12  C   LIG d   1      -5.416  96.073 119.083  0.00  0.00     0.006 C 
ENDBRANCH   8  11
ENDBRANCH   7   8
ENDBRANCH   1   7
BRANCH   6  13
ATOM     13  N   LIG d   1      -3.692  92.938 118.429  0.00  0.00    -0.311 N 
ATOM     14  C   LIG d   1      -2.668  92.756 119.261  0.00  0.00     0.210 C 
ATOM     15  C   LIG d   1      -1.806  93.998 119.506  0.00  0.00     0.109 C 
ATOM     16  O   LIG d   1      -2.373  91.675 119.793  0.00  0.00    -0.276 OA
ATOM     17  H   LIG d   1      -3.839  93.838 118.017  0.00  0.00     0.149 HD
ENDBRANCH   6  13
BRANCH   5  18
ATOM     18  N   LIG d   1      -3.004  90.432 116.821  0.00  0.00     0.381 N 
ATOM     19  H   LIG d   1      -2.357  90.828 116.170  0.00  0.00    -0.090 HD
ATOM     20  H   LIG d   1      -3.157  89.472 116.569  0.00  0.00    -0.090 HD
ATOM     21  H   LIG d   1      -2.633  90.486 117.744  0.00  0.00    -0.090 HD
ENDBRANCH   5  18
BRANCH   3  22
ATOM     22  C   LIG d   1      -7.626  90.122 115.605  0.00  0.00     0.382 C 
ATOM     23  O   LIG d   1      -7.848  90.640 114.484  0.00  0.00    -0.241 OA
ATOM     24  O   LIG d   1      -8.302  89.142 115.973  0.00  0.00    -0.241 OA
ENDBRANCH   3  22
TORSDOF 7
ENDMDL
MODEL 2
REMARK VINA RESULT:      -4.9      1.770      4.679
REMARK  7 active torsions:
REMARK  status: ('A' for Active; 'I' for Inactive)
REMARK    1  A    between atoms: C_2  and  C_3 
REMARK    2  A    between atoms: C_3  and  O_6 
REMARK    3  A    between atoms: C_3  and  C_4 
REMARK    4  A    between atoms: C_7  and  O_6 
REMARK    5  A    between atoms: C_9  and  C_10 
REMARK    6  A    between atoms: N_15  and  C_14 
REMARK    7  A    between atoms: N_20  and  C_19 
REMARK       I    between atoms: C_22  and  N_20 
ROOT
ATOM      1  C   LIG d   1      -6.430  92.684 118.020  0.00  0.00     0.161 C 
ATOM      2  C   LIG d   1      -5.313  93.388 118.501  0.00  0.00     0.016 C 
ATOM      3  C   LIG d   1      -3.978  92.989 118.261  0.00  0.00     0.038 C 
ATOM      4  C   LIG d   1      -3.665  91.935 117.389  0.00  0.00     0.028 C 
ATOM      5  C   LIG d   1      -4.768  90.887 117.285  0.00  0.00    -0.047 C 
ATOM      6  C   LIG d   1      -6.106  91.596 116.974  0.00  0.00     0.091 C 
ENDROOT
BRANCH   1   7
ATOM      7  O   LIG d   1      -7.402  93.610 117.495  0.00  0.00    -0.368 OA
BRANCH   7   8
ATOM      8  C   LIG d   1      -7.788  94.694 118.374  0.00  0.00     0.119 C 
BRANCH   8   9
ATOM      9  C   LIG d   1      -9.299  94.556 118.643  0.00  0.00     0.028 C 
ATOM     10  C   LIG d   1      -9.601  93.633 119.836  0.00  0.00     0.006 C 
ENDBRANCH   8   9
BRANCH   8  11
ATOM     11  C   LIG d   1      -7.621  96.054 117.689  0.00  0.00     0.028 C 
ATOM     12  C   LIG d   1      -8.155  97.219 118.537  0.00  0.00     0.006 C 
ENDBRANCH   8  11
ENDBRANCH   7   8
ENDBRANCH   1   7
BRANCH   6  13
ATOM     13  N   LIG d   1      -7.253  90.651 116.939  0.00  0.00    -0.311 N 
ATOM     14  C   LIG d   1      -7.597  89.957 115.856  0.00  0.00     0.210 C 
ATOM     15  C   LIG d   1      -8.824  89.055 116.029  0.00  0.00     0.109 C 
ATOM     16  O   LIG d   1      -6.984  89.977 114.778  0.00  0.00    -0.276 OA
ATOM     17  H   LIG d   1      -7.787  90.550 117.780  0.00  0.00     0.149 HD
ENDBRANCH   6  13
BRANCH   5  18
ATOM     18  N   LIG d   1      -4.369  89.923 116.242  0.00  0.00     0.381 N 
ATOM     19  H   LIG d   1      -3.604  89.368 116.569  0.00  0.00    -0.090 HD
ATOM     20  H   LIG d   1      -4.066  90.430 115.429  0.00  0.00    -0.090 HD
ATOM     21  H   LIG d   1      -5.139  89.335 116.009  0.00  0.00    -0.090 HD
ENDBRANCH   5  18
BRANCH   3  22
ATOM     22  C   LIG d   1      -2.941  93.622 118.928  0.00  0.00     0.382 C 
ATOM     23  O   LIG d   1      -3.170  94.648 119.613  0.00  0.00    -0.241 OA
ATOM     24  O   LIG d   1      -1.772  93.206 118.819  0.00  0.00    -0.241 OA
ENDBRANCH   3  22
TORSDOF 7
ENDMDL
MODEL 3
REMARK VINA RESULT:      -4.7      1.728      4.858
REMARK  7 active torsions:
REMARK  status: ('A' for Active; 'I' for Inactive)
REMARK    1  A    between atoms: C_2  and  C_3 
REMARK    2  A    between atoms: C_3  and  O_6 
REMARK    3  A    between atoms: C_3  and  C_4 
REMARK    4  A    between atoms: C_7  and  O_6 
REMARK    5  A    between atoms: C_9  and  C_10 
REMARK    6  A    between atoms: N_15  and  C_14 
REMARK    7  A    between atoms: N_20  and  C_19 
REMARK       I    between atoms: C_22  and  N_20 
ROOT
ATOM      1  C   LIG d   1      -4.793  93.258 118.283  0.00  0.00     0.161 C 
ATOM      2  C   LIG d   1      -3.641  93.861 118.815  0.00  0.00     0.016 C 
ATOM      3  C   LIG d   1      -2.344  93.314 118.680  0.00  0.00     0.038 C 
ATOM      4  C   LIG d   1      -2.090  92.198 117.869  0.00  0.00     0.028 C 
ATOM      5  C   LIG d   1      -3.290  91.268 117.726  0.00  0.00    -0.047 C 
ATOM      6  C   LIG d   1      -4.522  92.099 117.301  0.00  0.00     0.091 C 
ENDROOT
BRANCH   1   7
ATOM      7  O   LIG d   1      -5.625  94.257 117.661  0.00  0.00    -0.368 OA
BRANCH   7   8
ATOM      8  C   LIG d   1      -6.557  94.943 118.533  0.00  0.00     0.119 C 
BRANCH   8   9
ATOM      9  C   LIG d   1      -7.351  93.867 119.299  0.00  0.00     0.028 C 
ATOM     10  C   LIG d   1      -8.856  93.913 118.983  0.00  0.00     0.006 C 
ENDBRANCH   8   9
BRANCH   8  11
ATOM     11  C   LIG d   1      -7.602  95.722 117.729  0.00  0.00     0.028 C 
ATOM     12  C   LIG d   1      -7.399  97.244 117.806  0.00  0.00     0.006 C 
ENDBRANCH   8  11
ENDBRANCH   7   8
ENDBRANCH   1   7
BRANCH   6  13
ATOM     13  N   LIG d   1      -5.759  91.279 117.220  0.00  0.00    -0.311 N 
ATOM     14  C   LIG d   1      -6.185  90.704 116.097  0.00  0.00     0.210 C 
ATOM     15  C   LIG d   1      -7.494  89.919 116.229  0.00  0.00     0.109 C 
ATOM     16  O   LIG d   1      -5.587  90.742 115.012  0.00  0.00    -0.276 OA
ATOM     17  H   LIG d   1      -6.289  91.170 118.062  0.00  0.00     0.149 HD
ENDBRANCH   6  13
BRANCH   5  18
ATOM     18  N   LIG d   1      -2.931  90.224 116.748  0.00  0.00     0.381 N 
ATOM     19  H   LIG d   1      -1.947  90.250 116.571  0.00  0.00    -0.090 HD
ATOM     20  H   LIG d   1      -3.412  90.408 115.885  0.00  0.00    -0.090 HD
ATOM     21  H   LIG d   1      -3.189  89.327 117.096  0.00  0.00    -0.090 HD
ENDBRANCH   5  18
BRANCH   3  22
ATOM     22  C   LIG d   1      -1.289  93.863 119.394  0.00  0.00     0.382 C 
ATOM     23  O   LIG d   1      -1.282  95.089 119.658  0.00  0.00    -0.241 OA
ATOM     24  O   LIG d   1      -0.324  93.155 119.739  0.00  0.00    -0.241 OA
ENDBRANCH   3  22
TORSDOF 7
ENDMDL
MODEL 4
REMARK VINA RESULT:      -4.7      2.125      4.755
REMARK  7 active torsions:
REMARK  status: ('A' for Active; 'I' for Inactive)
REMARK    1  A    between atoms: C_2  and  C_3 
REMARK    2  A    between atoms: C_3  and  O_6 
REMARK    3  A    between atoms: C_3  and  C_4 
REMARK    4  A    between atoms: C_7  and  O_6 
REMARK    5  A    between atoms: C_9  and  C_10 
REMARK    6  A    between atoms: N_15  and  C_14 
REMARK    7  A    between atoms: N_20  and  C_19 
REMARK       I    between atoms: C_22  and  N_20 
ROOT
ATOM      1  C   LIG d   1      -6.556  93.444 117.646  0.00  0.00     0.161 C 
ATOM      2  C   LIG d   1      -7.902  93.444 118.049  0.00  0.00     0.016 C 
ATOM      3  C   LIG d   1      -8.439  94.375 118.968  0.00  0.00     0.038 C 
ATOM      4  C   LIG d   1      -7.696  95.469 119.435  0.00  0.00     0.028 C 
ATOM      5  C   LIG d   1      -6.192  95.218 119.448  0.00  0.00    -0.047 C 
ATOM      6  C   LIG d   1      -5.758  94.698 118.059  0.00  0.00     0.091 C 
ENDROOT
BRANCH   1   7
ATOM      7  O   LIG d   1      -6.473  93.243 116.221  0.00  0.00    -0.368 OA
BRANCH   7   8
ATOM      8  C   LIG d   1      -5.820  92.025 115.786  0.00  0.00     0.119 C 
BRANCH   8   9
ATOM      9  C   LIG d   1      -6.779  91.307 114.816  0.00  0.00     0.028 C 
ATOM     10  C   LIG d   1      -7.539  90.152 115.490  0.00  0.00     0.006 C 
ENDBRANCH   8   9
BRANCH   8  11
ATOM     11  C   LIG d   1      -5.621  91.053 116.953  0.00  0.00     0.028 C 
ATOM     12  C   LIG d   1      -4.199  90.471 117.007  0.00  0.00     0.006 C 
ENDBRANCH   8  11
ENDBRANCH   7   8
ENDBRANCH   1   7
BRANCH   6  13
ATOM     13  N   LIG d   1      -4.314  94.347 118.011  0.00  0.00    -0.311 N 
ATOM     14  C   LIG d   1      -3.729  93.530 118.885  0.00  0.00     0.210 C 
ATOM     15  C   LIG d   1      -2.227  93.319 118.667  0.00  0.00     0.109 C 
ATOM     16  O   LIG d   1      -4.317  92.935 119.800  0.00  0.00    -0.276 OA
ATOM     17  H   LIG d   1      -3.768  94.761 117.281  0.00  0.00     0.149 HD
ENDBRANCH   6  13
BRANCH   5  18
ATOM     18  N   LIG d   1      -5.533  96.483 119.824  0.00  0.00     0.381 N 
ATOM     19  H   LIG d   1      -4.759  96.656 119.213  0.00  0.00    -0.090 HD
ATOM     20  H   LIG d   1      -5.181  96.401 120.762  0.00  0.00    -0.090 HD
ATOM     21  H   LIG d   1      -6.183  97.236 119.770  0.00  0.00    -0.090 HD
ENDBRANCH   5  18
BRANCH   3  22
ATOM     22  C   LIG d   1      -9.722  94.191 119.461  0.00  0.00     0.382 C 
ATOM     23  O   LIG d   1     -10.061  93.078 119.930  0.00  0.00    -0.241 OA
ATOM     24  O   LIG d   1     -10.559  95.112 119.401  0.00  0.00    -0.241 OA
ENDBRANCH   3  22
TORSDOF 7
ENDMDL
MODEL 5
REMARK VINA RESULT:      -4.7      8.027     11.018
REMARK  7 active torsions:
REMARK  status: ('A' for Active; 'I' for Inactive)
REMARK    1  A    between atoms: C_2  and  C_3 
REMARK    2  A    between atoms: C_3  and  O_6 
REMARK    3  A    between atoms: C_3  and  C_4 
REMARK    4  A    between atoms: C_7  and  O_6 
REMARK    5  A    between atoms: C_9  and  C_10 
REMARK    6  A    between atoms: N_15  and  C_14 
REMARK    7  A    between atoms: N_20  and  C_19 
REMARK       I    between atoms: C_22  and  N_20 
ROOT
ATOM      1  C   LIG d   1       3.408  88.960 115.906  0.00  0.00     0.161 C 
ATOM      2  C   LIG d   1       4.218  89.739 116.749  0.00  0.00     0.016 C 
ATOM      3  C   LIG d   1       5.552  90.090 116.441  0.00  0.00     0.038 C 
ATOM      4  C   LIG d   1       6.122  89.810 115.190  0.00  0.00     0.028 C 
ATOM      5  C   LIG d   1       5.514  88.589 114.507  0.00  0.00    -0.047 C 
ATOM      6  C   LIG d   1       3.976  88.739 114.488  0.00  0.00     0.091 C 
ENDROOT
BRANCH   1   7
ATOM      7  O   LIG d   1       2.087  89.530 115.834  0.00  0.00    -0.368 OA
BRANCH   7   8
ATOM      8  C   LIG d   1       1.258  89.370 117.011  0.00  0.00     0.119 C 
BRANCH   8   9
ATOM      9  C   LIG d   1       0.487  88.044 116.856  0.00  0.00     0.028 C 
ATOM     10  C   LIG d   1      -1.021  88.210 117.109  0.00  0.00     0.006 C 
ENDBRANCH   8   9
BRANCH   8  11
ATOM     11  C   LIG d   1       0.182  90.457 117.088  0.00  0.00     0.028 C 
ATOM     12  C   LIG d   1       0.435  91.466 118.220  0.00  0.00     0.006 C 
ENDBRANCH   8  11
ENDBRANCH   7   8
ENDBRANCH   1   7
BRANCH   6  13
ATOM     13  N   LIG d   1       3.297  87.549 113.912  0.00  0.00    -0.311 N 
ATOM     14  C   LIG d   1       2.360  87.624 112.969  0.00  0.00     0.210 C 
ATOM     15  C   LIG d   1       1.775  86.278 112.529  0.00  0.00     0.109 C 
ATOM     16  O   LIG d   1       1.981  88.675 112.431  0.00  0.00    -0.276 OA
ATOM     17  H   LIG d   1       3.567  86.653 114.269  0.00  0.00     0.149 HD
ENDBRANCH   6  13
BRANCH   5  18
ATOM     18  N   LIG d   1       6.102  88.495 113.157  0.00  0.00     0.381 N 
ATOM     19  H   LIG d   1       5.408  88.710 112.469  0.00  0.00    -0.090 HD
ATOM     20  H   LIG d   1       6.416  87.552 113.004  0.00  0.00    -0.090 HD
ATOM     21  H   LIG d   1       6.869  89.125 113.074  0.00  0.00    -0.090 HD
ENDBRANCH   5  18
BRANCH   3  22
ATOM     22  C   LIG d   1       6.345  90.693 117.405  0.00  0.00     0.382 C 
ATOM     23  O   LIG d   1       5.822  91.437 118.270  0.00  0.00    -0.241 OA
ATOM     24  O   LIG d   1       7.581  90.539 117.394  0.00  0.00    -0.241 OA
ENDBRANCH   3  22
TORSDOF 7
ENDMDL
MODEL 6
REMARK VINA RESULT:      -4.6      8.231     11.322
REMARK  7 active torsions:
REMARK  status: ('A' for Active; 'I' for Inactive)
REMARK    1  A    between atoms: C_2  and  C_3 
REMARK    2  A    between atoms: C_3  and  O_6 
REMARK    3  A    between atoms: C_3  and  C_4 
REMARK    4  A    between atoms: C_7  and  O_6 
REMARK    5  A    between atoms: C_9  and  C_10 
REMARK    6  A    between atoms: N_15  and  C_14 
REMARK    7  A    between atoms: N_20  and  C_19 
REMARK       I    between atoms: C_22  and  N_20 
ROOT
ATOM      1  C   LIG d   1       3.373  88.861 115.835  0.00  0.00     0.161 C 
ATOM      2  C   LIG d   1       4.146  89.650 116.703  0.00  0.00     0.016 C 
ATOM      3  C   LIG d   1       5.474  90.044 116.420  0.00  0.00     0.038 C 
ATOM      4  C   LIG d   1       6.071  89.799 115.175  0.00  0.00     0.028 C 
ATOM      5  C   LIG d   1       5.509  88.573 114.464  0.00  0.00    -0.047 C 
ATOM      6  C   LIG d   1       3.968  88.678 114.423  0.00  0.00     0.091 C 
ENDROOT
BRANCH   1   7
ATOM      7  O   LIG d   1       2.036  89.394 115.750  0.00  0.00    -0.368 OA
BRANCH   7   8
ATOM      8  C   LIG d   1       0.988  88.582 116.334  0.00  0.00     0.119 C 
BRANCH   8   9
ATOM      9  C   LIG d   1       0.414  89.360 117.534  0.00  0.00     0.028 C 
ATOM     10  C   LIG d   1       0.649  90.876 117.418  0.00  0.00     0.006 C 
ENDBRANCH   8   9
BRANCH   8  11
ATOM     11  C   LIG d   1       1.550  87.285 116.923  0.00  0.00     0.028 C 
ATOM     12  C   LIG d   1       0.955  86.027 116.271  0.00  0.00     0.006 C 
ENDBRANCH   8  11
ENDBRANCH   7   8
ENDBRANCH   1   7
BRANCH   6  13
ATOM     13  N   LIG d   1       3.333  87.478 113.819  0.00  0.00    -0.311 N 
ATOM     14  C   LIG d   1       2.361  87.541 112.911  0.00  0.00     0.210 C 
ATOM     15  C   LIG d   1       1.833  86.185 112.433  0.00  0.00     0.109 C 
ATOM     16  O   LIG d   1       1.908  88.592 112.432  0.00  0.00    -0.276 OA
ATOM     17  H   LIG d   1       3.662  86.584 114.128  0.00  0.00     0.149 HD
ENDBRANCH   6  13
BRANCH   5  18
ATOM     18  N   LIG d   1       6.121  88.516 113.123  0.00  0.00     0.381 N 
ATOM     19  H   LIG d   1       6.068  89.415 112.688  0.00  0.00    -0.090 HD
ATOM     20  H   LIG d   1       5.607  87.862 112.559  0.00  0.00    -0.090 HD
ATOM     21  H   LIG d   1       7.072  88.229 113.194  0.00  0.00    -0.090 HD
ENDBRANCH   5  18
BRANCH   3  22
ATOM     22  C   LIG d   1       6.234  90.655 117.406  0.00  0.00     0.382 C 
ATOM     23  O   LIG d   1       7.478  90.495 117.428  0.00  0.00    -0.241 OA
ATOM     24  O   LIG d   1       5.686  91.329 118.299  0.00  0.00    -0.241 OA
ENDBRANCH   3  22
TORSDOF 7
ENDMDL
MODEL 7
REMARK VINA RESULT:      -4.6      3.050      7.009
REMARK  7 active torsions:
REMARK  status: ('A' for Active; 'I' for Inactive)
REMARK    1  A    between atoms: C_2  and  C_3 
REMARK    2  A    between atoms: C_3  and  O_6 
REMARK    3  A    between atoms: C_3  and  C_4 
REMARK    4  A    between atoms: C_7  and  O_6 
REMARK    5  A    between atoms: C_9  and  C_10 
REMARK    6  A    between atoms: N_15  and  C_14 
REMARK    7  A    between atoms: N_20  and  C_19 
REMARK       I    between atoms: C_22  and  N_20 
ROOT
ATOM      1  C   LIG d   1      -2.997  90.403 117.349  0.00  0.00     0.161 C 
ATOM      2  C   LIG d   1      -1.938  90.941 118.100  0.00  0.00     0.016 C 
ATOM      3  C   LIG d   1      -1.928  92.266 118.592  0.00  0.00     0.038 C 
ATOM      4  C   LIG d   1      -3.051  93.102 118.495  0.00  0.00     0.028 C 
ATOM      5  C   LIG d   1      -3.949  92.774 117.307  0.00  0.00    -0.047 C 
ATOM      6  C   LIG d   1      -4.277  91.264 117.328  0.00  0.00     0.091 C 
ENDROOT
BRANCH   1   7
ATOM      7  O   LIG d   1      -3.296  89.071 117.811  0.00  0.00    -0.368 OA
BRANCH   7   8
ATOM      8  C   LIG d   1      -2.173  88.299 118.302  0.00  0.00     0.119 C 
BRANCH   8   9
ATOM      9  C   LIG d   1      -1.877  87.200 117.263  0.00  0.00     0.028 C 
ATOM     10  C   LIG d   1      -0.532  87.414 116.549  0.00  0.00     0.006 C 
ENDBRANCH   8   9
BRANCH   8  11
ATOM     11  C   LIG d   1      -2.530  87.553 119.591  0.00  0.00     0.028 C 
ATOM     12  C   LIG d   1      -1.818  86.197 119.711  0.00  0.00     0.006 C 
ENDBRANCH   8  11
ENDBRANCH   7   8
ENDBRANCH   1   7
BRANCH   6  13
ATOM     13  N   LIG d   1      -5.083  90.843 116.152  0.00  0.00    -0.311 N 
ATOM     14  C   LIG d   1      -6.415  90.818 116.147  0.00  0.00     0.210 C 
ATOM     15  C   LIG d   1      -7.047  90.332 114.839  0.00  0.00     0.109 C 
ATOM     16  O   LIG d   1      -7.133  91.182 117.090  0.00  0.00    -0.276 OA
ATOM     17  H   LIG d   1      -4.581  90.560 115.333  0.00  0.00     0.149 HD
ENDBRANCH   6  13
BRANCH   5  18
ATOM     18  N   LIG d   1      -5.147  93.628 117.405  0.00  0.00     0.381 N 
ATOM     19  H   LIG d   1      -5.285  93.911 118.355  0.00  0.00    -0.090 HD
ATOM     20  H   LIG d   1      -5.949  93.097 117.114  0.00  0.00    -0.090 HD
ATOM     21  H   LIG d   1      -5.043  94.431 116.824  0.00  0.00    -0.090 HD
ENDBRANCH   5  18
BRANCH   3  22
ATOM     22  C   LIG d   1      -0.771  92.781 119.155  0.00  0.00     0.382 C 
ATOM     23  O   LIG d   1      -0.566  94.019 119.146  0.00  0.00    -0.241 OA
ATOM     24  O   LIG d   1       0.092  92.021 119.634  0.00  0.00    -0.241 OA
ENDBRANCH   3  22
TORSDOF 7
ENDMDL
MODEL 8
REMARK VINA RESULT:      -4.5      2.291      4.741
REMARK  7 active torsions:
REMARK  status: ('A' for Active; 'I' for Inactive)
REMARK    1  A    between atoms: C_2  and  C_3 
REMARK    2  A    between atoms: C_3  and  O_6 
REMARK    3  A    between atoms: C_3  and  C_4 
REMARK    4  A    between atoms: C_7  and  O_6 
REMARK    5  A    between atoms: C_9  and  C_10 
REMARK    6  A    between atoms: N_15  and  C_14 
REMARK    7  A    between atoms: N_20  and  C_19 
REMARK       I    between atoms: C_22  and  N_20 
ROOT
ATOM      1  C   LIG d   1      -4.184  92.471 118.072  0.00  0.00     0.161 C 
ATOM      2  C   LIG d   1      -3.245  91.426 118.047  0.00  0.00     0.016 C 
ATOM      3  C   LIG d   1      -3.469  90.195 117.389  0.00  0.00     0.038 C 
ATOM      4  C   LIG d   1      -4.594  89.981 116.578  0.00  0.00     0.028 C 
ATOM      5  C   LIG d   1      -5.802  90.818 116.985  0.00  0.00    -0.047 C 
ATOM      6  C   LIG d   1      -5.371  92.298 117.101  0.00  0.00     0.091 C 
ENDROOT
BRANCH   1   7
ATOM      7  O   LIG d   1      -3.522  93.729 117.835  0.00  0.00    -0.368 OA
BRANCH   7   8
ATOM      8  C   LIG d   1      -3.273  94.548 119.004  0.00  0.00     0.119 C 
BRANCH   8   9
ATOM      9  C   LIG d   1      -2.162  93.861 119.822  0.00  0.00     0.028 C 
ATOM     10  C   LIG d   1      -0.805  94.570 119.681  0.00  0.00     0.006 C 
ENDBRANCH   8   9
BRANCH   8  11
ATOM     11  C   LIG d   1      -4.493  94.587 119.928  0.00  0.00     0.028 C 
ATOM     12  C   LIG d   1      -5.405  95.795 119.662  0.00  0.00     0.006 C 
ENDBRANCH   8  11
ENDBRANCH   7   8
ENDBRANCH   1   7
BRANCH   6  13
ATOM     13  N   LIG d   1      -6.473  93.174 117.577  0.00  0.00    -0.311 N 
ATOM     14  C   LIG d   1      -7.376  93.722 116.765  0.00  0.00     0.210 C 
ATOM     15  C   LIG d   1      -8.416  94.608 117.459  0.00  0.00     0.109 C 
ATOM     16  O   LIG d   1      -7.435  93.532 115.541  0.00  0.00    -0.276 OA
ATOM     17  H   LIG d   1      -6.519  93.356 118.560  0.00  0.00     0.149 HD
ENDBRANCH   6  13
BRANCH   5  18
ATOM     18  N   LIG d   1      -6.856  90.600 115.977  0.00  0.00     0.381 N 
ATOM     19  H   LIG d   1      -7.508  91.358 115.998  0.00  0.00    -0.090 HD
ATOM     20  H   LIG d   1      -7.349  89.753 116.200  0.00  0.00    -0.090 HD
ATOM     21  H   LIG d   1      -6.450  90.527 115.070  0.00  0.00    -0.090 HD
ENDBRANCH   5  18
BRANCH   3  22
ATOM     22  C   LIG d   1      -2.579  89.147 117.571  0.00  0.00     0.382 C 
ATOM     23  O   LIG d   1      -2.929  88.134 118.223  0.00  0.00    -0.241 OA
ATOM     24  O   LIG d   1      -1.417  89.221 117.129  0.00  0.00    -0.241 OA
ENDBRANCH   3  22
TORSDOF 7
ENDMDL
MODEL 9
REMARK VINA RESULT:      -4.5      2.544      5.155
REMARK  7 active torsions:
REMARK  status: ('A' for Active; 'I' for Inactive)
REMARK    1  A    between atoms: C_2  and  C_3 
REMARK    2  A    between atoms: C_3  and  O_6 
REMARK    3  A    between atoms: C_3  and  C_4 
REMARK    4  A    between atoms: C_7  and  O_6 
REMARK    5  A    between atoms: C_9  and  C_10 
REMARK    6  A    between atoms: N_15  and  C_14 
REMARK    7  A    between atoms: N_20  and  C_19 
REMARK       I    between atoms: C_22  and  N_20 
ROOT
ATOM      1  C   LIG d   1      -4.006  91.739 118.030  0.00  0.00     0.161 C 
ATOM      2  C   LIG d   1      -4.135  93.083 118.416  0.00  0.00     0.016 C 
ATOM      3  C   LIG d   1      -3.073  93.841 118.962  0.00  0.00     0.038 C 
ATOM      4  C   LIG d   1      -1.762  93.346 119.019  0.00  0.00     0.028 C 
ATOM      5  C   LIG d   1      -1.692  91.825 119.108  0.00  0.00    -0.047 C 
ATOM      6  C   LIG d   1      -2.556  91.216 117.980  0.00  0.00     0.091 C 
ENDROOT
BRANCH   1   7
ATOM      7  O   LIG d   1      -4.657  91.531 116.760  0.00  0.00    -0.368 OA
BRANCH   7   8
ATOM      8  C   LIG d   1      -6.105  91.571 116.773  0.00  0.00     0.119 C 
BRANCH   8   9
ATOM      9  C   LIG d   1      -6.610  90.244 116.172  0.00  0.00     0.028 C 
ATOM     10  C   LIG d   1      -7.287  90.439 114.805  0.00  0.00     0.006 C 
ENDBRANCH   8   9
BRANCH   8  11
ATOM     11  C   LIG d   1      -6.641  92.666 115.845  0.00  0.00     0.028 C 
ATOM     12  C   LIG d   1      -7.343  93.801 116.606  0.00  0.00     0.006 C 
ENDBRANCH   8  11
ENDBRANCH   7   8
ENDBRANCH   1   7
BRANCH   6  13
ATOM     13  N   LIG d   1      -2.610  89.732 118.047  0.00  0.00    -0.311 N 
ATOM     14  C   LIG d   1      -1.721  88.939 117.452  0.00  0.00     0.210 C 
ATOM     15  C   LIG d   1      -1.972  87.438 117.630  0.00  0.00     0.109 C 
ATOM     16  O   LIG d   1      -0.729  89.335 116.821  0.00  0.00    -0.276 OA
ATOM     17  H   LIG d   1      -3.364  89.326 118.565  0.00  0.00     0.149 HD
ENDBRANCH   6  13
BRANCH   5  18
ATOM     18  N   LIG d   1      -0.271  91.439 119.021  0.00  0.00     0.381 N 
ATOM     19  H   LIG d   1       0.101  91.303 119.940  0.00  0.00    -0.090 HD
ATOM     20  H   LIG d   1       0.242  92.182 118.580  0.00  0.00    -0.090 HD
ATOM     21  H   LIG d   1      -0.177  90.601 118.490  0.00  0.00    -0.090 HD
ENDBRANCH   5  18
BRANCH   3  22
ATOM     22  C   LIG d   1      -3.327  95.095 119.496  0.00  0.00     0.382 C 
ATOM     23  O   LIG d   1      -2.388  95.911 119.654  0.00  0.00    -0.241 OA
ATOM     24  O   LIG d   1      -4.477  95.404 119.862  0.00  0.00    -0.241 OA
ENDBRANCH   3  22
TORSDOF 7
ENDMDL
