MODEL 1
REMARK VINA RESULT:      -5.4      0.000      0.000
REMARK  7 active torsions:
REMARK  status: ('A' for Active; 'I' for Inactive)
REMARK    1  A    between atoms: C_2  and  C_3 
REMARK    2  A    between atoms: C_3  and  O_6 
REMARK    3  A    between atoms: C_3  and  C_4 
REMARK    4  A    between atoms: C_7  and  O_6 
REMARK    5  A    between atoms: C_9  and  C_10 
REMARK    6  A    between atoms: N_15  and  C_14 
REMARK    7  A    between atoms: N_20  and  C_19 
REMARK       I    between atoms: C_22  and  N_20 
ROOT
ATOM      1  C   LIG d   1      -5.159  91.118 117.024  0.00  0.00     0.161 C 
ATOM      2  C   LIG d   1      -4.030  90.293 117.158  0.00  0.00     0.016 C 
ATOM      3  C   LIG d   1      -3.027  90.500 118.133  0.00  0.00     0.038 C 
ATOM      4  C   LIG d   1      -3.162  91.464 119.143  0.00  0.00     0.028 C 
ATOM      5  C   LIG d   1      -4.040  92.644 118.741  0.00  0.00    -0.047 C 
ATOM      6  C   LIG d   1      -5.380  92.108 118.187  0.00  0.00     0.091 C 
ENDROOT
BRANCH   1   7
ATOM      7  O   LIG d   1      -6.335  90.309 116.825  0.00  0.00    -0.368 OA
BRANCH   7   8
ATOM      8  C   LIG d   1      -6.661  89.986 115.450  0.00  0.00     0.119 C 
BRANCH   8   9
ATOM      9  C   LIG d   1      -6.218  91.176 114.577  0.00  0.00     0.028 C 
ATOM     10  C   LIG d   1      -7.316  91.627 113.599  0.00  0.00     0.006 C 
ENDBRANCH   8   9
BRANCH   8  11
ATOM     11  C   LIG d   1      -8.175  89.877 115.248  0.00  0.00     0.028 C 
ATOM     12  C   LIG d   1      -8.831  88.861 116.197  0.00  0.00     0.006 C 
ENDBRANCH   8  11
ENDBRANCH   7   8
ENDBRANCH   1   7
BRANCH   6  13
ATOM     13  N   LIG d   1      -6.264  93.194 117.692  0.00  0.00    -0.311 N 
ATOM     14  C   LIG d   1      -7.238  93.736 118.421  0.00  0.00     0.210 C 
ATOM     15  C   LIG d   1      -8.045  94.829 117.713  0.00  0.00     0.109 C 
ATOM     16  O   LIG d   1      -7.491  93.437 119.598  0.00  0.00    -0.276 OA
ATOM     17  H   LIG d   1      -6.109  93.519 116.758  0.00  0.00     0.149 HD
ENDBRANCH   6  13
BRANCH   5  18
ATOM     18  N   LIG d   1      -4.207  93.501 119.930  0.00  0.00     0.381 N 
ATOM     19  H   LIG d   1      -4.987  94.113 119.799  0.00  0.00    -0.090 HD
ATOM     20  H   LIG d   1      -3.382  94.062 120.045  0.00  0.00    -0.090 HD
ATOM     21  H   LIG d   1      -4.350  92.937 120.739  0.00  0.00    -0.090 HD
ENDBRANCH   5  18
BRANCH   3  22
ATOM     22  C   LIG d   1      -1.854  89.763 118.078  0.00  0.00     0.382 C 
ATOM     23  O   LIG d   1      -1.653  88.841 118.906  0.00  0.00    -0.241 OA
ATOM     24  O   LIG d   1      -0.974  90.037 117.241  0.00  0.00    -0.241 OA
ENDBRANCH   3  22
TORSDOF 7
ENDMDL
MODEL 2
REMARK VINA RESULT:      -5.2      1.497      4.663
REMARK  7 active torsions:
REMARK  status: ('A' for Active; 'I' for Inactive)
REMARK    1  A    between atoms: C_2  and  C_3 
REMARK    2  A    between atoms: C_3  and  O_6 
REMARK    3  A    between atoms: C_3  and  C_4 
REMARK    4  A    between atoms: C_7  and  O_6 
REMARK    5  A    between atoms: C_9  and  C_10 
REMARK    6  A    between atoms: N_15  and  C_14 
REMARK    7  A    between atoms: N_20  and  C_19 
REMARK       I    between atoms: C_22  and  N_20 
ROOT
ATOM      1  C   LIG d   1      -5.895  91.700 117.354  0.00  0.00     0.161 C 
ATOM      2  C   LIG d   1      -6.800  92.754 117.566  0.00  0.00     0.016 C 
ATOM      3  C   LIG d   1      -6.572  93.802 118.486  0.00  0.00     0.038 C 
ATOM      4  C   LIG d   1      -5.346  93.951 119.152  0.00  0.00     0.028 C 
ATOM      5  C   LIG d   1      -4.601  92.635 119.349  0.00  0.00    -0.047 C 
ATOM      6  C   LIG d   1      -4.504  91.905 117.990  0.00  0.00     0.091 C 
ENDROOT
BRANCH   1   7
ATOM      7  O   LIG d   1      -5.767  91.443 115.942  0.00  0.00    -0.368 OA
BRANCH   7   8
ATOM      8  C   LIG d   1      -6.478  90.285 115.438  0.00  0.00     0.119 C 
BRANCH   8   9
ATOM      9  C   LIG d   1      -7.242  90.725 114.174  0.00  0.00     0.028 C 
ATOM     10  C   LIG d   1      -6.926  92.176 113.772  0.00  0.00     0.006 C 
ENDBRANCH   8   9
BRANCH   8  11
ATOM     11  C   LIG d   1      -7.556  89.822 116.422  0.00  0.00     0.028 C 
ATOM     12  C   LIG d   1      -8.779  89.209 115.721  0.00  0.00     0.006 C 
ENDBRANCH   8  11
ENDBRANCH   7   8
ENDBRANCH   1   7
BRANCH   6  13
ATOM     13  N   LIG d   1      -3.863  90.569 118.108  0.00  0.00    -0.311 N 
ATOM     14  C   LIG d   1      -2.548  90.377 118.018  0.00  0.00     0.210 C 
ATOM     15  C   LIG d   1      -2.098  88.918 118.148  0.00  0.00     0.109 C 
ATOM     16  O   LIG d   1      -1.709  91.279 117.875  0.00  0.00    -0.276 OA
ATOM     17  H   LIG d   1      -4.467  89.785 118.257  0.00  0.00     0.149 HD
ENDBRANCH   6  13
BRANCH   5  18
ATOM     18  N   LIG d   1      -3.282  92.952 119.930  0.00  0.00     0.381 N 
ATOM     19  H   LIG d   1      -3.389  93.215 120.889  0.00  0.00    -0.090 HD
ATOM     20  H   LIG d   1      -2.886  93.730 119.432  0.00  0.00    -0.090 HD
ATOM     21  H   LIG d   1      -2.680  92.162 119.860  0.00  0.00    -0.090 HD
ENDBRANCH   5  18
BRANCH   3  22
ATOM     22  C   LIG d   1      -7.592  94.695 118.778  0.00  0.00     0.382 C 
ATOM     23  O   LIG d   1      -8.738  94.515 118.300  0.00  0.00    -0.241 OA
ATOM     24  O   LIG d   1      -7.370  95.702 119.477  0.00  0.00    -0.241 OA
ENDBRANCH   3  22
TORSDOF 7
ENDMDL
MODEL 3
REMARK VINA RESULT:      -5.2      0.372      1.755
REMARK  7 active torsions:
REMARK  status: ('A' for Active; 'I' for Inactive)
REMARK    1  A    between atoms: C_2  and  C_3 
REMARK    2  A    between atoms: C_3  and  O_6 
REMARK    3  A    between atoms: C_3  and  C_4 
REMARK    4  A    between atoms: C_7  and  O_6 
REMARK    5  A    between atoms: C_9  and  C_10 
REMARK    6  A    between atoms: N_15  and  C_14 
REMARK    7  A    between atoms: N_20  and  C_19 
REMARK       I    between atoms: C_22  and  N_20 
ROOT
ATOM      1  C   LIG d   1      -5.197  91.087 117.160  0.00  0.00     0.161 C 
ATOM      2  C   LIG d   1      -4.105  90.217 117.320  0.00  0.00     0.016 C 
ATOM      3  C   LIG d   1      -3.077  90.424 118.268  0.00  0.00     0.038 C 
ATOM      4  C   LIG d   1      -3.151  91.442 119.231  0.00  0.00     0.028 C 
ATOM      5  C   LIG d   1      -3.979  92.641 118.783  0.00  0.00    -0.047 C 
ATOM      6  C   LIG d   1      -5.352  92.142 118.276  0.00  0.00     0.091 C 
ENDROOT
BRANCH   1   7
ATOM      7  O   LIG d   1      -6.412  90.325 117.019  0.00  0.00    -0.368 OA
BRANCH   7   8
ATOM      8  C   LIG d   1      -7.208  90.607 115.841  0.00  0.00     0.119 C 
BRANCH   8   9
ATOM      9  C   LIG d   1      -7.908  89.297 115.432  0.00  0.00     0.028 C 
ATOM     10  C   LIG d   1      -8.989  88.870 116.439  0.00  0.00     0.006 C 
ENDBRANCH   8   9
BRANCH   8  11
ATOM     11  C   LIG d   1      -6.324  90.985 114.649  0.00  0.00     0.028 C 
ATOM     12  C   LIG d   1      -6.856  92.201 113.874  0.00  0.00     0.006 C 
ENDBRANCH   8  11
ENDBRANCH   7   8
ENDBRANCH   1   7
BRANCH   6  13
ATOM     13  N   LIG d   1      -6.193  93.243 117.740  0.00  0.00    -0.311 N 
ATOM     14  C   LIG d   1      -7.316  93.658 118.323  0.00  0.00     0.210 C 
ATOM     15  C   LIG d   1      -8.042  94.794 117.595  0.00  0.00     0.109 C 
ATOM     16  O   LIG d   1      -7.764  93.216 119.392  0.00  0.00    -0.276 OA
ATOM     17  H   LIG d   1      -5.887  93.680 116.892  0.00  0.00     0.149 HD
ENDBRANCH   6  13
BRANCH   5  18
ATOM     18  N   LIG d   1      -4.086  93.563 119.930  0.00  0.00     0.381 N 
ATOM     19  H   LIG d   1      -3.236  94.081 120.029  0.00  0.00    -0.090 HD
ATOM     20  H   LIG d   1      -4.227  93.025 120.767  0.00  0.00    -0.090 HD
ATOM     21  H   LIG d   1      -4.851  94.187 119.795  0.00  0.00    -0.090 HD
ENDBRANCH   5  18
BRANCH   3  22
ATOM     22  C   LIG d   1      -1.941  89.631 118.234  0.00  0.00     0.382 C 
ATOM     23  O   LIG d   1      -1.206  89.632 117.216  0.00  0.00    -0.241 OA
ATOM     24  O   LIG d   1      -1.664  88.881 119.189  0.00  0.00    -0.241 OA
ENDBRANCH   3  22
TORSDOF 7
ENDMDL
MODEL 4
REMARK VINA RESULT:      -5.0      2.007      5.358
REMARK  7 active torsions:
REMARK  status: ('A' for Active; 'I' for Inactive)
REMARK    1  A    between atoms: C_2  and  C_3 
REMARK    2  A    between atoms: C_3  and  O_6 
REMARK    3  A    between atoms: C_3  and  C_4 
REMARK    4  A    between atoms: C_7  and  O_6 
REMARK    5  A    between atoms: C_9  and  C_10 
REMARK    6  A    between atoms: N_15  and  C_14 
REMARK    7  A    between atoms: N_20  and  C_19 
REMARK       I    between atoms: C_22  and  N_20 
ROOT
ATOM      1  C   LIG d   1      -5.760  92.391 118.095  0.00  0.00     0.161 C 
ATOM      2  C   LIG d   1      -6.679  91.785 117.223  0.00  0.00     0.016 C 
ATOM      3  C   LIG d   1      -6.345  90.712 116.365  0.00  0.00     0.038 C 
ATOM      4  C   LIG d   1      -5.100  90.069 116.430  0.00  0.00     0.028 C 
ATOM      5  C   LIG d   1      -3.979  90.970 116.938  0.00  0.00    -0.047 C 
ATOM      6  C   LIG d   1      -4.427  91.631 118.261  0.00  0.00     0.091 C 
ENDROOT
BRANCH   1   7
ATOM      7  O   LIG d   1      -6.376  92.608 119.380  0.00  0.00    -0.368 OA
BRANCH   7   8
ATOM      8  C   LIG d   1      -6.739  93.976 119.690  0.00  0.00     0.119 C 
BRANCH   8   9
ATOM      9  C   LIG d   1      -8.148  94.222 119.117  0.00  0.00     0.028 C 
ATOM     10  C   LIG d   1      -8.156  95.296 118.017  0.00  0.00     0.006 C 
ENDBRANCH   8   9
BRANCH   8  11
ATOM     11  C   LIG d   1      -5.828  94.972 118.966  0.00  0.00     0.028 C 
ATOM     12  C   LIG d   1      -5.095  95.919 119.930  0.00  0.00     0.006 C 
ENDBRANCH   8  11
ENDBRANCH   7   8
ENDBRANCH   1   7
BRANCH   6  13
ATOM     13  N   LIG d   1      -3.422  92.594 118.782  0.00  0.00    -0.311 N 
ATOM     14  C   LIG d   1      -2.341  92.226 119.468  0.00  0.00     0.210 C 
ATOM     15  C   LIG d   1      -1.445  93.380 119.930  0.00  0.00     0.109 C 
ATOM     16  O   LIG d   1      -2.022  91.052 119.709  0.00  0.00    -0.276 OA
ATOM     17  H   LIG d   1      -3.586  93.566 118.605  0.00  0.00     0.149 HD
ENDBRANCH   6  13
BRANCH   5  18
ATOM     18  N   LIG d   1      -2.771  90.138 117.087  0.00  0.00     0.381 N 
ATOM     19  H   LIG d   1      -1.989  90.596 116.662  0.00  0.00    -0.090 HD
ATOM     20  H   LIG d   1      -2.919  89.263 116.615  0.00  0.00    -0.090 HD
ATOM     21  H   LIG d   1      -2.586  89.975 118.052  0.00  0.00    -0.090 HD
ENDBRANCH   5  18
BRANCH   3  22
ATOM     22  C   LIG d   1      -7.250  90.297 115.399  0.00  0.00     0.382 C 
ATOM     23  O   LIG d   1      -7.532  91.053 114.439  0.00  0.00    -0.241 OA
ATOM     24  O   LIG d   1      -7.822  89.195 115.501  0.00  0.00    -0.241 OA
ENDBRANCH   3  22
TORSDOF 7
ENDMDL
MODEL 5
REMARK VINA RESULT:      -4.9      2.261      4.870
REMARK  7 active torsions:
REMARK  status: ('A' for Active; 'I' for Inactive)
REMARK    1  A    between atoms: C_2  and  C_3 
REMARK    2  A    between atoms: C_3  and  O_6 
REMARK    3  A    between atoms: C_3  and  C_4 
REMARK    4  A    between atoms: C_7  and  O_6 
REMARK    5  A    between atoms: C_9  and  C_10 
REMARK    6  A    between atoms: N_15  and  C_14 
REMARK    7  A    between atoms: N_20  and  C_19 
REMARK       I    between atoms: C_22  and  N_20 
ROOT
ATOM      1  C   LIG d   1      -6.580  92.286 118.413  0.00  0.00     0.161 C 
ATOM      2  C   LIG d   1      -5.494  92.922 119.038  0.00  0.00     0.016 C 
ATOM      3  C   LIG d   1      -4.144  92.619 118.748  0.00  0.00     0.038 C 
ATOM      4  C   LIG d   1      -3.785  91.761 117.698  0.00  0.00     0.028 C 
ATOM      5  C   LIG d   1      -4.849  90.717 117.379  0.00  0.00    -0.047 C 
ATOM      6  C   LIG d   1      -6.208  91.428 117.186  0.00  0.00     0.091 C 
ENDROOT
BRANCH   1   7
ATOM      7  O   LIG d   1      -7.578  93.263 118.057  0.00  0.00    -0.368 OA
BRANCH   7   8
ATOM      8  C   LIG d   1      -7.347  94.613 118.529  0.00  0.00     0.119 C 
BRANCH   8   9
ATOM      9  C   LIG d   1      -7.979  94.728 119.930  0.00  0.00     0.028 C 
ATOM     10  C   LIG d   1      -9.475  94.370 119.930  0.00  0.00     0.006 C 
ENDBRANCH   8   9
BRANCH   8  11
ATOM     11  C   LIG d   1      -8.085  95.640 117.666  0.00  0.00     0.028 C 
ATOM     12  C   LIG d   1      -7.578  97.075 117.882  0.00  0.00     0.006 C 
ENDBRANCH   8  11
ENDBRANCH   7   8
ENDBRANCH   1   7
BRANCH   6  13
ATOM     13  N   LIG d   1      -7.321  90.471 116.953  0.00  0.00    -0.311 N 
ATOM     14  C   LIG d   1      -7.660  90.021 115.746  0.00  0.00     0.210 C 
ATOM     15  C   LIG d   1      -8.850  89.056 115.727  0.00  0.00     0.109 C 
ATOM     16  O   LIG d   1      -7.069  90.305 114.693  0.00  0.00    -0.276 OA
ATOM     17  H   LIG d   1      -7.834  90.164 117.756  0.00  0.00     0.149 HD
ENDBRANCH   6  13
BRANCH   5  18
ATOM     18  N   LIG d   1      -4.406  89.981 116.179  0.00  0.00     0.381 N 
ATOM     19  H   LIG d   1      -3.414  89.853 116.207  0.00  0.00    -0.090 HD
ATOM     20  H   LIG d   1      -4.631  90.523 115.364  0.00  0.00    -0.090 HD
ATOM     21  H   LIG d   1      -4.861  89.096 116.135  0.00  0.00    -0.090 HD
ENDBRANCH   5  18
BRANCH   3  22
ATOM     22  C   LIG d   1      -3.136  93.147 119.541  0.00  0.00     0.382 C 
ATOM     23  O   LIG d   1      -2.181  92.421 119.908  0.00  0.00    -0.241 OA
ATOM     24  O   LIG d   1      -3.192  94.329 119.930  0.00  0.00    -0.241 OA
ENDBRANCH   3  22
TORSDOF 7
ENDMDL
MODEL 6
REMARK VINA RESULT:      -4.4      7.507     10.712
REMARK  7 active torsions:
REMARK  status: ('A' for Active; 'I' for Inactive)
REMARK    1  A    between atoms: C_2  and  C_3 
REMARK    2  A    between atoms: C_3  and  O_6 
REMARK    3  A    between atoms: C_3  and  C_4 
REMARK    4  A    between atoms: C_7  and  O_6 
REMARK    5  A    between atoms: C_9  and  C_10 
REMARK    6  A    between atoms: N_15  and  C_14 
REMARK    7  A    between atoms: N_20  and  C_19 
REMARK       I    between atoms: C_22  and  N_20 
ROOT
ATOM      1  C   LIG d   1       3.333  86.401 116.490  0.00  0.00     0.161 C 
ATOM      2  C   LIG d   1       1.999  86.789 116.694  0.00  0.00     0.016 C 
ATOM      3  C   LIG d   1       1.628  87.988 117.345  0.00  0.00     0.038 C 
ATOM      4  C   LIG d   1       2.574  88.959 117.705  0.00  0.00     0.028 C 
ATOM      5  C   LIG d   1       3.960  88.384 117.974  0.00  0.00    -0.047 C 
ATOM      6  C   LIG d   1       4.377  87.500 116.776  0.00  0.00     0.091 C 
ENDROOT
BRANCH   1   7
ATOM      7  O   LIG d   1       3.495  85.893 115.151  0.00  0.00    -0.368 OA
BRANCH   7   8
ATOM      8  C   LIG d   1       2.677  86.516 114.130  0.00  0.00     0.119 C 
BRANCH   8   9
ATOM      9  C   LIG d   1       1.711  85.442 113.592  0.00  0.00     0.028 C 
ATOM     10  C   LIG d   1       0.846  85.959 112.430  0.00  0.00     0.006 C 
ENDBRANCH   8   9
BRANCH   8  11
ATOM     11  C   LIG d   1       3.519  86.944 112.925  0.00  0.00     0.028 C 
ATOM     12  C   LIG d   1       4.540  88.039 113.270  0.00  0.00     0.006 C 
ENDBRANCH   8  11
ENDBRANCH   7   8
ENDBRANCH   1   7
BRANCH   6  13
ATOM     13  N   LIG d   1       5.686  86.831 116.995  0.00  0.00    -0.311 N 
ATOM     14  C   LIG d   1       6.851  87.359 116.622  0.00  0.00     0.210 C 
ATOM     15  C   LIG d   1       8.079  86.495 116.923  0.00  0.00     0.109 C 
ATOM     16  O   LIG d   1       6.986  88.476 116.100  0.00  0.00    -0.276 OA
ATOM     17  H   LIG d   1       5.672  85.935 117.440  0.00  0.00     0.149 HD
ENDBRANCH   6  13
BRANCH   5  18
ATOM     18  N   LIG d   1       4.876  89.518 118.202  0.00  0.00     0.381 N 
ATOM     19  H   LIG d   1       4.715  89.906 119.110  0.00  0.00    -0.090 HD
ATOM     20  H   LIG d   1       4.690  90.229 117.518  0.00  0.00    -0.090 HD
ATOM     21  H   LIG d   1       5.822  89.213 118.127  0.00  0.00    -0.090 HD
ENDBRANCH   5  18
BRANCH   3  22
ATOM     22  C   LIG d   1       0.300  88.206 117.679  0.00  0.00     0.382 C 
ATOM     23  O   LIG d   1      -0.333  89.151 117.148  0.00  0.00    -0.241 OA
ATOM     24  O   LIG d   1      -0.261  87.499 118.537  0.00  0.00    -0.241 OA
ENDBRANCH   3  22
TORSDOF 7
ENDMDL
MODEL 7
REMARK VINA RESULT:      -3.9      2.170      4.864
REMARK  7 active torsions:
REMARK  status: ('A' for Active; 'I' for Inactive)
REMARK    1  A    between atoms: C_2  and  C_3 
REMARK    2  A    between atoms: C_3  and  O_6 
REMARK    3  A    between atoms: C_3  and  C_4 
REMARK    4  A    between atoms: C_7  and  O_6 
REMARK    5  A    between atoms: C_9  and  C_10 
REMARK    6  A    between atoms: N_15  and  C_14 
REMARK    7  A    between atoms: N_20  and  C_19 
REMARK       I    between atoms: C_22  and  N_20 
ROOT
ATOM      1  C   LIG d   1      -6.439  91.873 118.423  0.00  0.00     0.161 C 
ATOM      2  C   LIG d   1      -5.240  92.337 118.988  0.00  0.00     0.016 C 
ATOM      3  C   LIG d   1      -3.962  92.005 118.482  0.00  0.00     0.038 C 
ATOM      4  C   LIG d   1      -3.801  91.304 117.278  0.00  0.00     0.028 C 
ATOM      5  C   LIG d   1      -4.974  90.387 116.949  0.00  0.00    -0.047 C 
ATOM      6  C   LIG d   1      -6.286  91.198 117.044  0.00  0.00     0.091 C 
ENDROOT
BRANCH   1   7
ATOM      7  O   LIG d   1      -7.394  92.950 118.351  0.00  0.00    -0.368 OA
BRANCH   7   8
ATOM      8  C   LIG d   1      -7.263  93.987 119.355  0.00  0.00     0.119 C 
BRANCH   8   9
ATOM      9  C   LIG d   1      -8.668  94.257 119.928  0.00  0.00     0.028 C 
ATOM     10  C   LIG d   1      -9.093  95.727 119.771  0.00  0.00     0.006 C 
ENDBRANCH   8   9
BRANCH   8  11
ATOM     11  C   LIG d   1      -6.817  95.313 118.732  0.00  0.00     0.028 C 
ATOM     12  C   LIG d   1      -5.565  95.897 119.405  0.00  0.00     0.006 C 
ENDBRANCH   8  11
ENDBRANCH   7   8
ENDBRANCH   1   7
BRANCH   6  13
ATOM     13  N   LIG d   1      -7.490  90.357 116.819  0.00  0.00    -0.311 N 
ATOM     14  C   LIG d   1      -7.750  89.742 115.666  0.00  0.00     0.210 C 
ATOM     15  C   LIG d   1      -9.055  88.940 115.641  0.00  0.00     0.109 C 
ATOM     16  O   LIG d   1      -7.007  89.757 114.673  0.00  0.00    -0.276 OA
ATOM     17  H   LIG d   1      -8.131  90.264 117.582  0.00  0.00     0.149 HD
ENDBRANCH   6  13
BRANCH   5  18
ATOM     18  N   LIG d   1      -4.738  89.826 115.605  0.00  0.00     0.381 N 
ATOM     19  H   LIG d   1      -5.186  88.935 115.527  0.00  0.00    -0.090 HD
ATOM     20  H   LIG d   1      -3.750  89.694 115.477  0.00  0.00    -0.090 HD
ATOM     21  H   LIG d   1      -5.090  90.446 114.910  0.00  0.00    -0.090 HD
ENDBRANCH   5  18
BRANCH   3  22
ATOM     22  C   LIG d   1      -2.828  92.342 119.205  0.00  0.00     0.382 C 
ATOM     23  O   LIG d   1      -1.844  91.563 119.228  0.00  0.00    -0.241 OA
ATOM     24  O   LIG d   1      -2.793  93.394 119.872  0.00  0.00    -0.241 OA
ENDBRANCH   3  22
TORSDOF 7
ENDMDL
MODEL 8
REMARK VINA RESULT:      -3.8      7.264     10.656
REMARK  7 active torsions:
REMARK  status: ('A' for Active; 'I' for Inactive)
REMARK    1  A    between atoms: C_2  and  C_3 
REMARK    2  A    between atoms: C_3  and  O_6 
REMARK    3  A    between atoms: C_3  and  C_4 
REMARK    4  A    between atoms: C_7  and  O_6 
REMARK    5  A    between atoms: C_9  and  C_10 
REMARK    6  A    between atoms: N_15  and  C_14 
REMARK    7  A    between atoms: N_20  and  C_19 
REMARK       I    between atoms: C_22  and  N_20 
ROOT
ATOM      1  C   LIG d   1       3.605  88.327 116.411  0.00  0.00     0.161 C 
ATOM      2  C   LIG d   1       2.861  87.657 115.426  0.00  0.00     0.016 C 
ATOM      3  C   LIG d   1       3.183  86.364 114.953  0.00  0.00     0.038 C 
ATOM      4  C   LIG d   1       4.190  85.587 115.545  0.00  0.00     0.028 C 
ATOM      5  C   LIG d   1       5.289  86.417 116.200  0.00  0.00    -0.047 C 
ATOM      6  C   LIG d   1       4.640  87.451 117.148  0.00  0.00     0.091 C 
ENDROOT
BRANCH   1   7
ATOM      7  O   LIG d   1       2.714  88.951 117.357  0.00  0.00    -0.368 OA
BRANCH   7   8
ATOM      8  C   LIG d   1       1.404  88.346 117.494  0.00  0.00     0.119 C 
BRANCH   8   9
ATOM      9  C   LIG d   1       0.387  89.485 117.702  0.00  0.00     0.028 C 
ATOM     10  C   LIG d   1      -1.062  88.974 117.762  0.00  0.00     0.006 C 
ENDBRANCH   8   9
BRANCH   8  11
ATOM     11  C   LIG d   1       1.317  87.487 118.759  0.00  0.00     0.028 C 
ATOM     12  C   LIG d   1       1.293  85.981 118.456  0.00  0.00     0.006 C 
ENDBRANCH   8  11
ENDBRANCH   7   8
ENDBRANCH   1   7
BRANCH   6  13
ATOM     13  N   LIG d   1       5.641  88.361 117.765  0.00  0.00    -0.311 N 
ATOM     14  C   LIG d   1       6.467  89.130 117.058  0.00  0.00     0.210 C 
ATOM     15  C   LIG d   1       7.433  89.977 117.891  0.00  0.00     0.109 C 
ATOM     16  O   LIG d   1       6.469  89.215 115.821  0.00  0.00    -0.276 OA
ATOM     17  H   LIG d   1       5.686  88.378 118.765  0.00  0.00     0.149 HD
ENDBRANCH   6  13
BRANCH   5  18
ATOM     18  N   LIG d   1       6.197  85.486 116.895  0.00  0.00     0.381 N 
ATOM     19  H   LIG d   1       5.807  84.564 116.888  0.00  0.00    -0.090 HD
ATOM     20  H   LIG d   1       6.295  85.780 117.850  0.00  0.00    -0.090 HD
ATOM     21  H   LIG d   1       7.088  85.480 116.448  0.00  0.00    -0.090 HD
ENDBRANCH   5  18
BRANCH   3  22
ATOM     22  C   LIG d   1       2.519  85.851 113.849  0.00  0.00     0.382 C 
ATOM     23  O   LIG d   1       3.173  85.430 112.864  0.00  0.00    -0.241 OA
ATOM     24  O   LIG d   1       1.275  85.845 113.806  0.00  0.00    -0.241 OA
ENDBRANCH   3  22
TORSDOF 7
ENDMDL
MODEL 9
REMARK VINA RESULT:      -3.7      7.998     10.924
REMARK  7 active torsions:
REMARK  status: ('A' for Active; 'I' for Inactive)
REMARK    1  A    between atoms: C_2  and  C_3 
REMARK    2  A    between atoms: C_3  and  O_6 
REMARK    3  A    between atoms: C_3  and  C_4 
REMARK    4  A    between atoms: C_7  and  O_6 
REMARK    5  A    between atoms: C_9  and  C_10 
REMARK    6  A    between atoms: N_15  and  C_14 
REMARK    7  A    between atoms: N_20  and  C_19 
REMARK       I    between atoms: C_22  and  N_20 
ROOT
ATOM      1  C   LIG d   1       4.058  89.057 117.594  0.00  0.00     0.161 C 
ATOM      2  C   LIG d   1       3.347  88.275 116.668  0.00  0.00     0.016 C 
ATOM      3  C   LIG d   1       3.971  87.414 115.736  0.00  0.00     0.038 C 
ATOM      4  C   LIG d   1       5.350  87.160 115.769  0.00  0.00     0.028 C 
ATOM      5  C   LIG d   1       6.164  88.309 116.355  0.00  0.00    -0.047 C 
ATOM      6  C   LIG d   1       5.556  88.709 117.719  0.00  0.00     0.091 C 
ENDROOT
BRANCH   1   7
ATOM      7  O   LIG d   1       3.418  88.988 118.884  0.00  0.00    -0.368 OA
BRANCH   7   8
ATOM      8  C   LIG d   1       1.977  89.132 118.889  0.00  0.00     0.119 C 
BRANCH   8   9
ATOM      9  C   LIG d   1       1.647  90.460 119.597  0.00  0.00     0.028 C 
ATOM     10  C   LIG d   1       0.133  90.716 119.690  0.00  0.00     0.006 C 
ENDBRANCH   8   9
BRANCH   8  11
ATOM     11  C   LIG d   1       1.311  88.044 119.738  0.00  0.00     0.028 C 
ATOM     12  C   LIG d   1       0.524  87.029 118.895  0.00  0.00     0.006 C 
ENDBRANCH   8  11
ENDBRANCH   7   8
ENDBRANCH   1   7
BRANCH   6  13
ATOM     13  N   LIG d   1       6.241  89.882 118.322  0.00  0.00    -0.311 N 
ATOM     14  C   LIG d   1       7.242  89.778 119.194  0.00  0.00     0.210 C 
ATOM     15  C   LIG d   1       7.793  91.112 119.709  0.00  0.00     0.109 C 
ATOM     16  O   LIG d   1       7.748  88.709 119.566  0.00  0.00    -0.276 OA
ATOM     17  H   LIG d   1       5.915  90.790 118.052  0.00  0.00     0.149 HD
ENDBRANCH   6  13
BRANCH   5  18
ATOM     18  N   LIG d   1       7.564  87.857 116.457  0.00  0.00     0.381 N 
ATOM     19  H   LIG d   1       7.916  87.637 115.546  0.00  0.00    -0.090 HD
ATOM     20  H   LIG d   1       7.598  87.025 117.018  0.00  0.00    -0.090 HD
ATOM     21  H   LIG d   1       8.123  88.570 116.873  0.00  0.00    -0.090 HD
ENDBRANCH   5  18
BRANCH   3  22
ATOM     22  C   LIG d   1       3.217  86.826 114.732  0.00  0.00     0.382 C 
ATOM     23  O   LIG d   1       2.230  87.433 114.252  0.00  0.00    -0.241 OA
ATOM     24  O   LIG d   1       3.485  85.677 114.331  0.00  0.00    -0.241 OA
ENDBRANCH   3  22
TORSDOF 7
ENDMDL
