MODEL 1
REMARK VINA RESULT:      -5.3      0.000      0.000
REMARK  7 active torsions:
REMARK  status: ('A' for Active; 'I' for Inactive)
REMARK    1  A    between atoms: C_2  and  C_3 
REMARK    2  A    between atoms: C_3  and  O_6 
REMARK    3  A    between atoms: C_3  and  C_4 
REMARK    4  A    between atoms: C_7  and  O_6 
REMARK    5  A    between atoms: C_9  and  C_10 
REMARK    6  A    between atoms: N_15  and  C_14 
REMARK    7  A    between atoms: N_20  and  C_19 
REMARK       I    between atoms: C_22  and  N_20 
ROOT
ATOM      1  C   LIG d   1      -5.646  92.729 117.851  0.00  0.00     0.161 C 
ATOM      2  C   LIG d   1      -6.142  93.835 118.561  0.00  0.00     0.016 C 
ATOM      3  C   LIG d   1      -7.461  94.325 118.417  0.00  0.00     0.038 C 
ATOM      4  C   LIG d   1      -8.426  93.644 117.659  0.00  0.00     0.028 C 
ATOM      5  C   LIG d   1      -7.831  92.811 116.529  0.00  0.00    -0.047 C 
ATOM      6  C   LIG d   1      -6.717  91.907 117.104  0.00  0.00     0.091 C 
ENDROOT
BRANCH   1   7
ATOM      7  O   LIG d   1      -4.890  91.879 118.736  0.00  0.00    -0.368 OA
BRANCH   7   8
ATOM      8  C   LIG d   1      -3.510  91.640 118.366  0.00  0.00     0.119 C 
BRANCH   8   9
ATOM      9  C   LIG d   1      -3.122  90.247 118.898  0.00  0.00     0.028 C 
ATOM     10  C   LIG d   1      -2.784  89.260 117.768  0.00  0.00     0.006 C 
ENDBRANCH   8   9
BRANCH   8  11
ATOM     11  C   LIG d   1      -2.566  92.620 119.070  0.00  0.00     0.028 C 
ATOM     12  C   LIG d   1      -1.980  93.672 118.115  0.00  0.00     0.006 C 
ENDBRANCH   8  11
ENDBRANCH   7   8
ENDBRANCH   1   7
BRANCH   6  13
ATOM     13  N   LIG d   1      -6.026  91.119 116.050  0.00  0.00    -0.311 N 
ATOM     14  C   LIG d   1      -6.313  89.847 115.779  0.00  0.00     0.210 C 
ATOM     15  C   LIG d   1      -5.467  89.217 114.668  0.00  0.00     0.109 C 
ATOM     16  O   LIG d   1      -7.209  89.191 116.330  0.00  0.00    -0.276 OA
ATOM     17  H   LIG d   1      -5.306  91.584 115.532  0.00  0.00     0.149 HD
ENDBRANCH   6  13
BRANCH   5  18
ATOM     18  N   LIG d   1      -8.932  92.050 115.910  0.00  0.00     0.381 N 
ATOM     19  H   LIG d   1      -8.573  91.466 115.181  0.00  0.00    -0.090 HD
ATOM     20  H   LIG d   1      -9.586  92.696 115.503  0.00  0.00    -0.090 HD
ATOM     21  H   LIG d   1      -9.390  91.492 116.597  0.00  0.00    -0.090 HD
ENDBRANCH   5  18
BRANCH   3  22
ATOM     22  C   LIG d   1      -7.814  95.531 119.003  0.00  0.00     0.382 C 
ATOM     23  O   LIG d   1      -8.660  95.554 119.929  0.00  0.00    -0.241 OA
ATOM     24  O   LIG d   1      -7.329  96.601 118.588  0.00  0.00    -0.241 OA
ENDBRANCH   3  22
TORSDOF 7
ENDMDL
MODEL 2
REMARK VINA RESULT:      -5.1      2.413      4.459
REMARK  7 active torsions:
REMARK  status: ('A' for Active; 'I' for Inactive)
REMARK    1  A    between atoms: C_2  and  C_3 
REMARK    2  A    between atoms: C_3  and  O_6 
REMARK    3  A    between atoms: C_3  and  C_4 
REMARK    4  A    between atoms: C_7  and  O_6 
REMARK    5  A    between atoms: C_9  and  C_10 
REMARK    6  A    between atoms: N_15  and  C_14 
REMARK    7  A    between atoms: N_20  and  C_19 
REMARK       I    between atoms: C_22  and  N_20 
ROOT
ATOM      1  C   LIG d   1      -5.706  91.932 118.760  0.00  0.00     0.161 C 
ATOM      2  C   LIG d   1      -6.996  92.454 118.948  0.00  0.00     0.016 C 
ATOM      3  C   LIG d   1      -7.248  93.810 119.262  0.00  0.00     0.038 C 
ATOM      4  C   LIG d   1      -6.229  94.773 119.262  0.00  0.00     0.028 C 
ATOM      5  C   LIG d   1      -4.852  94.198 119.575  0.00  0.00    -0.047 C 
ATOM      6  C   LIG d   1      -4.589  92.991 118.646  0.00  0.00     0.091 C 
ENDROOT
BRANCH   1   7
ATOM      7  O   LIG d   1      -5.693  91.064 117.609  0.00  0.00    -0.368 OA
BRANCH   7   8
ATOM      8  C   LIG d   1      -6.836  91.161 116.725  0.00  0.00     0.119 C 
BRANCH   8   9
ATOM      9  C   LIG d   1      -7.054  89.771 116.095  0.00  0.00     0.028 C 
ATOM     10  C   LIG d   1      -8.457  89.210 116.383  0.00  0.00     0.006 C 
ENDBRANCH   8   9
BRANCH   8  11
ATOM     11  C   LIG d   1      -6.553  92.099 115.548  0.00  0.00     0.028 C 
ATOM     12  C   LIG d   1      -6.655  91.395 114.186  0.00  0.00     0.006 C 
ENDBRANCH   8  11
ENDBRANCH   7   8
ENDBRANCH   1   7
BRANCH   6  13
ATOM     13  N   LIG d   1      -3.298  92.317 118.943  0.00  0.00    -0.311 N 
ATOM     14  C   LIG d   1      -2.139  92.682 118.400  0.00  0.00     0.210 C 
ATOM     15  C   LIG d   1      -0.931  91.841 118.827  0.00  0.00     0.109 C 
ATOM     16  O   LIG d   1      -1.990  93.643 117.630  0.00  0.00    -0.276 OA
ATOM     17  H   LIG d   1      -3.322  91.546 119.582  0.00  0.00     0.149 HD
ENDBRANCH   6  13
BRANCH   5  18
ATOM     18  N   LIG d   1      -3.867  95.283 119.405  0.00  0.00     0.381 N 
ATOM     19  H   LIG d   1      -4.265  96.020 118.859  0.00  0.00    -0.090 HD
ATOM     20  H   LIG d   1      -3.068  94.923 118.913  0.00  0.00    -0.090 HD
ATOM     21  H   LIG d   1      -3.588  95.632 120.296  0.00  0.00    -0.090 HD
ENDBRANCH   5  18
BRANCH   3  22
ATOM     22  C   LIG d   1      -8.528  94.205 119.621  0.00  0.00     0.382 C 
ATOM     23  O   LIG d   1      -8.752  95.401 119.929  0.00  0.00    -0.241 OA
ATOM     24  O   LIG d   1      -9.452  93.372 119.684  0.00  0.00    -0.241 OA
ENDBRANCH   3  22
TORSDOF 7
ENDMDL
MODEL 3
REMARK VINA RESULT:      -4.4     10.440     13.008
REMARK  7 active torsions:
REMARK  status: ('A' for Active; 'I' for Inactive)
REMARK    1  A    between atoms: C_2  and  C_3 
REMARK    2  A    between atoms: C_3  and  O_6 
REMARK    3  A    between atoms: C_3  and  C_4 
REMARK    4  A    between atoms: C_7  and  O_6 
REMARK    5  A    between atoms: C_9  and  C_10 
REMARK    6  A    between atoms: N_15  and  C_14 
REMARK    7  A    between atoms: N_20  and  C_19 
REMARK       I    between atoms: C_22  and  N_20 
ROOT
ATOM      1  C   LIG d   1       5.128  87.616 116.363  0.00  0.00     0.161 C 
ATOM      2  C   LIG d   1       4.149  88.622 116.371  0.00  0.00     0.016 C 
ATOM      3  C   LIG d   1       4.428  89.978 116.660  0.00  0.00     0.038 C 
ATOM      4  C   LIG d   1       5.741  90.448 116.812  0.00  0.00     0.028 C 
ATOM      5  C   LIG d   1       6.711  89.383 117.312  0.00  0.00    -0.047 C 
ATOM      6  C   LIG d   1       6.583  88.128 116.418  0.00  0.00     0.091 C 
ENDROOT
BRANCH   1   7
ATOM      7  O   LIG d   1       4.941  86.761 115.218  0.00  0.00    -0.368 OA
BRANCH   7   8
ATOM      8  C   LIG d   1       4.150  87.310 114.135  0.00  0.00     0.119 C 
BRANCH   8   9
ATOM      9  C   LIG d   1       3.211  86.195 113.636  0.00  0.00     0.028 C 
ATOM     10  C   LIG d   1       3.791  85.434 112.432  0.00  0.00     0.006 C 
ENDBRANCH   8   9
BRANCH   8  11
ATOM     11  C   LIG d   1       5.027  87.671 112.932  0.00  0.00     0.028 C 
ATOM     12  C   LIG d   1       5.520  89.126 112.969  0.00  0.00     0.006 C 
ENDBRANCH   8  11
ENDBRANCH   7   8
ENDBRANCH   1   7
BRANCH   6  13
ATOM     13  N   LIG d   1       7.437  87.007 116.889  0.00  0.00    -0.311 N 
ATOM     14  C   LIG d   1       8.639  86.739 116.381  0.00  0.00     0.210 C 
ATOM     15  C   LIG d   1       9.344  85.526 116.996  0.00  0.00     0.109 C 
ATOM     16  O   LIG d   1       9.202  87.409 115.502  0.00  0.00    -0.276 OA
ATOM     17  H   LIG d   1       7.072  86.431 117.621  0.00  0.00     0.149 HD
ENDBRANCH   6  13
BRANCH   5  18
ATOM     18  N   LIG d   1       8.065  89.970 117.293  0.00  0.00     0.381 N 
ATOM     19  H   LIG d   1       8.246  90.430 118.163  0.00  0.00    -0.090 HD
ATOM     20  H   LIG d   1       8.113  90.653 116.558  0.00  0.00    -0.090 HD
ATOM     21  H   LIG d   1       8.743  89.257 117.139  0.00  0.00    -0.090 HD
ENDBRANCH   5  18
BRANCH   3  22
ATOM     22  C   LIG d   1       3.383  90.872 116.837  0.00  0.00     0.382 C 
ATOM     23  O   LIG d   1       2.197  90.468 116.786  0.00  0.00    -0.241 OA
ATOM     24  O   LIG d   1       3.612  92.085 117.004  0.00  0.00    -0.241 OA
ENDBRANCH   3  22
TORSDOF 7
ENDMDL
MODEL 4
REMARK VINA RESULT:      -4.4      2.222      4.663
REMARK  7 active torsions:
REMARK  status: ('A' for Active; 'I' for Inactive)
REMARK    1  A    between atoms: C_2  and  C_3 
REMARK    2  A    between atoms: C_3  and  O_6 
REMARK    3  A    between atoms: C_3  and  C_4 
REMARK    4  A    between atoms: C_7  and  O_6 
REMARK    5  A    between atoms: C_9  and  C_10 
REMARK    6  A    between atoms: N_15  and  C_14 
REMARK    7  A    between atoms: N_20  and  C_19 
REMARK       I    between atoms: C_22  and  N_20 
ROOT
ATOM      1  C   LIG d   1      -5.453  91.340 118.499  0.00  0.00     0.161 C 
ATOM      2  C   LIG d   1      -5.965  92.633 118.698  0.00  0.00     0.016 C 
ATOM      3  C   LIG d   1      -5.159  93.745 119.035  0.00  0.00     0.038 C 
ATOM      4  C   LIG d   1      -3.759  93.669 119.048  0.00  0.00     0.028 C 
ATOM      5  C   LIG d   1      -3.231  92.271 119.349  0.00  0.00    -0.047 C 
ATOM      6  C   LIG d   1      -3.915  91.261 118.400  0.00  0.00     0.091 C 
ENDROOT
BRANCH   1   7
ATOM      7  O   LIG d   1      -6.061  90.748 117.334  0.00  0.00    -0.368 OA
BRANCH   7   8
ATOM      8  C   LIG d   1      -6.604  91.672 116.359  0.00  0.00     0.119 C 
BRANCH   8   9
ATOM      9  C   LIG d   1      -8.133  91.479 116.341  0.00  0.00     0.028 C 
ATOM     10  C   LIG d   1      -8.893  92.816 116.298  0.00  0.00     0.006 C 
ENDBRANCH   8   9
BRANCH   8  11
ATOM     11  C   LIG d   1      -6.135  91.327 114.943  0.00  0.00     0.028 C 
ATOM     12  C   LIG d   1      -6.604  89.938 114.481  0.00  0.00     0.006 C 
ENDBRANCH   8  11
ENDBRANCH   7   8
ENDBRANCH   1   7
BRANCH   6  13
ATOM     13  N   LIG d   1      -3.518  89.857 118.683  0.00  0.00    -0.311 N 
ATOM     14  C   LIG d   1      -2.459  89.269 118.129  0.00  0.00     0.210 C 
ATOM     15  C   LIG d   1      -2.240  87.810 118.543  0.00  0.00     0.109 C 
ATOM     16  O   LIG d   1      -1.663  89.826 117.359  0.00  0.00    -0.276 OA
ATOM     17  H   LIG d   1      -4.091  89.341 119.322  0.00  0.00     0.149 HD
ENDBRANCH   6  13
BRANCH   5  18
ATOM     18  N   LIG d   1      -1.764  92.306 119.195  0.00  0.00     0.381 N 
ATOM     19  H   LIG d   1      -1.483  91.666 118.480  0.00  0.00    -0.090 HD
ATOM     20  H   LIG d   1      -1.340  92.019 120.060  0.00  0.00    -0.090 HD
ATOM     21  H   LIG d   1      -1.467  93.228 118.961  0.00  0.00    -0.090 HD
ENDBRANCH   5  18
BRANCH   3  22
ATOM     22  C   LIG d   1      -5.758  94.941 119.403  0.00  0.00     0.382 C 
ATOM     23  O   LIG d   1      -5.053  95.895 119.811  0.00  0.00    -0.241 OA
ATOM     24  O   LIG d   1      -6.997  95.062 119.374  0.00  0.00    -0.241 OA
ENDBRANCH   3  22
TORSDOF 7
ENDMDL
MODEL 5
REMARK VINA RESULT:      -4.3      2.267      4.612
REMARK  7 active torsions:
REMARK  status: ('A' for Active; 'I' for Inactive)
REMARK    1  A    between atoms: C_2  and  C_3 
REMARK    2  A    between atoms: C_3  and  O_6 
REMARK    3  A    between atoms: C_3  and  C_4 
REMARK    4  A    between atoms: C_7  and  O_6 
REMARK    5  A    between atoms: C_9  and  C_10 
REMARK    6  A    between atoms: N_15  and  C_14 
REMARK    7  A    between atoms: N_20  and  C_19 
REMARK       I    between atoms: C_22  and  N_20 
ROOT
ATOM      1  C   LIG d   1      -5.450  91.155 117.503  0.00  0.00     0.161 C 
ATOM      2  C   LIG d   1      -6.163  92.362 117.590  0.00  0.00     0.016 C 
ATOM      3  C   LIG d   1      -5.742  93.460 118.375  0.00  0.00     0.038 C 
ATOM      4  C   LIG d   1      -4.491  93.480 119.011  0.00  0.00     0.028 C 
ATOM      5  C   LIG d   1      -3.968  92.091 119.362  0.00  0.00    -0.047 C 
ATOM      6  C   LIG d   1      -4.029  91.199 118.101  0.00  0.00     0.091 C 
ENDROOT
BRANCH   1   7
ATOM      7  O   LIG d   1      -5.404  90.713 116.132  0.00  0.00    -0.368 OA
BRANCH   7   8
ATOM      8  C   LIG d   1      -6.364  89.696 115.757  0.00  0.00     0.119 C 
BRANCH   8   9
ATOM      9  C   LIG d   1      -6.895  90.054 114.355  0.00  0.00     0.028 C 
ATOM     10  C   LIG d   1      -6.801  91.561 114.060  0.00  0.00     0.006 C 
ENDBRANCH   8   9
BRANCH   8  11
ATOM     11  C   LIG d   1      -7.591  89.722 116.674  0.00  0.00     0.028 C 
ATOM     12  C   LIG d   1      -8.785  88.949 116.093  0.00  0.00     0.006 C 
ENDBRANCH   8  11
ENDBRANCH   7   8
ENDBRANCH   1   7
BRANCH   6  13
ATOM     13  N   LIG d   1      -3.614  89.799 118.378  0.00  0.00    -0.311 N 
ATOM     14  C   LIG d   1      -2.476  89.270 117.931  0.00  0.00     0.210 C 
ATOM     15  C   LIG d   1      -2.250  87.804 118.313  0.00  0.00     0.109 C 
ATOM     16  O   LIG d   1      -1.616  89.886 117.283  0.00  0.00    -0.276 OA
ATOM     17  H   LIG d   1      -4.237  89.237 118.923  0.00  0.00     0.149 HD
ENDBRANCH   6  13
BRANCH   5  18
ATOM     18  N   LIG d   1      -2.601  92.251 119.893  0.00  0.00     0.381 N 
ATOM     19  H   LIG d   1      -2.586  92.017 120.865  0.00  0.00    -0.090 HD
ATOM     20  H   LIG d   1      -2.325  93.212 119.795  0.00  0.00    -0.090 HD
ATOM     21  H   LIG d   1      -1.971  91.664 119.392  0.00  0.00    -0.090 HD
ENDBRANCH   5  18
BRANCH   3  22
ATOM     22  C   LIG d   1      -6.593  94.539 118.562  0.00  0.00     0.382 C 
ATOM     23  O   LIG d   1      -7.788  94.466 118.189  0.00  0.00    -0.241 OA
ATOM     24  O   LIG d   1      -6.169  95.599 119.059  0.00  0.00    -0.241 OA
ENDBRANCH   3  22
TORSDOF 7
ENDMDL
MODEL 6
REMARK VINA RESULT:      -4.3      8.068     11.289
REMARK  7 active torsions:
REMARK  status: ('A' for Active; 'I' for Inactive)
REMARK    1  A    between atoms: C_2  and  C_3 
REMARK    2  A    between atoms: C_3  and  O_6 
REMARK    3  A    between atoms: C_3  and  C_4 
REMARK    4  A    between atoms: C_7  and  O_6 
REMARK    5  A    between atoms: C_9  and  C_10 
REMARK    6  A    between atoms: N_15  and  C_14 
REMARK    7  A    between atoms: N_20  and  C_19 
REMARK       I    between atoms: C_22  and  N_20 
ROOT
ATOM      1  C   LIG d   1       2.993  90.060 116.457  0.00  0.00     0.161 C 
ATOM      2  C   LIG d   1       2.938  89.562 115.145  0.00  0.00     0.016 C 
ATOM      3  C   LIG d   1       4.076  89.114 114.435  0.00  0.00     0.038 C 
ATOM      4  C   LIG d   1       5.332  88.992 115.047  0.00  0.00     0.028 C 
ATOM      5  C   LIG d   1       5.534  89.957 116.211  0.00  0.00    -0.047 C 
ATOM      6  C   LIG d   1       4.337  89.832 117.180  0.00  0.00     0.091 C 
ENDROOT
BRANCH   1   7
ATOM      7  O   LIG d   1       1.908  89.515 117.233  0.00  0.00    -0.368 OA
BRANCH   7   8
ATOM      8  C   LIG d   1       0.629  90.183 117.099  0.00  0.00     0.119 C 
BRANCH   8   9
ATOM      9  C   LIG d   1       0.592  91.323 118.135  0.00  0.00     0.028 C 
ATOM     10  C   LIG d   1       0.974  90.847 119.546  0.00  0.00     0.006 C 
ENDBRANCH   8   9
BRANCH   8  11
ATOM     11  C   LIG d   1      -0.528  89.254 117.476  0.00  0.00     0.028 C 
ATOM     12  C   LIG d   1      -0.204  87.771 117.234  0.00  0.00     0.006 C 
ENDBRANCH   8  11
ENDBRANCH   7   8
ENDBRANCH   1   7
BRANCH   6  13
ATOM     13  N   LIG d   1       4.414  90.802 118.304  0.00  0.00    -0.311 N 
ATOM     14  C   LIG d   1       4.300  92.119 118.144  0.00  0.00     0.210 C 
ATOM     15  C   LIG d   1       4.429  92.940 119.431  0.00  0.00     0.109 C 
ATOM     16  O   LIG d   1       4.072  92.684 117.064  0.00  0.00    -0.276 OA
ATOM     17  H   LIG d   1       4.566  90.427 119.220  0.00  0.00     0.149 HD
ENDBRANCH   6  13
BRANCH   5  18
ATOM     18  N   LIG d   1       6.827  89.629 116.842  0.00  0.00     0.381 N 
ATOM     19  H   LIG d   1       7.548  90.203 116.455  0.00  0.00    -0.090 HD
ATOM     20  H   LIG d   1       7.049  88.669 116.647  0.00  0.00    -0.090 HD
ATOM     21  H   LIG d   1       6.771  89.772 117.827  0.00  0.00    -0.090 HD
ENDBRANCH   5  18
BRANCH   3  22
ATOM     22  C   LIG d   1       3.970  88.819 113.084  0.00  0.00     0.382 C 
ATOM     23  O   LIG d   1       4.976  88.419 112.449  0.00  0.00    -0.241 OA
ATOM     24  O   LIG d   1       2.893  88.990 112.482  0.00  0.00    -0.241 OA
ENDBRANCH   3  22
TORSDOF 7
ENDMDL
MODEL 7
REMARK VINA RESULT:      -4.2      8.831     11.434
REMARK  7 active torsions:
REMARK  status: ('A' for Active; 'I' for Inactive)
REMARK    1  A    between atoms: C_2  and  C_3 
REMARK    2  A    between atoms: C_3  and  O_6 
REMARK    3  A    between atoms: C_3  and  C_4 
REMARK    4  A    between atoms: C_7  and  O_6 
REMARK    5  A    between atoms: C_9  and  C_10 
REMARK    6  A    between atoms: N_15  and  C_14 
REMARK    7  A    between atoms: N_20  and  C_19 
REMARK       I    between atoms: C_22  and  N_20 
ROOT
ATOM      1  C   LIG d   1       2.902  89.991 116.576  0.00  0.00     0.161 C 
ATOM      2  C   LIG d   1       2.870  89.539 115.246  0.00  0.00     0.016 C 
ATOM      3  C   LIG d   1       4.032  89.308 114.475  0.00  0.00     0.038 C 
ATOM      4  C   LIG d   1       5.318  89.369 115.034  0.00  0.00     0.028 C 
ATOM      5  C   LIG d   1       5.413  90.310 116.230  0.00  0.00    -0.047 C 
ATOM      6  C   LIG d   1       4.295  89.957 117.238  0.00  0.00     0.091 C 
ENDROOT
BRANCH   1   7
ATOM      7  O   LIG d   1       1.953  89.248 117.367  0.00  0.00    -0.368 OA
BRANCH   7   8
ATOM      8  C   LIG d   1       1.538  87.968 116.829  0.00  0.00     0.119 C 
BRANCH   8   9
ATOM      9  C   LIG d   1       0.024  87.830 117.078  0.00  0.00     0.028 C 
ATOM     10  C   LIG d   1      -0.503  86.428 116.731  0.00  0.00     0.006 C 
ENDBRANCH   8   9
BRANCH   8  11
ATOM     11  C   LIG d   1       2.182  86.808 117.594  0.00  0.00     0.028 C 
ATOM     12  C   LIG d   1       3.362  86.177 116.837  0.00  0.00     0.006 C 
ENDBRANCH   8  11
ENDBRANCH   7   8
ENDBRANCH   1   7
BRANCH   6  13
ATOM     13  N   LIG d   1       4.264  90.884 118.399  0.00  0.00    -0.311 N 
ATOM     14  C   LIG d   1       4.176  92.207 118.278  0.00  0.00     0.210 C 
ATOM     15  C   LIG d   1       4.180  92.979 119.601  0.00  0.00     0.109 C 
ATOM     16  O   LIG d   1       4.063  92.813 117.202  0.00  0.00    -0.276 OA
ATOM     17  H   LIG d   1       4.320  90.475 119.311  0.00  0.00     0.149 HD
ENDBRANCH   6  13
BRANCH   5  18
ATOM     18  N   LIG d   1       6.768  90.173 116.798  0.00  0.00     0.381 N 
ATOM     19  H   LIG d   1       7.235  89.396 116.375  0.00  0.00    -0.090 HD
ATOM     20  H   LIG d   1       6.690  89.995 117.784  0.00  0.00    -0.090 HD
ATOM     21  H   LIG d   1       7.288  91.008 116.644  0.00  0.00    -0.090 HD
ENDBRANCH   5  18
BRANCH   3  22
ATOM     22  C   LIG d   1       3.917  89.050 113.117  0.00  0.00     0.382 C 
ATOM     23  O   LIG d   1       4.944  88.836 112.430  0.00  0.00    -0.241 OA
ATOM     24  O   LIG d   1       2.801  89.072 112.563  0.00  0.00    -0.241 OA
ENDBRANCH   3  22
TORSDOF 7
ENDMDL
MODEL 8
REMARK VINA RESULT:      -4.0      6.749      9.652
REMARK  7 active torsions:
REMARK  status: ('A' for Active; 'I' for Inactive)
REMARK    1  A    between atoms: C_2  and  C_3 
REMARK    2  A    between atoms: C_3  and  O_6 
REMARK    3  A    between atoms: C_3  and  C_4 
REMARK    4  A    between atoms: C_7  and  O_6 
REMARK    5  A    between atoms: C_9  and  C_10 
REMARK    6  A    between atoms: N_15  and  C_14 
REMARK    7  A    between atoms: N_20  and  C_19 
REMARK       I    between atoms: C_22  and  N_20 
ROOT
ATOM      1  C   LIG d   1       1.558  87.828 116.587  0.00  0.00     0.161 C 
ATOM      2  C   LIG d   1       0.284  87.359 116.950  0.00  0.00     0.016 C 
ATOM      3  C   LIG d   1      -0.732  88.192 117.473  0.00  0.00     0.038 C 
ATOM      4  C   LIG d   1      -0.592  89.587 117.529  0.00  0.00     0.028 C 
ATOM      5  C   LIG d   1       0.858  90.046 117.646  0.00  0.00    -0.047 C 
ATOM      6  C   LIG d   1       1.691  89.365 116.537  0.00  0.00     0.091 C 
ENDROOT
BRANCH   1   7
ATOM      7  O   LIG d   1       1.951  87.250 115.327  0.00  0.00    -0.368 OA
BRANCH   7   8
ATOM      8  C   LIG d   1       2.730  86.030 115.402  0.00  0.00     0.119 C 
BRANCH   8   9
ATOM      9  C   LIG d   1       3.898  86.285 116.374  0.00  0.00     0.028 C 
ATOM     10  C   LIG d   1       5.268  86.012 115.731  0.00  0.00     0.006 C 
ENDBRANCH   8   9
BRANCH   8  11
ATOM     11  C   LIG d   1       3.386  85.705 114.056  0.00  0.00     0.028 C 
ATOM     12  C   LIG d   1       2.376  85.642 112.900  0.00  0.00     0.006 C 
ENDBRANCH   8  11
ENDBRANCH   7   8
ENDBRANCH   1   7
BRANCH   6  13
ATOM     13  N   LIG d   1       3.137  89.694 116.631  0.00  0.00    -0.311 N 
ATOM     14  C   LIG d   1       3.895  89.978 115.574  0.00  0.00     0.210 C 
ATOM     15  C   LIG d   1       5.365  90.270 115.891  0.00  0.00     0.109 C 
ATOM     16  O   LIG d   1       3.483  90.048 114.406  0.00  0.00    -0.276 OA
ATOM     17  H   LIG d   1       3.547  89.691 117.545  0.00  0.00     0.149 HD
ENDBRANCH   6  13
BRANCH   5  18
ATOM     18  N   LIG d   1       0.867  91.518 117.555  0.00  0.00     0.381 N 
ATOM     19  H   LIG d   1       0.989  91.913 118.466  0.00  0.00    -0.090 HD
ATOM     20  H   LIG d   1      -0.017  91.827 117.193  0.00  0.00    -0.090 HD
ATOM     21  H   LIG d   1       1.604  91.818 116.955  0.00  0.00    -0.090 HD
ENDBRANCH   5  18
BRANCH   3  22
ATOM     22  C   LIG d   1      -1.889  87.625 117.985  0.00  0.00     0.382 C 
ATOM     23  O   LIG d   1      -1.915  86.404 118.271  0.00  0.00    -0.241 OA
ATOM     24  O   LIG d   1      -2.920  88.310 118.123  0.00  0.00    -0.241 OA
ENDBRANCH   3  22
TORSDOF 7
ENDMDL
MODEL 9
REMARK VINA RESULT:      -4.0      5.328      8.598
REMARK  7 active torsions:
REMARK  status: ('A' for Active; 'I' for Inactive)
REMARK    1  A    between atoms: C_2  and  C_3 
REMARK    2  A    between atoms: C_3  and  O_6 
REMARK    3  A    between atoms: C_3  and  C_4 
REMARK    4  A    between atoms: C_7  and  O_6 
REMARK    5  A    between atoms: C_9  and  C_10 
REMARK    6  A    between atoms: N_15  and  C_14 
REMARK    7  A    between atoms: N_20  and  C_19 
REMARK       I    between atoms: C_22  and  N_20 
ROOT
ATOM      1  C   LIG d   1       0.657  88.983 116.905  0.00  0.00     0.161 C 
ATOM      2  C   LIG d   1       2.046  89.191 116.956  0.00  0.00     0.016 C 
ATOM      3  C   LIG d   1       2.636  90.396 117.400  0.00  0.00     0.038 C 
ATOM      4  C   LIG d   1       1.876  91.428 117.971  0.00  0.00     0.028 C 
ATOM      5  C   LIG d   1       0.434  91.464 117.475  0.00  0.00    -0.047 C 
ATOM      6  C   LIG d   1      -0.184  90.055 117.628  0.00  0.00     0.091 C 
ENDROOT
BRANCH   1   7
ATOM      7  O   LIG d   1       0.341  87.671 117.414  0.00  0.00    -0.368 OA
BRANCH   7   8
ATOM      8  C   LIG d   1      -0.208  86.732 116.457  0.00  0.00     0.119 C 
BRANCH   8   9
ATOM      9  C   LIG d   1      -1.567  86.256 117.004  0.00  0.00     0.028 C 
ATOM     10  C   LIG d   1      -1.669  86.402 118.532  0.00  0.00     0.006 C 
ENDBRANCH   8   9
BRANCH   8  11
ATOM     11  C   LIG d   1       0.654  85.470 116.357  0.00  0.00     0.028 C 
ATOM     12  C   LIG d   1       1.660  85.526 115.197  0.00  0.00     0.006 C 
ENDBRANCH   8  11
ENDBRANCH   7   8
ENDBRANCH   1   7
BRANCH   6  13
ATOM     13  N   LIG d   1      -1.567  89.981 117.088  0.00  0.00    -0.311 N 
ATOM     14  C   LIG d   1      -2.647  89.850 117.855  0.00  0.00     0.210 C 
ATOM     15  C   LIG d   1      -3.975  89.774 117.094  0.00  0.00     0.109 C 
ATOM     16  O   LIG d   1      -2.636  89.822 119.095  0.00  0.00    -0.276 OA
ATOM     17  H   LIG d   1      -1.671  90.028 116.093  0.00  0.00     0.149 HD
ENDBRANCH   6  13
BRANCH   5  18
ATOM     18  N   LIG d   1      -0.278  92.496 118.250  0.00  0.00     0.381 N 
ATOM     19  H   LIG d   1      -0.549  93.247 117.647  0.00  0.00    -0.090 HD
ATOM     20  H   LIG d   1       0.342  92.862 118.951  0.00  0.00    -0.090 HD
ATOM     21  H   LIG d   1      -1.084  92.101 118.683  0.00  0.00    -0.090 HD
ENDBRANCH   5  18
BRANCH   3  22
ATOM     22  C   LIG d   1       3.999  90.594 117.239  0.00  0.00     0.382 C 
ATOM     23  O   LIG d   1       4.814  89.937 117.930  0.00  0.00    -0.241 OA
ATOM     24  O   LIG d   1       4.423  91.453 116.443  0.00  0.00    -0.241 OA
ENDBRANCH   3  22
TORSDOF 7
ENDMDL
