MODEL 1
REMARK VINA RESULT:      -5.6      0.000      0.000
REMARK  7 active torsions:
REMARK  status: ('A' for Active; 'I' for Inactive)
REMARK    1  A    between atoms: C_2  and  C_3 
REMARK    2  A    between atoms: C_3  and  O_6 
REMARK    3  A    between atoms: C_3  and  C_4 
REMARK    4  A    between atoms: C_7  and  O_6 
REMARK    5  A    between atoms: C_9  and  C_10 
REMARK    6  A    between atoms: N_15  and  C_14 
REMARK    7  A    between atoms: N_20  and  C_19 
REMARK       I    between atoms: C_22  and  N_20 
ROOT
ATOM      1  C   LIG d   1      -5.216  93.558 117.990  0.00  0.00     0.161 C 
ATOM      2  C   LIG d   1      -5.576  94.759 118.623  0.00  0.00     0.016 C 
ATOM      3  C   LIG d   1      -6.777  95.454 118.349  0.00  0.00     0.038 C 
ATOM      4  C   LIG d   1      -7.776  94.911 117.527  0.00  0.00     0.028 C 
ATOM      5  C   LIG d   1      -7.239  93.945 116.477  0.00  0.00    -0.047 C 
ATOM      6  C   LIG d   1      -6.344  92.894 117.173  0.00  0.00     0.091 C 
ENDROOT
BRANCH   1   7
ATOM      7  O   LIG d   1      -4.690  92.632 118.961  0.00  0.00    -0.368 OA
BRANCH   7   8
ATOM      8  C   LIG d   1      -3.258  92.416 118.925  0.00  0.00     0.119 C 
BRANCH   8   9
ATOM      9  C   LIG d   1      -2.696  93.233 117.745  0.00  0.00     0.028 C 
ATOM     10  C   LIG d   1      -1.323  93.850 118.059  0.00  0.00     0.006 C 
ENDBRANCH   8   9
BRANCH   8  11
ATOM     11  C   LIG d   1      -2.923  90.956 118.603  0.00  0.00     0.028 C 
ATOM     12  C   LIG d   1      -3.559  89.967 119.593  0.00  0.00     0.006 C 
ENDBRANCH   8  11
ENDBRANCH   7   8
ENDBRANCH   1   7
BRANCH   6  13
ATOM     13  N   LIG d   1      -5.710  91.960 116.206  0.00  0.00    -0.311 N 
ATOM     14  C   LIG d   1      -6.156  90.726 115.979  0.00  0.00     0.210 C 
ATOM     15  C   LIG d   1      -5.344  89.923 114.958  0.00  0.00     0.109 C 
ATOM     16  O   LIG d   1      -7.166  90.232 116.501  0.00  0.00    -0.276 OA
ATOM     17  H   LIG d   1      -4.903  92.291 115.715  0.00  0.00     0.149 HD
ENDBRANCH   6  13
BRANCH   5  18
ATOM     18  N   LIG d   1      -8.397  93.351 115.783  0.00  0.00     0.381 N 
ATOM     19  H   LIG d   1      -8.904  92.763 116.414  0.00  0.00    -0.090 HD
ATOM     20  H   LIG d   1      -8.065  92.785 115.022  0.00  0.00    -0.090 HD
ATOM     21  H   LIG d   1      -8.993  94.071 115.437  0.00  0.00    -0.090 HD
ENDBRANCH   5  18
BRANCH   3  22
ATOM     22  C   LIG d   1      -6.970  96.724 118.869  0.00  0.00     0.382 C 
ATOM     23  O   LIG d   1      -8.131  97.188 118.977  0.00  0.00    -0.241 OA
ATOM     24  O   LIG d   1      -5.995  97.430 119.191  0.00  0.00    -0.241 OA
ENDBRANCH   3  22
TORSDOF 7
ENDMDL
MODEL 2
REMARK VINA RESULT:      -5.4      1.530      4.898
REMARK  7 active torsions:
REMARK  status: ('A' for Active; 'I' for Inactive)
REMARK    1  A    between atoms: C_2  and  C_3 
REMARK    2  A    between atoms: C_3  and  O_6 
REMARK    3  A    between atoms: C_3  and  C_4 
REMARK    4  A    between atoms: C_7  and  O_6 
REMARK    5  A    between atoms: C_9  and  C_10 
REMARK    6  A    between atoms: N_15  and  C_14 
REMARK    7  A    between atoms: N_20  and  C_19 
REMARK       I    between atoms: C_22  and  N_20 
ROOT
ATOM      1  C   LIG d   1      -5.336  93.036 118.030  0.00  0.00     0.161 C 
ATOM      2  C   LIG d   1      -5.040  91.957 117.181  0.00  0.00     0.016 C 
ATOM      3  C   LIG d   1      -5.840  91.596 116.072  0.00  0.00     0.038 C 
ATOM      4  C   LIG d   1      -6.915  92.389 115.645  0.00  0.00     0.028 C 
ATOM      5  C   LIG d   1      -7.551  93.204 116.767  0.00  0.00    -0.047 C 
ATOM      6  C   LIG d   1      -6.443  93.980 117.514  0.00  0.00     0.091 C 
ENDROOT
BRANCH   1   7
ATOM      7  O   LIG d   1      -4.134  93.780 118.311  0.00  0.00    -0.368 OA
BRANCH   7   8
ATOM      8  C   LIG d   1      -2.892  93.040 118.228  0.00  0.00     0.119 C 
BRANCH   8   9
ATOM      9  C   LIG d   1      -2.497  92.636 119.662  0.00  0.00     0.028 C 
ATOM     10  C   LIG d   1      -2.654  91.127 119.911  0.00  0.00     0.006 C 
ENDBRANCH   8   9
BRANCH   8  11
ATOM     11  C   LIG d   1      -1.748  93.925 117.726  0.00  0.00     0.028 C 
ATOM     12  C   LIG d   1      -0.368  93.438 118.196  0.00  0.00     0.006 C 
ENDBRANCH   8  11
ENDBRANCH   7   8
ENDBRANCH   1   7
BRANCH   6  13
ATOM     13  N   LIG d   1      -6.968  94.737 118.680  0.00  0.00    -0.311 N 
ATOM     14  C   LIG d   1      -7.396  95.996 118.604  0.00  0.00     0.210 C 
ATOM     15  C   LIG d   1      -7.879  96.596 119.929  0.00  0.00     0.109 C 
ATOM     16  O   LIG d   1      -7.450  96.663 117.560  0.00  0.00    -0.276 OA
ATOM     17  H   LIG d   1      -6.989  94.261 119.561  0.00  0.00     0.149 HD
ENDBRANCH   6  13
BRANCH   5  18
ATOM     18  N   LIG d   1      -8.565  94.085 116.158  0.00  0.00     0.381 N 
ATOM     19  H   LIG d   1      -8.114  94.830 115.665  0.00  0.00    -0.090 HD
ATOM     20  H   LIG d   1      -9.128  94.485 116.888  0.00  0.00    -0.090 HD
ATOM     21  H   LIG d   1      -9.139  93.564 115.533  0.00  0.00    -0.090 HD
ENDBRANCH   5  18
BRANCH   3  22
ATOM     22  C   LIG d   1      -5.591  90.408 115.402  0.00  0.00     0.382 C 
ATOM     23  O   LIG d   1      -4.491  89.823 115.551  0.00  0.00    -0.241 OA
ATOM     24  O   LIG d   1      -6.435  89.937 114.616  0.00  0.00    -0.241 OA
ENDBRANCH   3  22
TORSDOF 7
ENDMDL
MODEL 3
REMARK VINA RESULT:      -5.1      2.339      4.030
REMARK  7 active torsions:
REMARK  status: ('A' for Active; 'I' for Inactive)
REMARK    1  A    between atoms: C_2  and  C_3 
REMARK    2  A    between atoms: C_3  and  O_6 
REMARK    3  A    between atoms: C_3  and  C_4 
REMARK    4  A    between atoms: C_7  and  O_6 
REMARK    5  A    between atoms: C_9  and  C_10 
REMARK    6  A    between atoms: N_15  and  C_14 
REMARK    7  A    between atoms: N_20  and  C_19 
REMARK       I    between atoms: C_22  and  N_20 
ROOT
ATOM      1  C   LIG d   1      -5.651  92.656 119.186  0.00  0.00     0.161 C 
ATOM      2  C   LIG d   1      -6.937  93.212 119.277  0.00  0.00     0.016 C 
ATOM      3  C   LIG d   1      -7.190  94.602 119.223  0.00  0.00     0.038 C 
ATOM      4  C   LIG d   1      -6.180  95.528 118.921  0.00  0.00     0.028 C 
ATOM      5  C   LIG d   1      -4.786  95.057 119.322  0.00  0.00    -0.047 C 
ATOM      6  C   LIG d   1      -4.549  93.643 118.745  0.00  0.00     0.091 C 
ENDROOT
BRANCH   1   7
ATOM      7  O   LIG d   1      -5.675  91.509 118.313  0.00  0.00    -0.368 OA
BRANCH   7   8
ATOM      8  C   LIG d   1      -5.277  91.745 116.940  0.00  0.00     0.119 C 
BRANCH   8   9
ATOM      9  C   LIG d   1      -6.561  91.802 116.090  0.00  0.00     0.028 C 
ATOM     10  C   LIG d   1      -6.833  93.209 115.532  0.00  0.00     0.006 C 
ENDBRANCH   8   9
BRANCH   8  11
ATOM     11  C   LIG d   1      -4.474  90.566 116.382  0.00  0.00     0.028 C 
ATOM     12  C   LIG d   1      -5.152  89.902 115.174  0.00  0.00     0.006 C 
ENDBRANCH   8  11
ENDBRANCH   7   8
ENDBRANCH   1   7
BRANCH   6  13
ATOM     13  N   LIG d   1      -3.241  93.072 119.161  0.00  0.00    -0.311 N 
ATOM     14  C   LIG d   1      -2.111  93.257 118.482  0.00  0.00     0.210 C 
ATOM     15  C   LIG d   1      -0.880  92.565 119.074  0.00  0.00     0.109 C 
ATOM     16  O   LIG d   1      -2.005  93.955 117.462  0.00  0.00    -0.276 OA
ATOM     17  H   LIG d   1      -3.230  92.518 119.995  0.00  0.00     0.149 HD
ENDBRANCH   6  13
BRANCH   5  18
ATOM     18  N   LIG d   1      -3.819  96.053 118.827  0.00  0.00     0.381 N 
ATOM     19  H   LIG d   1      -3.633  96.729 119.540  0.00  0.00    -0.090 HD
ATOM     20  H   LIG d   1      -4.218  96.530 118.037  0.00  0.00    -0.090 HD
ATOM     21  H   LIG d   1      -2.972  95.602 118.558  0.00  0.00    -0.090 HD
ENDBRANCH   5  18
BRANCH   3  22
ATOM     22  C   LIG d   1      -8.458  95.082 119.513  0.00  0.00     0.382 C 
ATOM     23  O   LIG d   1      -9.461  94.350 119.334  0.00  0.00    -0.241 OA
ATOM     24  O   LIG d   1      -8.616  96.253 119.908  0.00  0.00    -0.241 OA
ENDBRANCH   3  22
TORSDOF 7
ENDMDL
MODEL 4
REMARK VINA RESULT:      -5.0      1.878      2.449
REMARK  7 active torsions:
REMARK  status: ('A' for Active; 'I' for Inactive)
REMARK    1  A    between atoms: C_2  and  C_3 
REMARK    2  A    between atoms: C_3  and  O_6 
REMARK    3  A    between atoms: C_3  and  C_4 
REMARK    4  A    between atoms: C_7  and  O_6 
REMARK    5  A    between atoms: C_9  and  C_10 
REMARK    6  A    between atoms: N_15  and  C_14 
REMARK    7  A    between atoms: N_20  and  C_19 
REMARK       I    between atoms: C_22  and  N_20 
ROOT
ATOM      1  C   LIG d   1      -5.247  92.947 118.342  0.00  0.00     0.161 C 
ATOM      2  C   LIG d   1      -4.497  93.998 118.896  0.00  0.00     0.016 C 
ATOM      3  C   LIG d   1      -4.960  95.332 118.967  0.00  0.00     0.038 C 
ATOM      4  C   LIG d   1      -6.275  95.679 118.623  0.00  0.00     0.028 C 
ATOM      5  C   LIG d   1      -6.898  94.747 117.590  0.00  0.00    -0.047 C 
ATOM      6  C   LIG d   1      -6.727  93.286 118.064  0.00  0.00     0.091 C 
ENDROOT
BRANCH   1   7
ATOM      7  O   LIG d   1      -5.150  91.781 119.184  0.00  0.00    -0.368 OA
BRANCH   7   8
ATOM      8  C   LIG d   1      -4.388  90.671 118.649  0.00  0.00     0.119 C 
BRANCH   8   9
ATOM      9  C   LIG d   1      -3.178  90.450 119.578  0.00  0.00     0.028 C 
ATOM     10  C   LIG d   1      -1.841  90.763 118.885  0.00  0.00     0.006 C 
ENDBRANCH   8   9
BRANCH   8  11
ATOM     11  C   LIG d   1      -3.791  91.013 117.280  0.00  0.00     0.028 C 
ATOM     12  C   LIG d   1      -4.327  90.113 116.155  0.00  0.00     0.006 C 
ENDBRANCH   8  11
ENDBRANCH   7   8
ENDBRANCH   1   7
BRANCH   6  13
ATOM     13  N   LIG d   1      -7.234  92.304 117.070  0.00  0.00    -0.311 N 
ATOM     14  C   LIG d   1      -6.979  92.383 115.766  0.00  0.00     0.210 C 
ATOM     15  C   LIG d   1      -7.615  91.280 114.914  0.00  0.00     0.109 C 
ATOM     16  O   LIG d   1      -6.260  93.245 115.237  0.00  0.00    -0.276 OA
ATOM     17  H   LIG d   1      -7.800  91.554 117.417  0.00  0.00     0.149 HD
ENDBRANCH   6  13
BRANCH   5  18
ATOM     18  N   LIG d   1      -8.310  95.141 117.427  0.00  0.00     0.381 N 
ATOM     19  H   LIG d   1      -8.905  94.370 117.656  0.00  0.00    -0.090 HD
ATOM     20  H   LIG d   1      -8.470  95.389 116.467  0.00  0.00    -0.090 HD
ATOM     21  H   LIG d   1      -8.517  95.916 118.017  0.00  0.00    -0.090 HD
ENDBRANCH   5  18
BRANCH   3  22
ATOM     22  C   LIG d   1      -4.090  96.342 119.348  0.00  0.00     0.382 C 
ATOM     23  O   LIG d   1      -4.540  97.400 119.851  0.00  0.00    -0.241 OA
ATOM     24  O   LIG d   1      -2.865  96.227 119.155  0.00  0.00    -0.241 OA
ENDBRANCH   3  22
TORSDOF 7
ENDMDL
MODEL 5
REMARK VINA RESULT:      -4.8      2.590      5.832
REMARK  7 active torsions:
REMARK  status: ('A' for Active; 'I' for Inactive)
REMARK    1  A    between atoms: C_2  and  C_3 
REMARK    2  A    between atoms: C_3  and  O_6 
REMARK    3  A    between atoms: C_3  and  C_4 
REMARK    4  A    between atoms: C_7  and  O_6 
REMARK    5  A    between atoms: C_9  and  C_10 
REMARK    6  A    between atoms: N_15  and  C_14 
REMARK    7  A    between atoms: N_20  and  C_19 
REMARK       I    between atoms: C_22  and  N_20 
ROOT
ATOM      1  C   LIG d   1      -4.108  93.086 117.712  0.00  0.00     0.161 C 
ATOM      2  C   LIG d   1      -2.905  92.364 117.637  0.00  0.00     0.016 C 
ATOM      3  C   LIG d   1      -1.682  92.832 118.171  0.00  0.00     0.038 C 
ATOM      4  C   LIG d   1      -1.612  93.993 118.955  0.00  0.00     0.028 C 
ATOM      5  C   LIG d   1      -2.700  95.011 118.629  0.00  0.00    -0.047 C 
ATOM      6  C   LIG d   1      -4.074  94.303 118.659  0.00  0.00     0.091 C 
ENDROOT
BRANCH   1   7
ATOM      7  O   LIG d   1      -5.187  92.201 118.071  0.00  0.00    -0.368 OA
BRANCH   7   8
ATOM      8  C   LIG d   1      -6.068  91.798 116.994  0.00  0.00     0.119 C 
BRANCH   8   9
ATOM      9  C   LIG d   1      -5.361  90.672 116.214  0.00  0.00     0.028 C 
ATOM     10  C   LIG d   1      -6.116  90.284 114.932  0.00  0.00     0.006 C 
ENDBRANCH   8   9
BRANCH   8  11
ATOM     11  C   LIG d   1      -6.263  92.931 115.982  0.00  0.00     0.028 C 
ATOM     12  C   LIG d   1      -7.707  93.459 115.949  0.00  0.00     0.006 C 
ENDBRANCH   8  11
ENDBRANCH   7   8
ENDBRANCH   1   7
BRANCH   6  13
ATOM     13  N   LIG d   1      -5.187  95.208 118.269  0.00  0.00    -0.311 N 
ATOM     14  C   LIG d   1      -6.351  95.259 118.914  0.00  0.00     0.210 C 
ATOM     15  C   LIG d   1      -7.368  96.247 118.335  0.00  0.00     0.109 C 
ATOM     16  O   LIG d   1      -6.626  94.603 119.930  0.00  0.00    -0.276 OA
ATOM     17  H   LIG d   1      -5.037  95.798 117.474  0.00  0.00     0.149 HD
ENDBRANCH   6  13
BRANCH   5  18
ATOM     18  N   LIG d   1      -2.593  96.107 119.610  0.00  0.00     0.381 N 
ATOM     19  H   LIG d   1      -1.634  96.373 119.717  0.00  0.00    -0.090 HD
ATOM     20  H   LIG d   1      -2.932  95.783 120.498  0.00  0.00    -0.090 HD
ATOM     21  H   LIG d   1      -3.130  96.890 119.307  0.00  0.00    -0.090 HD
ENDBRANCH   5  18
BRANCH   3  22
ATOM     22  C   LIG d   1      -0.506  92.155 117.889  0.00  0.00     0.382 C 
ATOM     23  O   LIG d   1      -0.542  90.947 117.554  0.00  0.00    -0.241 OA
ATOM     24  O   LIG d   1       0.595  92.725 118.009  0.00  0.00    -0.241 OA
ENDBRANCH   3  22
TORSDOF 7
ENDMDL
MODEL 6
REMARK VINA RESULT:      -4.7      7.756     10.984
REMARK  7 active torsions:
REMARK  status: ('A' for Active; 'I' for Inactive)
REMARK    1  A    between atoms: C_2  and  C_3 
REMARK    2  A    between atoms: C_3  and  O_6 
REMARK    3  A    between atoms: C_3  and  C_4 
REMARK    4  A    between atoms: C_7  and  O_6 
REMARK    5  A    between atoms: C_9  and  C_10 
REMARK    6  A    between atoms: N_15  and  C_14 
REMARK    7  A    between atoms: N_20  and  C_19 
REMARK       I    between atoms: C_22  and  N_20 
ROOT
ATOM      1  C   LIG d   1       2.875  89.884 116.648  0.00  0.00     0.161 C 
ATOM      2  C   LIG d   1       2.639  89.381 115.357  0.00  0.00     0.016 C 
ATOM      3  C   LIG d   1       3.576  88.597 114.644  0.00  0.00     0.038 C 
ATOM      4  C   LIG d   1       4.760  88.134 115.238  0.00  0.00     0.028 C 
ATOM      5  C   LIG d   1       5.268  89.034 116.359  0.00  0.00    -0.047 C 
ATOM      6  C   LIG d   1       4.115  89.296 117.354  0.00  0.00     0.091 C 
ENDROOT
BRANCH   1   7
ATOM      7  O   LIG d   1       1.701  89.704 117.464  0.00  0.00    -0.368 OA
BRANCH   7   8
ATOM      8  C   LIG d   1       0.920  90.896 117.728  0.00  0.00     0.119 C 
BRANCH   8   9
ATOM      9  C   LIG d   1       0.633  90.935 119.241  0.00  0.00     0.028 C 
ATOM     10  C   LIG d   1       1.279  92.150 119.930  0.00  0.00     0.006 C 
ENDBRANCH   8   9
BRANCH   8  11
ATOM     11  C   LIG d   1      -0.454  90.821 117.056  0.00  0.00     0.028 C 
ATOM     12  C   LIG d   1      -1.577  91.401 117.931  0.00  0.00     0.006 C 
ENDBRANCH   8  11
ENDBRANCH   7   8
ENDBRANCH   1   7
BRANCH   6  13
ATOM     13  N   LIG d   1       4.503  90.237 118.437  0.00  0.00    -0.311 N 
ATOM     14  C   LIG d   1       4.540  91.559 118.282  0.00  0.00     0.210 C 
ATOM     15  C   LIG d   1       4.987  92.343 119.519  0.00  0.00     0.109 C 
ATOM     16  O   LIG d   1       4.213  92.158 117.246  0.00  0.00    -0.276 OA
ATOM     17  H   LIG d   1       4.753  89.837 119.321  0.00  0.00     0.149 HD
ENDBRANCH   6  13
BRANCH   5  18
ATOM     18  N   LIG d   1       6.426  88.364 116.979  0.00  0.00     0.381 N 
ATOM     19  H   LIG d   1       7.066  88.067 116.269  0.00  0.00    -0.090 HD
ATOM     20  H   LIG d   1       6.104  87.550 117.473  0.00  0.00    -0.090 HD
ATOM     21  H   LIG d   1       6.883  88.985 117.609  0.00  0.00    -0.090 HD
ENDBRANCH   5  18
BRANCH   3  22
ATOM     22  C   LIG d   1       3.350  88.303 113.308  0.00  0.00     0.382 C 
ATOM     23  O   LIG d   1       4.190  87.630 112.664  0.00  0.00    -0.241 OA
ATOM     24  O   LIG d   1       2.338  88.739 112.728  0.00  0.00    -0.241 OA
ENDBRANCH   3  22
TORSDOF 7
ENDMDL
MODEL 7
REMARK VINA RESULT:      -4.6      2.751      5.672
REMARK  7 active torsions:
REMARK  status: ('A' for Active; 'I' for Inactive)
REMARK    1  A    between atoms: C_2  and  C_3 
REMARK    2  A    between atoms: C_3  and  O_6 
REMARK    3  A    between atoms: C_3  and  C_4 
REMARK    4  A    between atoms: C_7  and  O_6 
REMARK    5  A    between atoms: C_9  and  C_10 
REMARK    6  A    between atoms: N_15  and  C_14 
REMARK    7  A    between atoms: N_20  and  C_19 
REMARK       I    between atoms: C_22  and  N_20 
ROOT
ATOM      1  C   LIG d   1      -3.457  93.119 117.766  0.00  0.00     0.161 C 
ATOM      2  C   LIG d   1      -2.135  92.682 117.952  0.00  0.00     0.016 C 
ATOM      3  C   LIG d   1      -1.187  93.383 118.732  0.00  0.00     0.038 C 
ATOM      4  C   LIG d   1      -1.542  94.497 119.507  0.00  0.00     0.028 C 
ATOM      5  C   LIG d   1      -2.738  95.264 118.953  0.00  0.00    -0.047 C 
ATOM      6  C   LIG d   1      -3.895  94.271 118.694  0.00  0.00     0.091 C 
ENDROOT
BRANCH   1   7
ATOM      7  O   LIG d   1      -4.362  92.004 117.891  0.00  0.00    -0.368 OA
BRANCH   7   8
ATOM      8  C   LIG d   1      -5.143  91.681 116.714  0.00  0.00     0.119 C 
BRANCH   8   9
ATOM      9  C   LIG d   1      -6.593  91.434 117.174  0.00  0.00     0.028 C 
ATOM     10  C   LIG d   1      -6.729  91.423 118.706  0.00  0.00     0.006 C 
ENDBRANCH   8   9
BRANCH   8  11
ATOM     11  C   LIG d   1      -4.686  90.360 116.087  0.00  0.00     0.028 C 
ATOM     12  C   LIG d   1      -5.523  89.961 114.862  0.00  0.00     0.006 C 
ENDBRANCH   8  11
ENDBRANCH   7   8
ENDBRANCH   1   7
BRANCH   6  13
ATOM     13  N   LIG d   1      -5.075  94.926 118.072  0.00  0.00    -0.311 N 
ATOM     14  C   LIG d   1      -6.237  95.093 118.701  0.00  0.00     0.210 C 
ATOM     15  C   LIG d   1      -7.330  95.774 117.871  0.00  0.00     0.109 C 
ATOM     16  O   LIG d   1      -6.457  94.770 119.878  0.00  0.00    -0.276 OA
ATOM     17  H   LIG d   1      -4.974  95.247 117.129  0.00  0.00     0.149 HD
ENDBRANCH   6  13
BRANCH   5  18
ATOM     18  N   LIG d   1      -3.086  96.313 119.930  0.00  0.00     0.381 N 
ATOM     19  H   LIG d   1      -4.077  96.448 119.944  0.00  0.00    -0.090 HD
ATOM     20  H   LIG d   1      -2.654  97.176 119.647  0.00  0.00    -0.090 HD
ATOM     21  H   LIG d   1      -2.765  96.055 120.837  0.00  0.00    -0.090 HD
ENDBRANCH   5  18
BRANCH   3  22
ATOM     22  C   LIG d   1       0.144  92.994 118.710  0.00  0.00     0.382 C 
ATOM     23  O   LIG d   1       0.906  93.310 119.655  0.00  0.00    -0.241 OA
ATOM     24  O   LIG d   1       0.603  92.368 117.735  0.00  0.00    -0.241 OA
ENDBRANCH   3  22
TORSDOF 7
ENDMDL
MODEL 8
REMARK VINA RESULT:      -4.6      9.119     12.133
REMARK  7 active torsions:
REMARK  status: ('A' for Active; 'I' for Inactive)
REMARK    1  A    between atoms: C_2  and  C_3 
REMARK    2  A    between atoms: C_3  and  O_6 
REMARK    3  A    between atoms: C_3  and  C_4 
REMARK    4  A    between atoms: C_7  and  O_6 
REMARK    5  A    between atoms: C_9  and  C_10 
REMARK    6  A    between atoms: N_15  and  C_14 
REMARK    7  A    between atoms: N_20  and  C_19 
REMARK       I    between atoms: C_22  and  N_20 
ROOT
ATOM      1  C   LIG d   1       4.658  89.599 116.132  0.00  0.00     0.161 C 
ATOM      2  C   LIG d   1       3.871  89.276 115.015  0.00  0.00     0.016 C 
ATOM      3  C   LIG d   1       3.869  88.000 114.407  0.00  0.00     0.038 C 
ATOM      4  C   LIG d   1       4.546  86.908 114.972  0.00  0.00     0.028 C 
ATOM      5  C   LIG d   1       5.754  87.313 115.810  0.00  0.00    -0.047 C 
ATOM      6  C   LIG d   1       5.319  88.391 116.829  0.00  0.00     0.091 C 
ENDROOT
BRANCH   1   7
ATOM      7  O   LIG d   1       3.878  90.358 117.077  0.00  0.00    -0.368 OA
BRANCH   7   8
ATOM      8  C   LIG d   1       2.489  89.969 117.214  0.00  0.00     0.119 C 
BRANCH   8   9
ATOM      9  C   LIG d   1       1.657  91.261 117.333  0.00  0.00     0.028 C 
ATOM     10  C   LIG d   1       0.162  91.022 117.063  0.00  0.00     0.006 C 
ENDBRANCH   8   9
BRANCH   8  11
ATOM     11  C   LIG d   1       2.250  89.210 118.523  0.00  0.00     0.028 C 
ATOM     12  C   LIG d   1       2.121  87.693 118.316  0.00  0.00     0.006 C 
ENDBRANCH   8  11
ENDBRANCH   7   8
ENDBRANCH   1   7
BRANCH   6  13
ATOM     13  N   LIG d   1       6.459  88.904 117.633  0.00  0.00    -0.311 N 
ATOM     14  C   LIG d   1       6.786  88.421 118.831  0.00  0.00     0.210 C 
ATOM     15  C   LIG d   1       7.983  89.106 119.498  0.00  0.00     0.109 C 
ATOM     16  O   LIG d   1       6.220  87.470 119.389  0.00  0.00    -0.276 OA
ATOM     17  H   LIG d   1       6.992  89.655 117.241  0.00  0.00     0.149 HD
ENDBRANCH   6  13
BRANCH   5  18
ATOM     18  N   LIG d   1       6.281  86.093 116.449  0.00  0.00     0.381 N 
ATOM     19  H   LIG d   1       6.120  85.303 115.857  0.00  0.00    -0.090 HD
ATOM     20  H   LIG d   1       5.794  85.943 117.315  0.00  0.00    -0.090 HD
ATOM     21  H   LIG d   1       7.257  86.194 116.623  0.00  0.00    -0.090 HD
ENDBRANCH   5  18
BRANCH   3  22
ATOM     22  C   LIG d   1       3.215  87.815 113.198  0.00  0.00     0.382 C 
ATOM     23  O   LIG d   1       3.567  86.887 112.430  0.00  0.00    -0.241 OA
ATOM     24  O   LIG d   1       2.308  88.592 112.845  0.00  0.00    -0.241 OA
ENDBRANCH   3  22
TORSDOF 7
ENDMDL
MODEL 9
REMARK VINA RESULT:      -4.4      9.608     12.703
REMARK  7 active torsions:
REMARK  status: ('A' for Active; 'I' for Inactive)
REMARK    1  A    between atoms: C_2  and  C_3 
REMARK    2  A    between atoms: C_3  and  O_6 
REMARK    3  A    between atoms: C_3  and  C_4 
REMARK    4  A    between atoms: C_7  and  O_6 
REMARK    5  A    between atoms: C_9  and  C_10 
REMARK    6  A    between atoms: N_15  and  C_14 
REMARK    7  A    between atoms: N_20  and  C_19 
REMARK       I    between atoms: C_22  and  N_20 
ROOT
ATOM      1  C   LIG d   1       5.080  89.501 117.003  0.00  0.00     0.161 C 
ATOM      2  C   LIG d   1       4.511  89.470 115.719  0.00  0.00     0.016 C 
ATOM      3  C   LIG d   1       4.696  88.402 114.811  0.00  0.00     0.038 C 
ATOM      4  C   LIG d   1       5.343  87.215 115.186  0.00  0.00     0.028 C 
ATOM      5  C   LIG d   1       6.366  87.408 116.301  0.00  0.00    -0.047 C 
ATOM      6  C   LIG d   1       5.696  88.166 117.470  0.00  0.00     0.091 C 
ENDROOT
BRANCH   1   7
ATOM      7  O   LIG d   1       4.104  89.963 117.958  0.00  0.00    -0.368 OA
BRANCH   7   8
ATOM      8  C   LIG d   1       3.962  91.400 118.080  0.00  0.00     0.119 C 
BRANCH   8   9
ATOM      9  C   LIG d   1       4.680  91.829 119.374  0.00  0.00     0.028 C 
ATOM     10  C   LIG d   1       6.102  92.352 119.110  0.00  0.00     0.006 C 
ENDBRANCH   8   9
BRANCH   8  11
ATOM     11  C   LIG d   1       2.497  91.800 118.277  0.00  0.00     0.028 C 
ATOM     12  C   LIG d   1       1.548  91.091 117.298  0.00  0.00     0.006 C 
ENDBRANCH   8  11
ENDBRANCH   7   8
ENDBRANCH   1   7
BRANCH   6  13
ATOM     13  N   LIG d   1       6.650  88.470 118.568  0.00  0.00    -0.311 N 
ATOM     14  C   LIG d   1       7.831  89.056 118.372  0.00  0.00     0.210 C 
ATOM     15  C   LIG d   1       8.669  89.260 119.638  0.00  0.00     0.109 C 
ATOM     16  O   LIG d   1       8.250  89.454 117.275  0.00  0.00    -0.276 OA
ATOM     17  H   LIG d   1       6.377  88.209 119.495  0.00  0.00     0.149 HD
ENDBRANCH   6  13
BRANCH   5  18
ATOM     18  N   LIG d   1       6.863  86.074 116.686  0.00  0.00     0.381 N 
ATOM     19  H   LIG d   1       7.802  86.146 117.022  0.00  0.00    -0.090 HD
ATOM     20  H   LIG d   1       6.863  85.480 115.875  0.00  0.00    -0.090 HD
ATOM     21  H   LIG d   1       6.279  85.683 117.392  0.00  0.00    -0.090 HD
ENDBRANCH   5  18
BRANCH   3  22
ATOM     22  C   LIG d   1       4.266  88.532 113.500  0.00  0.00     0.382 C 
ATOM     23  O   LIG d   1       3.681  89.580 113.133  0.00  0.00    -0.241 OA
ATOM     24  O   LIG d   1       4.414  87.597 112.691  0.00  0.00    -0.241 OA
ENDBRANCH   3  22
TORSDOF 7
ENDMDL
