MODEL 1
REMARK VINA RESULT:      -4.9      0.000      0.000
REMARK  7 active torsions:
REMARK  status: ('A' for Active; 'I' for Inactive)
REMARK    1  A    between atoms: C_2  and  C_3 
REMARK    2  A    between atoms: C_3  and  O_6 
REMARK    3  A    between atoms: C_3  and  C_4 
REMARK    4  A    between atoms: C_7  and  O_6 
REMARK    5  A    between atoms: C_9  and  C_10 
REMARK    6  A    between atoms: N_15  and  C_14 
REMARK    7  A    between atoms: N_20  and  C_19 
REMARK       I    between atoms: C_22  and  N_20 
ROOT
ATOM      1  C   LIG d   1       3.693  89.361 116.086  0.00  0.00     0.161 C 
ATOM      2  C   LIG d   1       4.200  90.514 116.709  0.00  0.00     0.016 C 
ATOM      3  C   LIG d   1       3.384  91.477 117.346  0.00  0.00     0.038 C 
ATOM      4  C   LIG d   1       2.008  91.275 117.535  0.00  0.00     0.028 C 
ATOM      5  C   LIG d   1       1.379  90.370 116.481  0.00  0.00    -0.047 C 
ATOM      6  C   LIG d   1       2.206  89.069 116.378  0.00  0.00     0.091 C 
ENDROOT
BRANCH   1   7
ATOM      7  O   LIG d   1       4.505  88.222 116.431  0.00  0.00    -0.368 OA
BRANCH   7   8
ATOM      8  C   LIG d   1       5.670  87.995 115.600  0.00  0.00     0.119 C 
BRANCH   8   9
ATOM      9  C   LIG d   1       5.223  88.123 114.131  0.00  0.00     0.028 C 
ATOM     10  C   LIG d   1       6.257  88.863 113.265  0.00  0.00     0.006 C 
ENDBRANCH   8   9
BRANCH   8  11
ATOM     11  C   LIG d   1       6.185  86.559 115.743  0.00  0.00     0.028 C 
ATOM     12  C   LIG d   1       5.071  85.510 115.605  0.00  0.00     0.006 C 
ENDBRANCH   8  11
ENDBRANCH   7   8
ENDBRANCH   1   7
BRANCH   6  13
ATOM     13  N   LIG d   1       1.708  88.163 115.311  0.00  0.00    -0.311 N 
ATOM     14  C   LIG d   1       1.534  86.853 115.482  0.00  0.00     0.210 C 
ATOM     15  C   LIG d   1       1.030  86.101 114.247  0.00  0.00     0.109 C 
ATOM     16  O   LIG d   1       1.718  86.249 116.550  0.00  0.00    -0.276 OA
ATOM     17  H   LIG d   1       1.503  88.575 114.422  0.00  0.00     0.149 HD
ENDBRANCH   6  13
BRANCH   5  18
ATOM     18  N   LIG d   1      -0.023  90.134 116.876  0.00  0.00     0.381 N 
ATOM     19  H   LIG d   1      -0.632  90.363 116.116  0.00  0.00    -0.090 HD
ATOM     20  H   LIG d   1      -0.247  90.733 117.652  0.00  0.00    -0.090 HD
ATOM     21  H   LIG d   1      -0.148  89.181 117.137  0.00  0.00    -0.090 HD
ENDBRANCH   5  18
BRANCH   3  22
ATOM     22  C   LIG d   1       3.937  92.677 117.767  0.00  0.00     0.382 C 
ATOM     23  O   LIG d   1       4.335  92.803 118.950  0.00  0.00    -0.241 OA
ATOM     24  O   LIG d   1       4.004  93.648 116.990  0.00  0.00    -0.241 OA
ENDBRANCH   3  22
TORSDOF 7
ENDMDL
MODEL 2
REMARK VINA RESULT:      -4.9      1.743      4.748
REMARK  7 active torsions:
REMARK  status: ('A' for Active; 'I' for Inactive)
REMARK    1  A    between atoms: C_2  and  C_3 
REMARK    2  A    between atoms: C_3  and  O_6 
REMARK    3  A    between atoms: C_3  and  C_4 
REMARK    4  A    between atoms: C_7  and  O_6 
REMARK    5  A    between atoms: C_9  and  C_10 
REMARK    6  A    between atoms: N_15  and  C_14 
REMARK    7  A    between atoms: N_20  and  C_19 
REMARK       I    between atoms: C_22  and  N_20 
ROOT
ATOM      1  C   LIG d   1       4.180  89.314 115.928  0.00  0.00     0.161 C 
ATOM      2  C   LIG d   1       3.413  88.287 115.352  0.00  0.00     0.016 C 
ATOM      3  C   LIG d   1       2.055  88.059 115.670  0.00  0.00     0.038 C 
ATOM      4  C   LIG d   1       1.324  88.943 116.478  0.00  0.00     0.028 C 
ATOM      5  C   LIG d   1       2.187  89.702 117.480  0.00  0.00    -0.047 C 
ATOM      6  C   LIG d   1       3.370  90.355 116.728  0.00  0.00     0.091 C 
ENDROOT
BRANCH   1   7
ATOM      7  O   LIG d   1       4.967  89.965 114.911  0.00  0.00    -0.368 OA
BRANCH   7   8
ATOM      8  C   LIG d   1       6.376  89.626 114.881  0.00  0.00     0.119 C 
BRANCH   8   9
ATOM      9  C   LIG d   1       6.524  88.338 114.049  0.00  0.00     0.028 C 
ATOM     10  C   LIG d   1       5.937  88.482 112.635  0.00  0.00     0.006 C 
ENDBRANCH   8   9
BRANCH   8  11
ATOM     11  C   LIG d   1       6.893  89.268 116.278  0.00  0.00     0.028 C 
ATOM     12  C   LIG d   1       7.630  87.920 116.313  0.00  0.00     0.006 C 
ENDBRANCH   8  11
ENDBRANCH   7   8
ENDBRANCH   1   7
BRANCH   6  13
ATOM     13  N   LIG d   1       4.311  91.048 117.646  0.00  0.00    -0.311 N 
ATOM     14  C   LIG d   1       4.487  92.369 117.655  0.00  0.00     0.210 C 
ATOM     15  C   LIG d   1       5.520  92.876 118.667  0.00  0.00     0.109 C 
ATOM     16  O   LIG d   1       3.863  93.170 116.945  0.00  0.00    -0.276 OA
ATOM     17  H   LIG d   1       4.836  90.476 118.278  0.00  0.00     0.149 HD
ENDBRANCH   6  13
BRANCH   5  18
ATOM     18  N   LIG d   1       1.322  90.684 118.160  0.00  0.00     0.381 N 
ATOM     19  H   LIG d   1       1.731  91.595 118.100  0.00  0.00    -0.090 HD
ATOM     20  H   LIG d   1       1.248  90.435 119.131  0.00  0.00    -0.090 HD
ATOM     21  H   LIG d   1       0.418  90.690 117.741  0.00  0.00    -0.090 HD
ENDBRANCH   5  18
BRANCH   3  22
ATOM     22  C   LIG d   1       1.424  86.914 115.208  0.00  0.00     0.382 C 
ATOM     23  O   LIG d   1       1.031  86.043 116.021  0.00  0.00    -0.241 OA
ATOM     24  O   LIG d   1       1.282  86.721 113.985  0.00  0.00    -0.241 OA
ENDBRANCH   3  22
TORSDOF 7
ENDMDL
MODEL 3
REMARK VINA RESULT:      -4.7      2.494      4.183
REMARK  7 active torsions:
REMARK  status: ('A' for Active; 'I' for Inactive)
REMARK    1  A    between atoms: C_2  and  C_3 
REMARK    2  A    between atoms: C_3  and  O_6 
REMARK    3  A    between atoms: C_3  and  C_4 
REMARK    4  A    between atoms: C_7  and  O_6 
REMARK    5  A    between atoms: C_9  and  C_10 
REMARK    6  A    between atoms: N_15  and  C_14 
REMARK    7  A    between atoms: N_20  and  C_19 
REMARK       I    between atoms: C_22  and  N_20 
ROOT
ATOM      1  C   LIG d   1       2.174  88.548 116.131  0.00  0.00     0.161 C 
ATOM      2  C   LIG d   1       0.917  88.941 116.619  0.00  0.00     0.016 C 
ATOM      3  C   LIG d   1       0.688  90.173 117.274  0.00  0.00     0.038 C 
ATOM      4  C   LIG d   1       1.674  91.168 117.350  0.00  0.00     0.028 C 
ATOM      5  C   LIG d   1       3.095  90.614 117.319  0.00  0.00    -0.047 C 
ATOM      6  C   LIG d   1       3.238  89.666 116.106  0.00  0.00     0.091 C 
ENDROOT
BRANCH   1   7
ATOM      7  O   LIG d   1       2.029  87.966 114.820  0.00  0.00    -0.368 OA
BRANCH   7   8
ATOM      8  C   LIG d   1       2.211  86.531 114.736  0.00  0.00     0.119 C 
BRANCH   8   9
ATOM      9  C   LIG d   1       3.470  86.274 113.886  0.00  0.00     0.028 C 
ATOM     10  C   LIG d   1       3.521  87.158 112.629  0.00  0.00     0.006 C 
ENDBRANCH   8   9
BRANCH   8  11
ATOM     11  C   LIG d   1       1.063  85.867 113.971  0.00  0.00     0.028 C 
ATOM     12  C   LIG d   1      -0.240  85.808 114.785  0.00  0.00     0.006 C 
ENDBRANCH   8  11
ENDBRANCH   7   8
ENDBRANCH   1   7
BRANCH   6  13
ATOM     13  N   LIG d   1       4.573  89.016 116.049  0.00  0.00    -0.311 N 
ATOM     14  C   LIG d   1       5.435  89.199 115.050  0.00  0.00     0.210 C 
ATOM     15  C   LIG d   1       6.747  88.418 115.178  0.00  0.00     0.109 C 
ATOM     16  O   LIG d   1       5.251  89.958 114.087  0.00  0.00    -0.276 OA
ATOM     17  H   LIG d   1       4.817  88.407 116.806  0.00  0.00     0.149 HD
ENDBRANCH   6  13
BRANCH   5  18
ATOM     18  N   LIG d   1       4.019  91.763 117.266  0.00  0.00     0.381 N 
ATOM     19  H   LIG d   1       3.743  92.451 117.937  0.00  0.00    -0.090 HD
ATOM     20  H   LIG d   1       3.972  92.177 116.351  0.00  0.00    -0.090 HD
ATOM     21  H   LIG d   1       4.950  91.461 117.454  0.00  0.00    -0.090 HD
ENDBRANCH   5  18
BRANCH   3  22
ATOM     22  C   LIG d   1      -0.530  90.405 117.895  0.00  0.00     0.382 C 
ATOM     23  O   LIG d   1      -1.344  89.463 118.049  0.00  0.00    -0.241 OA
ATOM     24  O   LIG d   1      -0.843  91.552 118.265  0.00  0.00    -0.241 OA
ENDBRANCH   3  22
TORSDOF 7
ENDMDL
MODEL 4
REMARK VINA RESULT:      -4.4      2.221      3.491
REMARK  7 active torsions:
REMARK  status: ('A' for Active; 'I' for Inactive)
REMARK    1  A    between atoms: C_2  and  C_3 
REMARK    2  A    between atoms: C_3  and  O_6 
REMARK    3  A    between atoms: C_3  and  C_4 
REMARK    4  A    between atoms: C_7  and  O_6 
REMARK    5  A    between atoms: C_9  and  C_10 
REMARK    6  A    between atoms: N_15  and  C_14 
REMARK    7  A    between atoms: N_20  and  C_19 
REMARK       I    between atoms: C_22  and  N_20 
ROOT
ATOM      1  C   LIG d   1       1.517  89.431 116.521  0.00  0.00     0.161 C 
ATOM      2  C   LIG d   1       2.759  90.066 116.686  0.00  0.00     0.016 C 
ATOM      3  C   LIG d   1       2.958  91.176 117.538  0.00  0.00     0.038 C 
ATOM      4  C   LIG d   1       1.955  91.636 118.404  0.00  0.00     0.028 C 
ATOM      5  C   LIG d   1       0.544  91.347 117.903  0.00  0.00    -0.047 C 
ATOM      6  C   LIG d   1       0.437  89.848 117.541  0.00  0.00     0.091 C 
ENDROOT
BRANCH   1   7
ATOM      7  O   LIG d   1       1.694  88.000 116.535  0.00  0.00    -0.368 OA
BRANCH   7   8
ATOM      8  C   LIG d   1       1.647  87.340 115.247  0.00  0.00     0.119 C 
BRANCH   8   9
ATOM      9  C   LIG d   1       0.612  86.203 115.346  0.00  0.00     0.028 C 
ATOM     10  C   LIG d   1       0.166  85.692 113.965  0.00  0.00     0.006 C 
ENDBRANCH   8   9
BRANCH   8  11
ATOM     11  C   LIG d   1       2.977  86.650 114.926  0.00  0.00     0.028 C 
ATOM     12  C   LIG d   1       3.816  87.423 113.896  0.00  0.00     0.006 C 
ENDBRANCH   8  11
ENDBRANCH   7   8
ENDBRANCH   1   7
BRANCH   6  13
ATOM     13  N   LIG d   1      -0.887  89.497 116.963  0.00  0.00    -0.311 N 
ATOM     14  C   LIG d   1      -1.966  89.248 117.702  0.00  0.00     0.210 C 
ATOM     15  C   LIG d   1      -3.225  88.886 116.907  0.00  0.00     0.109 C 
ATOM     16  O   LIG d   1      -2.009  89.323 118.939  0.00  0.00    -0.276 OA
ATOM     17  H   LIG d   1      -0.949  89.445 115.965  0.00  0.00     0.149 HD
ENDBRANCH   6  13
BRANCH   5  18
ATOM     18  N   LIG d   1      -0.397  91.754 118.964  0.00  0.00     0.381 N 
ATOM     19  H   LIG d   1      -1.237  92.111 118.553  0.00  0.00    -0.090 HD
ATOM     20  H   LIG d   1       0.023  92.486 119.508  0.00  0.00    -0.090 HD
ATOM     21  H   LIG d   1      -0.610  90.976 119.548  0.00  0.00    -0.090 HD
ENDBRANCH   5  18
BRANCH   3  22
ATOM     22  C   LIG d   1       4.161  91.865 117.500  0.00  0.00     0.382 C 
ATOM     23  O   LIG d   1       5.220  91.298 117.864  0.00  0.00    -0.241 OA
ATOM     24  O   LIG d   1       4.195  93.059 117.148  0.00  0.00    -0.241 OA
ENDBRANCH   3  22
TORSDOF 7
ENDMDL
MODEL 5
REMARK VINA RESULT:      -4.3      2.678      4.387
REMARK  7 active torsions:
REMARK  status: ('A' for Active; 'I' for Inactive)
REMARK    1  A    between atoms: C_2  and  C_3 
REMARK    2  A    between atoms: C_3  and  O_6 
REMARK    3  A    between atoms: C_3  and  C_4 
REMARK    4  A    between atoms: C_7  and  O_6 
REMARK    5  A    between atoms: C_9  and  C_10 
REMARK    6  A    between atoms: N_15  and  C_14 
REMARK    7  A    between atoms: N_20  and  C_19 
REMARK       I    between atoms: C_22  and  N_20 
ROOT
ATOM      1  C   LIG d   1       5.003  87.671 116.296  0.00  0.00     0.161 C 
ATOM      2  C   LIG d   1       5.720  88.526 117.149  0.00  0.00     0.016 C 
ATOM      3  C   LIG d   1       6.653  89.483 116.688  0.00  0.00     0.038 C 
ATOM      4  C   LIG d   1       6.822  89.756 115.322  0.00  0.00     0.028 C 
ATOM      5  C   LIG d   1       6.491  88.569 114.422  0.00  0.00    -0.047 C 
ATOM      6  C   LIG d   1       5.092  88.030 114.797  0.00  0.00     0.091 C 
ENDROOT
BRANCH   1   7
ATOM      7  O   LIG d   1       3.626  87.606 116.714  0.00  0.00    -0.368 OA
BRANCH   7   8
ATOM      8  C   LIG d   1       2.756  88.648 116.209  0.00  0.00     0.119 C 
BRANCH   8   9
ATOM      9  C   LIG d   1       2.464  89.613 117.375  0.00  0.00     0.028 C 
ATOM     10  C   LIG d   1       2.976  91.037 117.100  0.00  0.00     0.006 C 
ENDBRANCH   8   9
BRANCH   8  11
ATOM     11  C   LIG d   1       1.392  88.085 115.798  0.00  0.00     0.028 C 
ATOM     12  C   LIG d   1       1.339  86.550 115.858  0.00  0.00     0.006 C 
ENDBRANCH   8  11
ENDBRANCH   7   8
ENDBRANCH   1   7
BRANCH   6  13
ATOM     13  N   LIG d   1       4.726  86.816 114.022  0.00  0.00    -0.311 N 
ATOM     14  C   LIG d   1       3.768  86.799 113.097  0.00  0.00     0.210 C 
ATOM     15  C   LIG d   1       3.538  85.439 112.430  0.00  0.00     0.109 C 
ATOM     16  O   LIG d   1       3.109  87.788 112.742  0.00  0.00    -0.276 OA
ATOM     17  H   LIG d   1       5.232  85.976 114.224  0.00  0.00     0.149 HD
ENDBRANCH   6  13
BRANCH   5  18
ATOM     18  N   LIG d   1       6.577  89.033 113.024  0.00  0.00     0.381 N 
ATOM     19  H   LIG d   1       5.659  89.224 112.674  0.00  0.00    -0.090 HD
ATOM     20  H   LIG d   1       6.982  88.304 112.465  0.00  0.00    -0.090 HD
ATOM     21  H   LIG d   1       7.138  89.854 112.971  0.00  0.00    -0.090 HD
ENDBRANCH   5  18
BRANCH   3  22
ATOM     22  C   LIG d   1       7.459  90.152 117.597  0.00  0.00     0.382 C 
ATOM     23  O   LIG d   1       8.305  90.985 117.191  0.00  0.00    -0.241 OA
ATOM     24  O   LIG d   1       7.381  89.901 118.814  0.00  0.00    -0.241 OA
ENDBRANCH   3  22
TORSDOF 7
ENDMDL
MODEL 6
REMARK VINA RESULT:      -4.3      7.107     10.137
REMARK  7 active torsions:
REMARK  status: ('A' for Active; 'I' for Inactive)
REMARK    1  A    between atoms: C_2  and  C_3 
REMARK    2  A    between atoms: C_3  and  O_6 
REMARK    3  A    between atoms: C_3  and  C_4 
REMARK    4  A    between atoms: C_7  and  O_6 
REMARK    5  A    between atoms: C_9  and  C_10 
REMARK    6  A    between atoms: N_15  and  C_14 
REMARK    7  A    between atoms: N_20  and  C_19 
REMARK       I    between atoms: C_22  and  N_20 
ROOT
ATOM      1  C   LIG d   1      -4.830  90.239 116.366  0.00  0.00     0.161 C 
ATOM      2  C   LIG d   1      -4.706  89.202 115.426  0.00  0.00     0.016 C 
ATOM      3  C   LIG d   1      -3.679  88.232 115.468  0.00  0.00     0.038 C 
ATOM      4  C   LIG d   1      -2.788  88.143 116.548  0.00  0.00     0.028 C 
ATOM      5  C   LIG d   1      -2.562  89.473 117.258  0.00  0.00    -0.047 C 
ATOM      6  C   LIG d   1      -3.933  90.092 117.613  0.00  0.00     0.091 C 
ENDROOT
BRANCH   1   7
ATOM      7  O   LIG d   1      -6.210  90.383 116.755  0.00  0.00    -0.368 OA
BRANCH   7   8
ATOM      8  C   LIG d   1      -7.183  89.709 115.918  0.00  0.00     0.119 C 
BRANCH   8   9
ATOM      9  C   LIG d   1      -7.824  90.773 115.006  0.00  0.00     0.028 C 
ATOM     10  C   LIG d   1      -7.321  90.682 113.556  0.00  0.00     0.006 C 
ENDBRANCH   8   9
BRANCH   8  11
ATOM     11  C   LIG d   1      -8.335  89.140 116.751  0.00  0.00     0.028 C 
ATOM     12  C   LIG d   1      -9.552  88.751 115.896  0.00  0.00     0.006 C 
ENDBRANCH   8  11
ENDBRANCH   7   8
ENDBRANCH   1   7
BRANCH   6  13
ATOM     13  N   LIG d   1      -3.805  91.435 118.236  0.00  0.00    -0.311 N 
ATOM     14  C   LIG d   1      -4.501  91.816 119.306  0.00  0.00     0.210 C 
ATOM     15  C   LIG d   1      -4.232  93.249 119.775  0.00  0.00     0.109 C 
ATOM     16  O   LIG d   1      -5.292  91.092 119.930  0.00  0.00    -0.276 OA
ATOM     17  H   LIG d   1      -3.163  92.075 117.812  0.00  0.00     0.149 HD
ENDBRANCH   6  13
BRANCH   5  18
ATOM     18  N   LIG d   1      -1.724  89.208 118.443  0.00  0.00     0.381 N 
ATOM     19  H   LIG d   1      -1.805  88.247 118.708  0.00  0.00    -0.090 HD
ATOM     20  H   LIG d   1      -2.051  89.775 119.206  0.00  0.00    -0.090 HD
ATOM     21  H   LIG d   1      -0.772  89.426 118.243  0.00  0.00    -0.090 HD
ENDBRANCH   5  18
BRANCH   3  22
ATOM     22  C   LIG d   1      -3.511  87.362 114.401  0.00  0.00     0.382 C 
ATOM     23  O   LIG d   1      -2.533  86.577 114.381  0.00  0.00    -0.241 OA
ATOM     24  O   LIG d   1      -4.300  87.384 113.438  0.00  0.00    -0.241 OA
ENDBRANCH   3  22
TORSDOF 7
ENDMDL
MODEL 7
REMARK VINA RESULT:      -4.2      2.680      4.120
REMARK  7 active torsions:
REMARK  status: ('A' for Active; 'I' for Inactive)
REMARK    1  A    between atoms: C_2  and  C_3 
REMARK    2  A    between atoms: C_3  and  O_6 
REMARK    3  A    between atoms: C_3  and  C_4 
REMARK    4  A    between atoms: C_7  and  O_6 
REMARK    5  A    between atoms: C_9  and  C_10 
REMARK    6  A    between atoms: N_15  and  C_14 
REMARK    7  A    between atoms: N_20  and  C_19 
REMARK       I    between atoms: C_22  and  N_20 
ROOT
ATOM      1  C   LIG d   1       3.419  88.406 115.681  0.00  0.00     0.161 C 
ATOM      2  C   LIG d   1       2.134  88.907 115.946  0.00  0.00     0.016 C 
ATOM      3  C   LIG d   1       1.863  89.857 116.958  0.00  0.00     0.038 C 
ATOM      4  C   LIG d   1       2.889  90.486 117.678  0.00  0.00     0.028 C 
ATOM      5  C   LIG d   1       4.155  89.643 117.792  0.00  0.00    -0.047 C 
ATOM      6  C   LIG d   1       4.566  89.164 116.381  0.00  0.00     0.091 C 
ENDROOT
BRANCH   1   7
ATOM      7  O   LIG d   1       3.642  88.364 114.257  0.00  0.00    -0.368 OA
BRANCH   7   8
ATOM      8  C   LIG d   1       3.818  87.047 113.679  0.00  0.00     0.119 C 
BRANCH   8   9
ATOM      9  C   LIG d   1       4.818  87.184 112.514  0.00  0.00     0.028 C 
ATOM     10  C   LIG d   1       5.841  88.308 112.747  0.00  0.00     0.006 C 
ENDBRANCH   8   9
BRANCH   8  11
ATOM     11  C   LIG d   1       2.521  86.540 113.042  0.00  0.00     0.028 C 
ATOM     12  C   LIG d   1       1.805  85.490 113.905  0.00  0.00     0.006 C 
ENDBRANCH   8  11
ENDBRANCH   7   8
ENDBRANCH   1   7
BRANCH   6  13
ATOM     13  N   LIG d   1       5.748  88.263 116.411  0.00  0.00    -0.311 N 
ATOM     14  C   LIG d   1       6.997  88.686 116.230  0.00  0.00     0.210 C 
ATOM     15  C   LIG d   1       8.066  87.589 116.280  0.00  0.00     0.109 C 
ATOM     16  O   LIG d   1       7.326  89.871 116.065  0.00  0.00    -0.276 OA
ATOM     17  H   LIG d   1       5.575  87.289 116.571  0.00  0.00     0.149 HD
ENDBRANCH   6  13
BRANCH   5  18
ATOM     18  N   LIG d   1       5.185  90.472 118.444  0.00  0.00     0.381 N 
ATOM     19  H   LIG d   1       5.634  89.947 119.168  0.00  0.00    -0.090 HD
ATOM     20  H   LIG d   1       4.743  91.272 118.863  0.00  0.00    -0.090 HD
ATOM     21  H   LIG d   1       5.859  90.770 117.773  0.00  0.00    -0.090 HD
ENDBRANCH   5  18
BRANCH   3  22
ATOM     22  C   LIG d   1       0.549  90.156 117.286  0.00  0.00     0.382 C 
ATOM     23  O   LIG d   1      -0.314  89.245 117.309  0.00  0.00    -0.241 OA
ATOM     24  O   LIG d   1       0.207  91.331 117.516  0.00  0.00    -0.241 OA
ENDBRANCH   3  22
TORSDOF 7
ENDMDL
MODEL 8
REMARK VINA RESULT:      -4.2      3.030      5.181
REMARK  7 active torsions:
REMARK  status: ('A' for Active; 'I' for Inactive)
REMARK    1  A    between atoms: C_2  and  C_3 
REMARK    2  A    between atoms: C_3  and  O_6 
REMARK    3  A    between atoms: C_3  and  C_4 
REMARK    4  A    between atoms: C_7  and  O_6 
REMARK    5  A    between atoms: C_9  and  C_10 
REMARK    6  A    between atoms: N_15  and  C_14 
REMARK    7  A    between atoms: N_20  and  C_19 
REMARK       I    between atoms: C_22  and  N_20 
ROOT
ATOM      1  C   LIG d   1       0.769  89.083 117.383  0.00  0.00     0.161 C 
ATOM      2  C   LIG d   1      -0.609  88.810 117.354  0.00  0.00     0.016 C 
ATOM      3  C   LIG d   1      -1.571  89.587 118.039  0.00  0.00     0.038 C 
ATOM      4  C   LIG d   1      -1.233  90.786 118.683  0.00  0.00     0.028 C 
ATOM      5  C   LIG d   1       0.213  90.829 119.164  0.00  0.00    -0.047 C 
ATOM      6  C   LIG d   1       1.144  90.452 117.989  0.00  0.00     0.091 C 
ENDROOT
BRANCH   1   7
ATOM      7  O   LIG d   1       1.321  88.953 116.059  0.00  0.00    -0.368 OA
BRANCH   7   8
ATOM      8  C   LIG d   1       2.071  87.741 115.797  0.00  0.00     0.119 C 
BRANCH   8   9
ATOM      9  C   LIG d   1       3.137  88.076 114.735  0.00  0.00     0.028 C 
ATOM     10  C   LIG d   1       4.406  88.689 115.351  0.00  0.00     0.006 C 
ENDBRANCH   8   9
BRANCH   8  11
ATOM     11  C   LIG d   1       1.187  86.665 115.159  0.00  0.00     0.028 C 
ATOM     12  C   LIG d   1       1.813  86.050 113.897  0.00  0.00     0.006 C 
ENDBRANCH   8  11
ENDBRANCH   7   8
ENDBRANCH   1   7
BRANCH   6  13
ATOM     13  N   LIG d   1       2.572  90.387 118.395  0.00  0.00    -0.311 N 
ATOM     14  C   LIG d   1       3.521  91.157 117.864  0.00  0.00     0.210 C 
ATOM     15  C   LIG d   1       4.931  90.915 118.412  0.00  0.00     0.109 C 
ATOM     16  O   LIG d   1       3.323  92.039 117.015  0.00  0.00    -0.276 OA
ATOM     17  H   LIG d   1       2.816  89.721 119.101  0.00  0.00     0.149 HD
ENDBRANCH   6  13
BRANCH   5  18
ATOM     18  N   LIG d   1       0.468  92.183 119.691  0.00  0.00     0.381 N 
ATOM     19  H   LIG d   1       1.259  92.584 119.228  0.00  0.00    -0.090 HD
ATOM     20  H   LIG d   1       0.676  92.117 120.672  0.00  0.00    -0.090 HD
ATOM     21  H   LIG d   1      -0.333  92.759 119.552  0.00  0.00    -0.090 HD
ENDBRANCH   5  18
BRANCH   3  22
ATOM     22  C   LIG d   1      -2.882  89.143 118.119  0.00  0.00     0.382 C 
ATOM     23  O   LIG d   1      -3.559  88.995 117.073  0.00  0.00    -0.241 OA
ATOM     24  O   LIG d   1      -3.411  88.931 119.227  0.00  0.00    -0.241 OA
ENDBRANCH   3  22
TORSDOF 7
ENDMDL
MODEL 9
REMARK VINA RESULT:      -4.2      2.905      4.580
REMARK  7 active torsions:
REMARK  status: ('A' for Active; 'I' for Inactive)
REMARK    1  A    between atoms: C_2  and  C_3 
REMARK    2  A    between atoms: C_3  and  O_6 
REMARK    3  A    between atoms: C_3  and  C_4 
REMARK    4  A    between atoms: C_7  and  O_6 
REMARK    5  A    between atoms: C_9  and  C_10 
REMARK    6  A    between atoms: N_15  and  C_14 
REMARK    7  A    between atoms: N_20  and  C_19 
REMARK       I    between atoms: C_22  and  N_20 
ROOT
ATOM      1  C   LIG d   1       4.926  88.101 116.674  0.00  0.00     0.161 C 
ATOM      2  C   LIG d   1       4.000  89.153 116.577  0.00  0.00     0.016 C 
ATOM      3  C   LIG d   1       4.293  90.485 116.951  0.00  0.00     0.038 C 
ATOM      4  C   LIG d   1       5.588  90.887 117.308  0.00  0.00     0.028 C 
ATOM      5  C   LIG d   1       6.429  89.762 117.903  0.00  0.00    -0.047 C 
ATOM      6  C   LIG d   1       6.378  88.542 116.956  0.00  0.00     0.091 C 
ENDROOT
BRANCH   1   7
ATOM      7  O   LIG d   1       4.871  87.290 115.484  0.00  0.00    -0.368 OA
BRANCH   7   8
ATOM      8  C   LIG d   1       4.431  87.959 114.277  0.00  0.00     0.119 C 
BRANCH   8   9
ATOM      9  C   LIG d   1       3.352  87.073 113.623  0.00  0.00     0.028 C 
ATOM     10  C   LIG d   1       3.957  85.960 112.751  0.00  0.00     0.006 C 
ENDBRANCH   8   9
BRANCH   8  11
ATOM     11  C   LIG d   1       5.560  88.050 113.246  0.00  0.00     0.028 C 
ATOM     12  C   LIG d   1       6.353  89.363 113.345  0.00  0.00     0.006 C 
ENDBRANCH   8  11
ENDBRANCH   7   8
ENDBRANCH   1   7
BRANCH   6  13
ATOM     13  N   LIG d   1       7.106  87.368 117.504  0.00  0.00    -0.311 N 
ATOM     14  C   LIG d   1       8.396  87.131 117.273  0.00  0.00     0.210 C 
ATOM     15  C   LIG d   1       8.945  85.854 117.916  0.00  0.00     0.109 C 
ATOM     16  O   LIG d   1       9.145  87.875 116.622  0.00  0.00    -0.276 OA
ATOM     17  H   LIG d   1       6.581  86.729 118.070  0.00  0.00     0.149 HD
ENDBRANCH   6  13
BRANCH   5  18
ATOM     18  N   LIG d   1       7.795  90.284 118.101  0.00  0.00     0.381 N 
ATOM     19  H   LIG d   1       7.755  91.177 118.550  0.00  0.00    -0.090 HD
ATOM     20  H   LIG d   1       8.231  90.402 117.203  0.00  0.00    -0.090 HD
ATOM     21  H   LIG d   1       8.325  89.648 118.655  0.00  0.00    -0.090 HD
ENDBRANCH   5  18
BRANCH   3  22
ATOM     22  C   LIG d   1       3.273  91.422 117.009  0.00  0.00     0.382 C 
ATOM     23  O   LIG d   1       3.548  92.646 117.051  0.00  0.00    -0.241 OA
ATOM     24  O   LIG d   1       2.083  91.059 117.063  0.00  0.00    -0.241 OA
ENDBRANCH   3  22
TORSDOF 7
ENDMDL
