MODEL 1
REMARK VINA RESULT:      -6.3      0.000      0.000
REMARK  7 active torsions:
REMARK  status: ('A' for Active; 'I' for Inactive)
REMARK    1  A    between atoms: C_2  and  C_3 
REMARK    2  A    between atoms: C_3  and  O_6 
REMARK    3  A    between atoms: C_3  and  C_4 
REMARK    4  A    between atoms: C_7  and  O_6 
REMARK    5  A    between atoms: C_9  and  C_10 
REMARK    6  A    between atoms: N_15  and  C_14 
REMARK    7  A    between atoms: N_20  and  C_19 
REMARK       I    between atoms: C_22  and  N_20 
ROOT
ATOM      1  C   LIG d   1       1.777  81.872 111.856  0.00  0.00     0.161 C 
ATOM      2  C   LIG d   1       2.759  82.274 110.935  0.00  0.00     0.016 C 
ATOM      3  C   LIG d   1       2.694  81.984 109.553  0.00  0.00     0.038 C 
ATOM      4  C   LIG d   1       1.560  81.399 108.970  0.00  0.00     0.028 C 
ATOM      5  C   LIG d   1       0.767  80.524 109.935  0.00  0.00    -0.047 C 
ATOM      6  C   LIG d   1       0.479  81.330 111.222  0.00  0.00     0.091 C 
ENDROOT
BRANCH   1   7
ATOM      7  O   LIG d   1       1.480  82.957 112.757  0.00  0.00    -0.368 OA
BRANCH   7   8
ATOM      8  C   LIG d   1       1.446  84.282 112.171  0.00  0.00     0.119 C 
BRANCH   8   9
ATOM      9  C   LIG d   1       2.335  85.194 113.038  0.00  0.00     0.028 C 
ATOM     10  C   LIG d   1       3.483  85.830 112.235  0.00  0.00     0.006 C 
ENDBRANCH   8   9
BRANCH   8  11
ATOM     11  C   LIG d   1       0.043  84.890 112.249  0.00  0.00     0.028 C 
ATOM     12  C   LIG d   1      -0.493  84.970 113.688  0.00  0.00     0.006 C 
ENDBRANCH   8  11
ENDBRANCH   7   8
ENDBRANCH   1   7
BRANCH   6  13
ATOM     13  N   LIG d   1      -0.220  80.520 112.254  0.00  0.00    -0.311 N 
ATOM     14  C   LIG d   1      -1.338  80.914 112.861  0.00  0.00     0.210 C 
ATOM     15  C   LIG d   1      -1.884  79.937 113.907  0.00  0.00     0.109 C 
ATOM     16  O   LIG d   1      -1.947  81.965 112.610  0.00  0.00    -0.276 OA
ATOM     17  H   LIG d   1       0.188  79.639 112.496  0.00  0.00     0.149 HD
ENDBRANCH   6  13
BRANCH   5  18
ATOM     18  N   LIG d   1      -0.459  80.090 109.239  0.00  0.00     0.381 N 
ATOM     19  H   LIG d   1      -1.217  80.698 109.476  0.00  0.00    -0.090 HD
ATOM     20  H   LIG d   1      -0.693  79.161 109.541  0.00  0.00    -0.090 HD
ATOM     21  H   LIG d   1      -0.312  80.099 108.253  0.00  0.00    -0.090 HD
ENDBRANCH   5  18
BRANCH   3  22
ATOM     22  C   LIG d   1       3.790  82.245 108.744  0.00  0.00     0.382 C 
ATOM     23  O   LIG d   1       3.643  82.341 107.501  0.00  0.00    -0.241 OA
ATOM     24  O   LIG d   1       4.930  82.340 109.236  0.00  0.00    -0.241 OA
ENDBRANCH   3  22
TORSDOF 7
ENDMDL
MODEL 2
REMARK VINA RESULT:      -6.1      8.883     11.378
REMARK  7 active torsions:
REMARK  status: ('A' for Active; 'I' for Inactive)
REMARK    1  A    between atoms: C_2  and  C_3 
REMARK    2  A    between atoms: C_3  and  O_6 
REMARK    3  A    between atoms: C_3  and  C_4 
REMARK    4  A    between atoms: C_7  and  O_6 
REMARK    5  A    between atoms: C_9  and  C_10 
REMARK    6  A    between atoms: N_15  and  C_14 
REMARK    7  A    between atoms: N_20  and  C_19 
REMARK       I    between atoms: C_22  and  N_20 
ROOT
ATOM      1  C   LIG d   1      -6.334  77.203 115.774  0.00  0.00     0.161 C 
ATOM      2  C   LIG d   1      -5.407  76.273 115.275  0.00  0.00     0.016 C 
ATOM      3  C   LIG d   1      -4.011  76.384 115.469  0.00  0.00     0.038 C 
ATOM      4  C   LIG d   1      -3.455  77.359 116.310  0.00  0.00     0.028 C 
ATOM      5  C   LIG d   1      -4.308  78.618 116.425  0.00  0.00    -0.047 C 
ATOM      6  C   LIG d   1      -5.755  78.212 116.788  0.00  0.00     0.091 C 
ENDROOT
BRANCH   1   7
ATOM      7  O   LIG d   1      -7.462  76.510 116.345  0.00  0.00    -0.368 OA
BRANCH   7   8
ATOM      8  C   LIG d   1      -7.984  75.400 115.574  0.00  0.00     0.119 C 
BRANCH   8   9
ATOM      9  C   LIG d   1      -9.506  75.602 115.444  0.00  0.00     0.028 C 
ATOM     10  C   LIG d   1     -10.048  76.640 116.441  0.00  0.00     0.006 C 
ENDBRANCH   8   9
BRANCH   8  11
ATOM     11  C   LIG d   1      -7.814  74.074 116.322  0.00  0.00     0.028 C 
ATOM     12  C   LIG d   1      -9.047  73.164 116.211  0.00  0.00     0.006 C 
ENDBRANCH   8  11
ENDBRANCH   7   8
ENDBRANCH   1   7
BRANCH   6  13
ATOM     13  N   LIG d   1      -6.675  79.378 116.838  0.00  0.00    -0.311 N 
ATOM     14  C   LIG d   1      -7.423  79.677 117.898  0.00  0.00     0.210 C 
ATOM     15  C   LIG d   1      -8.317  80.909 117.732  0.00  0.00     0.109 C 
ATOM     16  O   LIG d   1      -7.407  79.057 118.972  0.00  0.00    -0.276 OA
ATOM     17  H   LIG d   1      -6.727  79.953 116.020  0.00  0.00     0.149 HD
ENDBRANCH   6  13
BRANCH   5  18
ATOM     18  N   LIG d   1      -3.682  79.490 117.437  0.00  0.00     0.381 N 
ATOM     19  H   LIG d   1      -2.820  79.855 117.082  0.00  0.00    -0.090 HD
ATOM     20  H   LIG d   1      -3.479  78.944 118.256  0.00  0.00    -0.090 HD
ATOM     21  H   LIG d   1      -4.297  80.238 117.670  0.00  0.00    -0.090 HD
ENDBRANCH   5  18
BRANCH   3  22
ATOM     22  C   LIG d   1      -3.152  75.537 114.785  0.00  0.00     0.382 C 
ATOM     23  O   LIG d   1      -1.911  75.692 114.880  0.00  0.00    -0.241 OA
ATOM     24  O   LIG d   1      -3.603  74.647 114.039  0.00  0.00    -0.241 OA
ENDBRANCH   3  22
TORSDOF 7
ENDMDL
MODEL 3
REMARK VINA RESULT:      -5.8      2.258      5.629
REMARK  7 active torsions:
REMARK  status: ('A' for Active; 'I' for Inactive)
REMARK    1  A    between atoms: C_2  and  C_3 
REMARK    2  A    between atoms: C_3  and  O_6 
REMARK    3  A    between atoms: C_3  and  C_4 
REMARK    4  A    between atoms: C_7  and  O_6 
REMARK    5  A    between atoms: C_9  and  C_10 
REMARK    6  A    between atoms: N_15  and  C_14 
REMARK    7  A    between atoms: N_20  and  C_19 
REMARK       I    between atoms: C_22  and  N_20 
ROOT
ATOM      1  C   LIG d   1       1.543  82.180 111.308  0.00  0.00     0.161 C 
ATOM      2  C   LIG d   1       0.574  81.284 111.789  0.00  0.00     0.016 C 
ATOM      3  C   LIG d   1      -0.702  81.687 112.243  0.00  0.00     0.038 C 
ATOM      4  C   LIG d   1      -1.155  83.008 112.105  0.00  0.00     0.028 C 
ATOM      5  C   LIG d   1      -0.029  84.036 112.092  0.00  0.00    -0.047 C 
ATOM      6  C   LIG d   1       1.027  83.611 111.046  0.00  0.00     0.091 C 
ENDROOT
BRANCH   1   7
ATOM      7  O   LIG d   1       2.158  81.644 110.120  0.00  0.00    -0.368 OA
BRANCH   7   8
ATOM      8  C   LIG d   1       3.481  81.078 110.288  0.00  0.00     0.119 C 
BRANCH   8   9
ATOM      9  C   LIG d   1       4.480  82.019 109.587  0.00  0.00     0.028 C 
ATOM     10  C   LIG d   1       4.157  82.215 108.097  0.00  0.00     0.006 C 
ENDBRANCH   8   9
BRANCH   8  11
ATOM     11  C   LIG d   1       3.610  79.737 109.559  0.00  0.00     0.028 C 
ATOM     12  C   LIG d   1       2.252  79.059 109.315  0.00  0.00     0.006 C 
ENDBRANCH   8  11
ENDBRANCH   7   8
ENDBRANCH   1   7
BRANCH   6  13
ATOM     13  N   LIG d   1       2.205  84.517 111.028  0.00  0.00    -0.311 N 
ATOM     14  C   LIG d   1       2.928  84.801 112.110  0.00  0.00     0.210 C 
ATOM     15  C   LIG d   1       4.087  85.774 111.876  0.00  0.00     0.109 C 
ATOM     16  O   LIG d   1       2.739  84.314 113.235  0.00  0.00    -0.276 OA
ATOM     17  H   LIG d   1       2.448  84.932 110.150  0.00  0.00     0.149 HD
ENDBRANCH   6  13
BRANCH   5  18
ATOM     18  N   LIG d   1      -0.630  85.352 111.804  0.00  0.00     0.381 N 
ATOM     19  H   LIG d   1      -0.119  86.069 112.278  0.00  0.00    -0.090 HD
ATOM     20  H   LIG d   1      -1.575  85.360 112.146  0.00  0.00    -0.090 HD
ATOM     21  H   LIG d   1      -0.623  85.523 110.822  0.00  0.00    -0.090 HD
ENDBRANCH   5  18
BRANCH   3  22
ATOM     22  C   LIG d   1      -1.526  80.772 112.880  0.00  0.00     0.382 C 
ATOM     23  O   LIG d   1      -2.769  80.823 112.711  0.00  0.00    -0.241 OA
ATOM     24  O   LIG d   1      -1.047  79.924 113.656  0.00  0.00    -0.241 OA
ENDBRANCH   3  22
TORSDOF 7
ENDMDL
MODEL 4
REMARK VINA RESULT:      -5.8      0.986      1.782
REMARK  7 active torsions:
REMARK  status: ('A' for Active; 'I' for Inactive)
REMARK    1  A    between atoms: C_2  and  C_3 
REMARK    2  A    between atoms: C_3  and  O_6 
REMARK    3  A    between atoms: C_3  and  C_4 
REMARK    4  A    between atoms: C_7  and  O_6 
REMARK    5  A    between atoms: C_9  and  C_10 
REMARK    6  A    between atoms: N_15  and  C_14 
REMARK    7  A    between atoms: N_20  and  C_19 
REMARK       I    between atoms: C_22  and  N_20 
ROOT
ATOM      1  C   LIG d   1       1.786  82.205 111.801  0.00  0.00     0.161 C 
ATOM      2  C   LIG d   1       2.540  82.410 110.634  0.00  0.00     0.016 C 
ATOM      3  C   LIG d   1       2.243  81.792 109.397  0.00  0.00     0.038 C 
ATOM      4  C   LIG d   1       1.075  81.040 109.206  0.00  0.00     0.028 C 
ATOM      5  C   LIG d   1       0.554  80.394 110.485  0.00  0.00    -0.047 C 
ATOM      6  C   LIG d   1       0.444  81.476 111.584  0.00  0.00     0.091 C 
ENDROOT
BRANCH   1   7
ATOM      7  O   LIG d   1       1.570  83.463 112.470  0.00  0.00    -0.368 OA
BRANCH   7   8
ATOM      8  C   LIG d   1       2.352  83.690 113.669  0.00  0.00     0.119 C 
BRANCH   8   9
ATOM      9  C   LIG d   1       1.386  84.182 114.765  0.00  0.00     0.028 C 
ATOM     10  C   LIG d   1      -0.044  84.388 114.238  0.00  0.00     0.006 C 
ENDBRANCH   8   9
BRANCH   8  11
ATOM     11  C   LIG d   1       3.357  84.828 113.473  0.00  0.00     0.028 C 
ATOM     12  C   LIG d   1       3.001  85.739 112.287  0.00  0.00     0.006 C 
ENDBRANCH   8  11
ENDBRANCH   7   8
ENDBRANCH   1   7
BRANCH   6  13
ATOM     13  N   LIG d   1       0.021  80.913 112.893  0.00  0.00    -0.311 N 
ATOM     14  C   LIG d   1      -1.234  80.953 113.338  0.00  0.00     0.210 C 
ATOM     15  C   LIG d   1      -1.449  80.333 114.722  0.00  0.00     0.109 C 
ATOM     16  O   LIG d   1      -2.194  81.415 112.704  0.00  0.00    -0.276 OA
ATOM     17  H   LIG d   1       0.732  80.491 113.459  0.00  0.00     0.149 HD
ENDBRANCH   6  13
BRANCH   5  18
ATOM     18  N   LIG d   1      -0.739  79.758 110.169  0.00  0.00     0.381 N 
ATOM     19  H   LIG d   1      -1.369  80.439 109.794  0.00  0.00    -0.090 HD
ATOM     20  H   LIG d   1      -1.137  79.393 111.016  0.00  0.00    -0.090 HD
ATOM     21  H   LIG d   1      -0.605  79.021 109.512  0.00  0.00    -0.090 HD
ENDBRANCH   5  18
BRANCH   3  22
ATOM     22  C   LIG d   1       3.142  81.892 108.346  0.00  0.00     0.382 C 
ATOM     23  O   LIG d   1       2.930  82.706 107.415  0.00  0.00    -0.241 OA
ATOM     24  O   LIG d   1       4.139  81.147 108.294  0.00  0.00    -0.241 OA
ENDBRANCH   3  22
TORSDOF 7
ENDMDL
MODEL 5
REMARK VINA RESULT:      -5.8      2.026      4.913
REMARK  7 active torsions:
REMARK  status: ('A' for Active; 'I' for Inactive)
REMARK    1  A    between atoms: C_2  and  C_3 
REMARK    2  A    between atoms: C_3  and  O_6 
REMARK    3  A    between atoms: C_3  and  C_4 
REMARK    4  A    between atoms: C_7  and  O_6 
REMARK    5  A    between atoms: C_9  and  C_10 
REMARK    6  A    between atoms: N_15  and  C_14 
REMARK    7  A    between atoms: N_20  and  C_19 
REMARK       I    between atoms: C_22  and  N_20 
ROOT
ATOM      1  C   LIG d   1       0.544  83.529 111.495  0.00  0.00     0.161 C 
ATOM      2  C   LIG d   1       0.393  84.117 112.762  0.00  0.00     0.016 C 
ATOM      3  C   LIG d   1      -0.076  83.412 113.895  0.00  0.00     0.038 C 
ATOM      4  C   LIG d   1      -0.282  82.025 113.873  0.00  0.00     0.028 C 
ATOM      5  C   LIG d   1      -0.625  81.486 112.488  0.00  0.00    -0.047 C 
ATOM      6  C   LIG d   1       0.430  81.991 111.478  0.00  0.00     0.091 C 
ENDROOT
BRANCH   1   7
ATOM      7  O   LIG d   1       1.794  83.946 110.910  0.00  0.00    -0.368 OA
BRANCH   7   8
ATOM      8  C   LIG d   1       2.971  83.213 111.333  0.00  0.00     0.119 C 
BRANCH   8   9
ATOM      9  C   LIG d   1       3.837  84.173 112.171  0.00  0.00     0.028 C 
ATOM     10  C   LIG d   1       3.527  85.651 111.879  0.00  0.00     0.006 C 
ENDBRANCH   8   9
BRANCH   8  11
ATOM     11  C   LIG d   1       3.843  82.821 110.136  0.00  0.00     0.028 C 
ATOM     12  C   LIG d   1       3.130  83.020 108.789  0.00  0.00     0.006 C 
ENDBRANCH   8  11
ENDBRANCH   7   8
ENDBRANCH   1   7
BRANCH   6  13
ATOM     13  N   LIG d   1       0.122  81.579 110.083  0.00  0.00    -0.311 N 
ATOM     14  C   LIG d   1       0.680  80.524 109.490  0.00  0.00     0.210 C 
ATOM     15  C   LIG d   1       0.238  80.288 108.043  0.00  0.00     0.109 C 
ATOM     16  O   LIG d   1       1.474  79.744 110.036  0.00  0.00    -0.276 OA
ATOM     17  H   LIG d   1      -0.536  82.138 109.577  0.00  0.00     0.149 HD
ENDBRANCH   6  13
BRANCH   5  18
ATOM     18  N   LIG d   1      -0.678  80.015 112.583  0.00  0.00     0.381 N 
ATOM     19  H   LIG d   1      -1.595  79.693 112.344  0.00  0.00    -0.090 HD
ATOM     20  H   LIG d   1      -0.485  79.743 113.531  0.00  0.00    -0.090 HD
ATOM     21  H   LIG d   1      -0.006  79.609 111.970  0.00  0.00    -0.090 HD
ENDBRANCH   5  18
BRANCH   3  22
ATOM     22  C   LIG d   1      -0.380  84.105 115.057  0.00  0.00     0.382 C 
ATOM     23  O   LIG d   1      -0.184  83.570 116.175  0.00  0.00    -0.241 OA
ATOM     24  O   LIG d   1      -0.891  85.240 115.001  0.00  0.00    -0.241 OA
ENDBRANCH   3  22
TORSDOF 7
ENDMDL
MODEL 6
REMARK VINA RESULT:      -5.7      2.418      4.451
REMARK  7 active torsions:
REMARK  status: ('A' for Active; 'I' for Inactive)
REMARK    1  A    between atoms: C_2  and  C_3 
REMARK    2  A    between atoms: C_3  and  O_6 
REMARK    3  A    between atoms: C_3  and  C_4 
REMARK    4  A    between atoms: C_7  and  O_6 
REMARK    5  A    between atoms: C_9  and  C_10 
REMARK    6  A    between atoms: N_15  and  C_14 
REMARK    7  A    between atoms: N_20  and  C_19 
REMARK       I    between atoms: C_22  and  N_20 
ROOT
ATOM      1  C   LIG d   1       2.266  82.261 112.433  0.00  0.00     0.161 C 
ATOM      2  C   LIG d   1       2.559  83.515 112.993  0.00  0.00     0.016 C 
ATOM      3  C   LIG d   1       3.256  84.533 112.301  0.00  0.00     0.038 C 
ATOM      4  C   LIG d   1       3.576  84.419 110.940  0.00  0.00     0.028 C 
ATOM      5  C   LIG d   1       3.747  82.976 110.477  0.00  0.00    -0.047 C 
ATOM      6  C   LIG d   1       2.509  82.159 110.912  0.00  0.00     0.091 C 
ENDROOT
BRANCH   1   7
ATOM      7  O   LIG d   1       0.909  81.890 112.749  0.00  0.00    -0.368 OA
BRANCH   7   8
ATOM      8  C   LIG d   1      -0.020  82.983 112.950  0.00  0.00     0.119 C 
BRANCH   8   9
ATOM      9  C   LIG d   1      -1.058  82.523 113.992  0.00  0.00     0.028 C 
ATOM     10  C   LIG d   1      -2.026  81.468 113.431  0.00  0.00     0.006 C 
ENDBRANCH   8   9
BRANCH   8  11
ATOM     11  C   LIG d   1      -0.824  83.272 111.678  0.00  0.00     0.028 C 
ATOM     12  C   LIG d   1      -0.369  84.555 110.964  0.00  0.00     0.006 C 
ENDBRANCH   8  11
ENDBRANCH   7   8
ENDBRANCH   1   7
BRANCH   6  13
ATOM     13  N   LIG d   1       2.633  80.717 110.572  0.00  0.00    -0.311 N 
ATOM     14  C   LIG d   1       2.170  80.189 109.441  0.00  0.00     0.210 C 
ATOM     15  C   LIG d   1       2.384  78.679 109.298  0.00  0.00     0.109 C 
ATOM     16  O   LIG d   1       1.631  80.832 108.528  0.00  0.00    -0.276 OA
ATOM     17  H   LIG d   1       3.085  80.128 111.243  0.00  0.00     0.149 HD
ENDBRANCH   6  13
BRANCH   5  18
ATOM     18  N   LIG d   1       3.941  82.997 109.015  0.00  0.00     0.381 N 
ATOM     19  H   LIG d   1       4.919  83.012 108.803  0.00  0.00    -0.090 HD
ATOM     20  H   LIG d   1       3.525  83.833 108.644  0.00  0.00    -0.090 HD
ATOM     21  H   LIG d   1       3.517  82.195 108.603  0.00  0.00    -0.090 HD
ENDBRANCH   5  18
BRANCH   3  22
ATOM     22  C   LIG d   1       3.675  85.665 112.984  0.00  0.00     0.382 C 
ATOM     23  O   LIG d   1       3.577  85.715 114.233  0.00  0.00    -0.241 OA
ATOM     24  O   LIG d   1       4.109  86.653 112.362  0.00  0.00    -0.241 OA
ENDBRANCH   3  22
TORSDOF 7
ENDMDL
MODEL 7
REMARK VINA RESULT:      -5.6      2.197      5.690
REMARK  7 active torsions:
REMARK  status: ('A' for Active; 'I' for Inactive)
REMARK    1  A    between atoms: C_2  and  C_3 
REMARK    2  A    between atoms: C_3  and  O_6 
REMARK    3  A    between atoms: C_3  and  C_4 
REMARK    4  A    between atoms: C_7  and  O_6 
REMARK    5  A    between atoms: C_9  and  C_10 
REMARK    6  A    between atoms: N_15  and  C_14 
REMARK    7  A    between atoms: N_20  and  C_19 
REMARK       I    between atoms: C_22  and  N_20 
ROOT
ATOM      1  C   LIG d   1       1.694  82.277 111.563  0.00  0.00     0.161 C 
ATOM      2  C   LIG d   1       0.728  81.377 112.042  0.00  0.00     0.016 C 
ATOM      3  C   LIG d   1      -0.582  81.763 112.407  0.00  0.00     0.038 C 
ATOM      4  C   LIG d   1      -1.065  83.059 112.174  0.00  0.00     0.028 C 
ATOM      5  C   LIG d   1       0.030  84.121 112.163  0.00  0.00    -0.047 C 
ATOM      6  C   LIG d   1       1.151  83.674 111.197  0.00  0.00     0.091 C 
ENDROOT
BRANCH   1   7
ATOM      7  O   LIG d   1       2.386  81.698 110.439  0.00  0.00    -0.368 OA
BRANCH   7   8
ATOM      8  C   LIG d   1       1.805  81.946 109.136  0.00  0.00     0.119 C 
BRANCH   8   9
ATOM      9  C   LIG d   1       1.339  80.590 108.571  0.00  0.00     0.028 C 
ATOM     10  C   LIG d   1       2.068  79.402 109.220  0.00  0.00     0.006 C 
ENDBRANCH   8   9
BRANCH   8  11
ATOM     11  C   LIG d   1       2.854  82.459 108.145  0.00  0.00     0.028 C 
ATOM     12  C   LIG d   1       4.254  82.576 108.768  0.00  0.00     0.006 C 
ENDBRANCH   8  11
ENDBRANCH   7   8
ENDBRANCH   1   7
BRANCH   6  13
ATOM     13  N   LIG d   1       2.301  84.616 111.190  0.00  0.00    -0.311 N 
ATOM     14  C   LIG d   1       2.950  84.989 112.291  0.00  0.00     0.210 C 
ATOM     15  C   LIG d   1       4.093  85.983 112.063  0.00  0.00     0.109 C 
ATOM     16  O   LIG d   1       2.709  84.566 113.432  0.00  0.00    -0.276 OA
ATOM     17  H   LIG d   1       2.584  84.983 110.302  0.00  0.00     0.149 HD
ENDBRANCH   6  13
BRANCH   5  18
ATOM     18  N   LIG d   1      -0.594  85.399 111.773  0.00  0.00     0.381 N 
ATOM     19  H   LIG d   1      -0.099  86.160 112.194  0.00  0.00    -0.090 HD
ATOM     20  H   LIG d   1      -1.541  85.415 112.109  0.00  0.00    -0.090 HD
ATOM     21  H   LIG d   1      -0.583  85.496 110.781  0.00  0.00    -0.090 HD
ENDBRANCH   5  18
BRANCH   3  22
ATOM     22  C   LIG d   1      -1.412  80.857 113.051  0.00  0.00     0.382 C 
ATOM     23  O   LIG d   1      -2.608  80.737 112.691  0.00  0.00    -0.241 OA
ATOM     24  O   LIG d   1      -0.991  80.189 114.015  0.00  0.00    -0.241 OA
ENDBRANCH   3  22
TORSDOF 7
ENDMDL
MODEL 8
REMARK VINA RESULT:      -5.6      1.580      4.695
REMARK  7 active torsions:
REMARK  status: ('A' for Active; 'I' for Inactive)
REMARK    1  A    between atoms: C_2  and  C_3 
REMARK    2  A    between atoms: C_3  and  O_6 
REMARK    3  A    between atoms: C_3  and  C_4 
REMARK    4  A    between atoms: C_7  and  O_6 
REMARK    5  A    between atoms: C_9  and  C_10 
REMARK    6  A    between atoms: N_15  and  C_14 
REMARK    7  A    between atoms: N_20  and  C_19 
REMARK       I    between atoms: C_22  and  N_20 
ROOT
ATOM      1  C   LIG d   1       1.003  82.580 111.686  0.00  0.00     0.161 C 
ATOM      2  C   LIG d   1      -0.142  82.294 112.448  0.00  0.00     0.016 C 
ATOM      3  C   LIG d   1      -0.894  81.106 112.306  0.00  0.00     0.038 C 
ATOM      4  C   LIG d   1      -0.462  80.048 111.493  0.00  0.00     0.028 C 
ATOM      5  C   LIG d   1       0.414  80.497 110.328  0.00  0.00    -0.047 C 
ATOM      6  C   LIG d   1       1.553  81.390 110.873  0.00  0.00     0.091 C 
ENDROOT
BRANCH   1   7
ATOM      7  O   LIG d   1       2.032  83.124 112.536  0.00  0.00    -0.368 OA
BRANCH   7   8
ATOM      8  C   LIG d   1       2.191  84.564 112.503  0.00  0.00     0.119 C 
BRANCH   8   9
ATOM      9  C   LIG d   1       3.650  84.860 112.107  0.00  0.00     0.028 C 
ATOM     10  C   LIG d   1       4.022  86.340 112.298  0.00  0.00     0.006 C 
ENDBRANCH   8   9
BRANCH   8  11
ATOM     11  C   LIG d   1       2.017  85.176 113.896  0.00  0.00     0.028 C 
ATOM     12  C   LIG d   1       0.560  85.555 114.203  0.00  0.00     0.006 C 
ENDBRANCH   8  11
ENDBRANCH   7   8
ENDBRANCH   1   7
BRANCH   6  13
ATOM     13  N   LIG d   1       2.408  81.942 109.789  0.00  0.00    -0.311 N 
ATOM     14  C   LIG d   1       3.525  81.354 109.366  0.00  0.00     0.210 C 
ATOM     15  C   LIG d   1       4.267  82.101 108.253  0.00  0.00     0.109 C 
ATOM     16  O   LIG d   1       3.956  80.269 109.785  0.00  0.00    -0.276 OA
ATOM     17  H   LIG d   1       2.115  82.804 109.372  0.00  0.00     0.149 HD
ENDBRANCH   6  13
BRANCH   5  18
ATOM     18  N   LIG d   1       0.905  79.285 109.646  0.00  0.00     0.381 N 
ATOM     19  H   LIG d   1       0.889  78.510 110.278  0.00  0.00    -0.090 HD
ATOM     20  H   LIG d   1       1.856  79.437 109.358  0.00  0.00    -0.090 HD
ATOM     21  H   LIG d   1       0.337  79.088 108.851  0.00  0.00    -0.090 HD
ENDBRANCH   5  18
BRANCH   3  22
ATOM     22  C   LIG d   1      -2.114  80.983 112.953  0.00  0.00     0.382 C 
ATOM     23  O   LIG d   1      -2.725  82.009 113.338  0.00  0.00    -0.241 OA
ATOM     24  O   LIG d   1      -2.590  79.858 113.197  0.00  0.00    -0.241 OA
ENDBRANCH   3  22
TORSDOF 7
ENDMDL
MODEL 9
REMARK VINA RESULT:      -5.5      2.500      4.175
REMARK  7 active torsions:
REMARK  status: ('A' for Active; 'I' for Inactive)
REMARK    1  A    between atoms: C_2  and  C_3 
REMARK    2  A    between atoms: C_3  and  O_6 
REMARK    3  A    between atoms: C_3  and  C_4 
REMARK    4  A    between atoms: C_7  and  O_6 
REMARK    5  A    between atoms: C_9  and  C_10 
REMARK    6  A    between atoms: N_15  and  C_14 
REMARK    7  A    between atoms: N_20  and  C_19 
REMARK       I    between atoms: C_22  and  N_20 
ROOT
ATOM      1  C   LIG d   1       1.299  82.791 110.710  0.00  0.00     0.161 C 
ATOM      2  C   LIG d   1       0.840  81.701 109.951  0.00  0.00     0.016 C 
ATOM      3  C   LIG d   1       1.655  80.989 109.041  0.00  0.00     0.038 C 
ATOM      4  C   LIG d   1       3.034  81.226 108.938  0.00  0.00     0.028 C 
ATOM      5  C   LIG d   1       3.434  82.649 109.314  0.00  0.00    -0.047 C 
ATOM      6  C   LIG d   1       2.828  82.992 110.694  0.00  0.00     0.091 C 
ENDROOT
BRANCH   1   7
ATOM      7  O   LIG d   1       0.823  82.677 112.066  0.00  0.00    -0.368 OA
BRANCH   7   8
ATOM      8  C   LIG d   1      -0.448  83.312 112.351  0.00  0.00     0.119 C 
BRANCH   8   9
ATOM      9  C   LIG d   1      -0.174  84.482 113.316  0.00  0.00     0.028 C 
ATOM     10  C   LIG d   1      -0.174  85.844 112.601  0.00  0.00     0.006 C 
ENDBRANCH   8   9
BRANCH   8  11
ATOM     11  C   LIG d   1      -1.384  82.368 113.112  0.00  0.00     0.028 C 
ATOM     12  C   LIG d   1      -0.812  80.949 113.256  0.00  0.00     0.006 C 
ENDBRANCH   8  11
ENDBRANCH   7   8
ENDBRANCH   1   7
BRANCH   6  13
ATOM     13  N   LIG d   1       3.101  84.396 111.099  0.00  0.00    -0.311 N 
ATOM     14  C   LIG d   1       3.481  84.744 112.327  0.00  0.00     0.210 C 
ATOM     15  C   LIG d   1       3.691  86.247 112.538  0.00  0.00     0.109 C 
ATOM     16  O   LIG d   1       3.696  83.947 113.253  0.00  0.00    -0.276 OA
ATOM     17  H   LIG d   1       2.982  85.103 110.401  0.00  0.00     0.149 HD
ENDBRANCH   6  13
BRANCH   5  18
ATOM     18  N   LIG d   1       4.907  82.717 109.296  0.00  0.00     0.381 N 
ATOM     19  H   LIG d   1       5.251  82.858 110.224  0.00  0.00    -0.090 HD
ATOM     20  H   LIG d   1       5.190  83.499 108.732  0.00  0.00    -0.090 HD
ATOM     21  H   LIG d   1       5.283  81.874 108.919  0.00  0.00    -0.090 HD
ENDBRANCH   5  18
BRANCH   3  22
ATOM     22  C   LIG d   1       1.082  80.055 108.191  0.00  0.00     0.382 C 
ATOM     23  O   LIG d   1      -0.126  80.159 107.869  0.00  0.00    -0.241 OA
ATOM     24  O   LIG d   1       1.746  79.085 107.778  0.00  0.00    -0.241 OA
ENDBRANCH   3  22
TORSDOF 7
ENDMDL
