MODEL 1
REMARK VINA RESULT:      -6.3      0.000      0.000
REMARK  7 active torsions:
REMARK  status: ('A' for Active; 'I' for Inactive)
REMARK    1  A    between atoms: C8_3  and  C81_2 
REMARK    2  A    between atoms: C8_3  and  C9_4 
REMARK    3  A    between atoms: C8_3  and  O7_6 
REMARK    4  A    between atoms: C6_7  and  O7_6 
REMARK    5  A    between atoms: C2_9  and  C1_10 
REMARK    6  A    between atoms: C4_14  and  N4_15 
REMARK    7  A    between atoms: C5_19  and  N5_20 
REMARK       I    between atoms: C10_22  and  N5_20 
ROOT
ATOM      1  C6  G39 d           1.825  81.926 111.812  0.00  0.00     0.160 C 
ATOM      2  C7  G39 d           2.778  82.268 110.838  0.00  0.00     0.011 C 
ATOM      3  C2  G39 d           2.663  81.907 109.476  0.00  0.00     0.060 C 
ATOM      4  C3  G39 d           1.504  81.304 108.964  0.00  0.00     0.011 C 
ATOM      5  C4  G39 d           0.738  80.489 110.001  0.00  0.00     0.223 C 
ATOM      6  C5  G39 d           0.501  81.365 111.253  0.00  0.00     0.144 C 
ENDROOT
BRANCH   1   7
ATOM      7  O7  G39 d           1.569  83.060 112.664  0.00  0.00    -0.353 OA
BRANCH   7   8
ATOM      8  C8  G39 d           1.527  84.352 112.008  0.00  0.00     0.116 C 
BRANCH   8   9
ATOM      9  C81 G39 d           2.348  85.333 112.868  0.00  0.00     0.030 C 
ATOM     10  C82 G39 d           3.596  85.853 112.134  0.00  0.00     0.003 C 
ENDBRANCH   8   9
BRANCH   8  11
ATOM     11  C9  G39 d           0.105  84.922 111.990  0.00  0.00     0.030 C 
ATOM     12  C91 G39 d          -0.414  85.275 113.392  0.00  0.00     0.003 C 
ENDBRANCH   8  11
ENDBRANCH   7   8
ENDBRANCH   1   7
BRANCH   6  13
ATOM     13  N5  G39 d          -0.169  80.618 112.349  0.00  0.00    -0.342 N 
ATOM     14  H52 G39 d           0.246  79.752 112.631  0.00  0.00     0.163 HD
ATOM     15  C10 G39 d          -1.269  81.049 112.965  0.00  0.00     0.231 C 
ATOM     16  O10 G39 d          -1.884  82.085 112.670  0.00  0.00    -0.273 OA
ATOM     17  C11 G39 d          -1.785  80.136 114.081  0.00  0.00     0.097 C 
ENDBRANCH   6  13
BRANCH   3  18
ATOM     18  C1  G39 d           3.732  82.113 108.617  0.00  0.00     0.210 C 
ATOM     19  O1B G39 d           3.963  81.293 107.697  0.00  0.00    -0.644 OA
ATOM     20  O1A G39 d           4.495  83.084 108.780  0.00  0.00    -0.644 OA
ENDBRANCH   3  18
BRANCH   5  21
ATOM     21  N4  G39 d          -0.516  80.033 109.371  0.00  0.00    -0.060 N 
ATOM     22  H43 G39 d          -0.390  79.954 108.382  0.00  0.00     0.275 HD
ATOM     23  H44 G39 d          -1.234  80.715 109.544  0.00  0.00     0.275 HD
ATOM     24  H42 G39 d          -0.787  79.152 109.751  0.00  0.00     0.275 HD
ENDBRANCH   5  21
TORSDOF 7
ENDMDL
MODEL 2
REMARK VINA RESULT:      -6.1      8.958     11.466
REMARK  7 active torsions:
REMARK  status: ('A' for Active; 'I' for Inactive)
REMARK    1  A    between atoms: C8_3  and  C81_2 
REMARK    2  A    between atoms: C8_3  and  C9_4 
REMARK    3  A    between atoms: C8_3  and  O7_6 
REMARK    4  A    between atoms: C6_7  and  O7_6 
REMARK    5  A    between atoms: C2_9  and  C1_10 
REMARK    6  A    between atoms: C4_14  and  N4_15 
REMARK    7  A    between atoms: C5_19  and  N5_20 
REMARK       I    between atoms: C10_22  and  N5_20 
ROOT
ATOM      1  C6  G39 d          -6.373  77.152 115.771  0.00  0.00     0.160 C 
ATOM      2  C7  G39 d          -5.447  76.223 115.267  0.00  0.00     0.011 C 
ATOM      3  C2  G39 d          -4.050  76.339 115.449  0.00  0.00     0.060 C 
ATOM      4  C3  G39 d          -3.490  77.318 116.284  0.00  0.00     0.011 C 
ATOM      5  C4  G39 d          -4.347  78.575 116.401  0.00  0.00     0.223 C 
ATOM      6  C5  G39 d          -5.790  78.166 116.777  0.00  0.00     0.144 C 
ENDROOT
BRANCH   1   7
ATOM      7  O7  G39 d          -7.494  76.457 116.352  0.00  0.00    -0.353 OA
BRANCH   7   8
ATOM      8  C8  G39 d          -8.034  75.359 115.577  0.00  0.00     0.116 C 
BRANCH   8   9
ATOM      9  C81 G39 d          -9.562  75.550 115.507  0.00  0.00     0.030 C 
ATOM     10  C82 G39 d         -10.061  76.644 116.466  0.00  0.00     0.003 C 
ENDBRANCH   8   9
BRANCH   8  11
ATOM     11  C9  G39 d          -7.825  74.018 116.289  0.00  0.00     0.030 C 
ATOM     12  C91 G39 d          -9.076  73.127 116.258  0.00  0.00     0.003 C 
ENDBRANCH   8  11
ENDBRANCH   7   8
ENDBRANCH   1   7
BRANCH   6  13
ATOM     13  N5  G39 d          -6.713  79.329 116.830  0.00  0.00    -0.342 N 
ATOM     14  H52 G39 d          -6.805  79.876 115.997  0.00  0.00     0.163 HD
ATOM     15  C10 G39 d          -7.415  79.659 117.913  0.00  0.00     0.231 C 
ATOM     16  O10 G39 d          -7.347  79.075 119.005  0.00  0.00    -0.273 OA
ATOM     17  C11 G39 d          -8.322  80.882 117.746  0.00  0.00     0.097 C 
ENDBRANCH   6  13
BRANCH   3  18
ATOM     18  C1  G39 d          -3.194  75.493 114.761  0.00  0.00     0.210 C 
ATOM     19  O1B G39 d          -1.953  75.660 114.838  0.00  0.00    -0.644 OA
ATOM     20  O1A G39 d          -3.648  74.593 114.030  0.00  0.00    -0.644 OA
ENDBRANCH   3  18
BRANCH   5  21
ATOM     21  N4  G39 d          -3.716  79.452 117.405  0.00  0.00    -0.060 N 
ATOM     22  H43 G39 d          -3.363  78.903 118.163  0.00  0.00     0.275 HD
ATOM     23  H44 G39 d          -4.410  80.082 117.769  0.00  0.00     0.275 HD
ATOM     24  H42 G39 d          -2.974  79.971 116.988  0.00  0.00     0.275 HD
ENDBRANCH   5  21
TORSDOF 7
ENDMDL
MODEL 3
REMARK VINA RESULT:      -5.8      2.248      5.615
REMARK  7 active torsions:
REMARK  status: ('A' for Active; 'I' for Inactive)
REMARK    1  A    between atoms: C8_3  and  C81_2 
REMARK    2  A    between atoms: C8_3  and  C9_4 
REMARK    3  A    between atoms: C8_3  and  O7_6 
REMARK    4  A    between atoms: C6_7  and  O7_6 
REMARK    5  A    between atoms: C2_9  and  C1_10 
REMARK    6  A    between atoms: C4_14  and  N4_15 
REMARK    7  A    between atoms: C5_19  and  N5_20 
REMARK       I    between atoms: C10_22  and  N5_20 
ROOT
ATOM      1  C6  G39 d           1.588  82.252 111.344  0.00  0.00     0.160 C 
ATOM      2  C7  G39 d           0.620  81.355 111.826  0.00  0.00     0.011 C 
ATOM      3  C2  G39 d          -0.650  81.760 112.296  0.00  0.00     0.060 C 
ATOM      4  C3  G39 d          -1.099  83.083 112.173  0.00  0.00     0.011 C 
ATOM      5  C4  G39 d           0.032  84.107 112.159  0.00  0.00     0.223 C 
ATOM      6  C5  G39 d           1.076  83.686 111.098  0.00  0.00     0.144 C 
ENDROOT
BRANCH   1   7
ATOM      7  O7  G39 d           2.189  81.723 110.145  0.00  0.00    -0.353 OA
BRANCH   7   8
ATOM      8  C8  G39 d           3.487  81.099 110.306  0.00  0.00     0.116 C 
BRANCH   8   9
ATOM      9  C81 G39 d           4.514  81.968 109.553  0.00  0.00     0.030 C 
ATOM     10  C82 G39 d           4.060  82.308 108.124  0.00  0.00     0.003 C 
ENDBRANCH   8   9
BRANCH   8  11
ATOM     11  C9  G39 d           3.536  79.730 109.620  0.00  0.00     0.030 C 
ATOM     12  C91 G39 d           2.150  79.233 109.181  0.00  0.00     0.003 C 
ENDBRANCH   8  11
ENDBRANCH   7   8
ENDBRANCH   1   7
BRANCH   6  13
ATOM     13  N5  G39 d           2.257  84.589 111.078  0.00  0.00    -0.342 N 
ATOM     14  H52 G39 d           2.506  84.994 110.197  0.00  0.00     0.163 HD
ATOM     15  C10 G39 d           2.975  84.881 112.161  0.00  0.00     0.231 C 
ATOM     16  O10 G39 d           2.778  84.405 113.289  0.00  0.00    -0.273 OA
ATOM     17  C11 G39 d           4.139  85.848 111.923  0.00  0.00     0.097 C 
ENDBRANCH   6  13
BRANCH   3  18
ATOM     18  C1  G39 d          -1.472  80.842 112.932  0.00  0.00     0.210 C 
ATOM     19  O1B G39 d          -2.717  80.926 112.808  0.00  0.00    -0.644 OA
ATOM     20  O1A G39 d          -0.987  79.960 113.664  0.00  0.00    -0.644 OA
ENDBRANCH   3  18
BRANCH   5  21
ATOM     21  N4  G39 d          -0.566  85.428 111.888  0.00  0.00    -0.060 N 
ATOM     22  H43 G39 d          -0.246  85.771 111.004  0.00  0.00     0.275 HD
ATOM     23  H44 G39 d          -0.270  86.071 112.601  0.00  0.00     0.275 HD
ATOM     24  H42 G39 d          -1.560  85.358 111.885  0.00  0.00     0.275 HD
ENDBRANCH   5  21
TORSDOF 7
ENDMDL
MODEL 4
REMARK VINA RESULT:      -5.7      1.152      1.873
REMARK  7 active torsions:
REMARK  status: ('A' for Active; 'I' for Inactive)
REMARK    1  A    between atoms: C8_3  and  C81_2 
REMARK    2  A    between atoms: C8_3  and  C9_4 
REMARK    3  A    between atoms: C8_3  and  O7_6 
REMARK    4  A    between atoms: C6_7  and  O7_6 
REMARK    5  A    between atoms: C2_9  and  C1_10 
REMARK    6  A    between atoms: C4_14  and  N4_15 
REMARK    7  A    between atoms: C5_19  and  N5_20 
REMARK       I    between atoms: C10_22  and  N5_20 
ROOT
ATOM      1  C6  G39 d           1.617  82.119 111.858  0.00  0.00     0.160 C 
ATOM      2  C7  G39 d           2.362  82.391 110.699  0.00  0.00     0.011 C 
ATOM      3  C2  G39 d           2.088  81.806 109.442  0.00  0.00     0.060 C 
ATOM      4  C3  G39 d           0.948  81.019 109.223  0.00  0.00     0.011 C 
ATOM      5  C4  G39 d           0.451  80.311 110.479  0.00  0.00     0.223 C 
ATOM      6  C5  G39 d           0.302  81.350 111.615  0.00  0.00     0.144 C 
ENDROOT
BRANCH   1   7
ATOM      7  O7  G39 d           1.355  83.345 112.570  0.00  0.00    -0.353 OA
BRANCH   7   8
ATOM      8  C8  G39 d           2.498  83.964 113.210  0.00  0.00     0.116 C 
BRANCH   8   9
ATOM      9  C81 G39 d           2.269  83.893 114.733  0.00  0.00     0.030 C 
ATOM     10  C82 G39 d           0.789  83.684 115.095  0.00  0.00     0.003 C 
ENDBRANCH   8   9
BRANCH   8  11
ATOM     11  C9  G39 d           2.578  85.459 112.882  0.00  0.00     0.030 C 
ATOM     12  C91 G39 d           3.840  85.827 112.086  0.00  0.00     0.003 C 
ENDBRANCH   8  11
ENDBRANCH   7   8
ENDBRANCH   1   7
BRANCH   6  13
ATOM     13  N5  G39 d          -0.099  80.726 112.903  0.00  0.00    -0.342 N 
ATOM     14  H52 G39 d           0.627  80.323 113.461  0.00  0.00     0.163 HD
ATOM     15  C10 G39 d          -1.357  80.693 113.341  0.00  0.00     0.231 C 
ATOM     16  O10 G39 d          -2.336  81.126 112.715  0.00  0.00    -0.273 OA
ATOM     17  C11 G39 d          -1.549  80.020 114.704  0.00  0.00     0.097 C 
ENDBRANCH   6  13
BRANCH   3  18
ATOM     18  C1  G39 d           2.982  81.975 108.395  0.00  0.00     0.210 C 
ATOM     19  O1B G39 d           2.789  82.878 107.547  0.00  0.00    -0.644 OA
ATOM     20  O1A G39 d           3.954  81.207 108.263  0.00  0.00    -0.644 OA
ENDBRANCH   3  18
BRANCH   5  21
ATOM     21  N4  G39 d          -0.818  79.640 110.140  0.00  0.00    -0.060 N 
ATOM     22  H43 G39 d          -0.632  78.796 109.636  0.00  0.00     0.275 HD
ATOM     23  H44 G39 d          -1.360  80.246 109.550  0.00  0.00     0.275 HD
ATOM     24  H42 G39 d          -1.327  79.433 110.971  0.00  0.00     0.275 HD
ENDBRANCH   5  21
TORSDOF 7
ENDMDL
MODEL 5
REMARK VINA RESULT:      -5.7      2.061      5.030
REMARK  7 active torsions:
REMARK  status: ('A' for Active; 'I' for Inactive)
REMARK    1  A    between atoms: C8_3  and  C81_2 
REMARK    2  A    between atoms: C8_3  and  C9_4 
REMARK    3  A    between atoms: C8_3  and  O7_6 
REMARK    4  A    between atoms: C6_7  and  O7_6 
REMARK    5  A    between atoms: C2_9  and  C1_10 
REMARK    6  A    between atoms: C4_14  and  N4_15 
REMARK    7  A    between atoms: C5_19  and  N5_20 
REMARK       I    between atoms: C10_22  and  N5_20 
ROOT
ATOM      1  C6  G39 d           0.946  82.748 112.000  0.00  0.00     0.160 C 
ATOM      2  C7  G39 d           0.810  83.315 113.279  0.00  0.00     0.011 C 
ATOM      3  C2  G39 d          -0.223  82.969 114.178  0.00  0.00     0.060 C 
ATOM      4  C3  G39 d          -1.110  81.914 113.919  0.00  0.00     0.011 C 
ATOM      5  C4  G39 d          -1.324  81.656 112.431  0.00  0.00     0.223 C 
ATOM      6  C5  G39 d           0.054  81.516 111.743  0.00  0.00     0.144 C 
ENDROOT
BRANCH   1   7
ATOM      7  O7  G39 d           2.329  82.426 111.753  0.00  0.00    -0.353 OA
BRANCH   7   8
ATOM      8  C8  G39 d           3.015  83.263 110.790  0.00  0.00     0.116 C 
BRANCH   8   9
ATOM      9  C81 G39 d           3.916  82.346 109.940  0.00  0.00     0.030 C 
ATOM     10  C82 G39 d           3.646  82.490 108.433  0.00  0.00     0.003 C 
ENDBRANCH   8   9
BRANCH   8  11
ATOM     11  C9  G39 d           3.969  84.242 111.481  0.00  0.00     0.030 C 
ATOM     12  C91 G39 d           3.282  85.553 111.893  0.00  0.00     0.003 C 
ENDBRANCH   8  11
ENDBRANCH   7   8
ENDBRANCH   1   7
BRANCH   6  13
ATOM     13  N5  G39 d          -0.063  81.345 110.271  0.00  0.00    -0.342 N 
ATOM     14  H52 G39 d          -0.708  81.942 109.792  0.00  0.00     0.163 HD
ATOM     15  C10 G39 d           0.648  80.457 109.577  0.00  0.00     0.231 C 
ATOM     16  O10 G39 d           1.443  79.645 110.073  0.00  0.00    -0.273 OA
ATOM     17  C11 G39 d           0.389  80.460 108.068  0.00  0.00     0.097 C 
ENDBRANCH   6  13
BRANCH   3  18
ATOM     18  C1  G39 d          -0.401  83.709 115.338  0.00  0.00     0.210 C 
ATOM     19  O1B G39 d          -0.547  84.953 115.271  0.00  0.00    -0.644 OA
ATOM     20  O1A G39 d          -0.372  83.154 116.452  0.00  0.00    -0.644 OA
ENDBRANCH   3  18
BRANCH   5  21
ATOM     21  N4  G39 d          -2.158  80.446 112.303  0.00  0.00    -0.060 N 
ATOM     22  H43 G39 d          -1.905  79.944 111.476  0.00  0.00     0.275 HD
ATOM     23  H44 G39 d          -3.121  80.722 112.222  0.00  0.00     0.275 HD
ATOM     24  H42 G39 d          -2.039  79.864 113.103  0.00  0.00     0.275 HD
ENDBRANCH   5  21
TORSDOF 7
ENDMDL
MODEL 6
REMARK VINA RESULT:      -5.6      2.480      4.433
REMARK  7 active torsions:
REMARK  status: ('A' for Active; 'I' for Inactive)
REMARK    1  A    between atoms: C8_3  and  C81_2 
REMARK    2  A    between atoms: C8_3  and  C9_4 
REMARK    3  A    between atoms: C8_3  and  O7_6 
REMARK    4  A    between atoms: C6_7  and  O7_6 
REMARK    5  A    between atoms: C2_9  and  C1_10 
REMARK    6  A    between atoms: C4_14  and  N4_15 
REMARK    7  A    between atoms: C5_19  and  N5_20 
REMARK       I    between atoms: C10_22  and  N5_20 
ROOT
ATOM      1  C6  G39 d           2.290  82.163 112.356  0.00  0.00     0.160 C 
ATOM      2  C7  G39 d           2.566  83.420 112.921  0.00  0.00     0.011 C 
ATOM      3  C2  G39 d           3.259  84.445 112.238  0.00  0.00     0.060 C 
ATOM      4  C3  G39 d           3.593  84.337 110.880  0.00  0.00     0.011 C 
ATOM      5  C4  G39 d           3.783  82.896 110.417  0.00  0.00     0.223 C 
ATOM      6  C5  G39 d           2.548  82.067 110.838  0.00  0.00     0.144 C 
ENDROOT
BRANCH   1   7
ATOM      7  O7  G39 d           0.934  81.779 112.659  0.00  0.00    -0.353 OA
BRANCH   7   8
ATOM      8  C8  G39 d           0.005  82.864 112.904  0.00  0.00     0.116 C 
BRANCH   8   9
ATOM      9  C81 G39 d          -1.024  82.366 113.939  0.00  0.00     0.030 C 
ATOM     10  C82 G39 d          -0.478  82.408 115.376  0.00  0.00     0.003 C 
ENDBRANCH   8   9
BRANCH   8  11
ATOM     11  C9  G39 d          -0.810  83.195 111.650  0.00  0.00     0.030 C 
ATOM     12  C91 G39 d          -0.418  84.542 111.024  0.00  0.00     0.003 C 
ENDBRANCH   8  11
ENDBRANCH   7   8
ENDBRANCH   1   7
BRANCH   6  13
ATOM     13  N5  G39 d           2.690  80.627 110.497  0.00  0.00    -0.342 N 
ATOM     14  H52 G39 d           3.179  80.049 111.152  0.00  0.00     0.163 HD
ATOM     15  C10 G39 d           2.195  80.085 109.386  0.00  0.00     0.231 C 
ATOM     16  O10 G39 d           1.609  80.714 108.492  0.00  0.00    -0.273 OA
ATOM     17  C11 G39 d           2.436  78.579 109.239  0.00  0.00     0.097 C 
ENDBRANCH   6  13
BRANCH   3  18
ATOM     18  C1  G39 d           3.660  85.580 112.927  0.00  0.00     0.210 C 
ATOM     19  O1B G39 d           4.078  86.580 112.295  0.00  0.00    -0.644 OA
ATOM     20  O1A G39 d           3.652  85.600 114.172  0.00  0.00    -0.644 OA
ENDBRANCH   3  18
BRANCH   5  21
ATOM     21  N4  G39 d           3.990  82.921 108.956  0.00  0.00    -0.060 N 
ATOM     22  H43 G39 d           3.610  83.764 108.573  0.00  0.00     0.275 HD
ATOM     23  H44 G39 d           3.506  82.142 108.546  0.00  0.00     0.275 HD
ATOM     24  H42 G39 d           4.963  82.863 108.749  0.00  0.00     0.275 HD
ENDBRANCH   5  21
TORSDOF 7
ENDMDL
MODEL 7
REMARK VINA RESULT:      -5.6      7.787     11.307
REMARK  7 active torsions:
REMARK  status: ('A' for Active; 'I' for Inactive)
REMARK    1  A    between atoms: C8_3  and  C81_2 
REMARK    2  A    between atoms: C8_3  and  C9_4 
REMARK    3  A    between atoms: C8_3  and  O7_6 
REMARK    4  A    between atoms: C6_7  and  O7_6 
REMARK    5  A    between atoms: C2_9  and  C1_10 
REMARK    6  A    between atoms: C4_14  and  N4_15 
REMARK    7  A    between atoms: C5_19  and  N5_20 
REMARK       I    between atoms: C10_22  and  N5_20 
ROOT
ATOM      1  C6  G39 d          -6.643  78.248 116.689  0.00  0.00     0.160 C 
ATOM      2  C7  G39 d          -7.862  77.554 116.617  0.00  0.00     0.011 C 
ATOM      3  C2  G39 d          -8.004  76.294 115.992  0.00  0.00     0.060 C 
ATOM      4  C3  G39 d          -6.898  75.568 115.526  0.00  0.00     0.011 C 
ATOM      5  C4  G39 d          -5.721  76.451 115.124  0.00  0.00     0.223 C 
ATOM      6  C5  G39 d          -5.404  77.423 116.284  0.00  0.00     0.144 C 
ENDROOT
BRANCH   1   7
ATOM      7  O7  G39 d          -6.470  78.796 118.011  0.00  0.00    -0.353 OA
BRANCH   7   8
ATOM      8  C8  G39 d          -6.715  80.217 118.148  0.00  0.00     0.116 C 
BRANCH   8   9
ATOM      9  C81 G39 d          -5.752  80.750 119.227  0.00  0.00     0.030 C 
ATOM     10  C82 G39 d          -4.349  80.131 119.119  0.00  0.00     0.003 C 
ENDBRANCH   8   9
BRANCH   8  11
ATOM     11  C9  G39 d          -8.122  80.491 118.689  0.00  0.00     0.030 C 
ATOM     12  C91 G39 d          -9.101  80.951 117.597  0.00  0.00     0.003 C 
ENDBRANCH   8  11
ENDBRANCH   7   8
ENDBRANCH   1   7
BRANCH   6  13
ATOM     13  N5  G39 d          -4.319  78.379 115.941  0.00  0.00    -0.342 N 
ATOM     14  H52 G39 d          -4.586  79.225 115.477  0.00  0.00     0.163 HD
ATOM     15  C10 G39 d          -3.036  78.166 116.229  0.00  0.00     0.231 C 
ATOM     16  O10 G39 d          -2.592  77.140 116.765  0.00  0.00    -0.273 OA
ATOM     17  C11 G39 d          -2.084  79.289 115.806  0.00  0.00     0.097 C 
ENDBRANCH   6  13
BRANCH   3  18
ATOM     18  C1  G39 d          -9.270  75.764 115.793  0.00  0.00     0.210 C 
ATOM     19  O1B G39 d         -10.267  76.308 116.326  0.00  0.00    -0.644 OA
ATOM     20  O1A G39 d          -9.422  74.723 115.127  0.00  0.00    -0.644 OA
ENDBRANCH   3  18
BRANCH   5  21
ATOM     21  N4  G39 d          -4.591  75.563 114.790  0.00  0.00    -0.060 N 
ATOM     22  H43 G39 d          -4.266  75.761 113.865  0.00  0.00     0.275 HD
ATOM     23  H44 G39 d          -4.908  74.610 114.815  0.00  0.00     0.275 HD
ATOM     24  H42 G39 d          -3.851  75.692 115.445  0.00  0.00     0.275 HD
ENDBRANCH   5  21
TORSDOF 7
ENDMDL
MODEL 8
REMARK VINA RESULT:      -5.5      2.364      5.853
REMARK  7 active torsions:
REMARK  status: ('A' for Active; 'I' for Inactive)
REMARK    1  A    between atoms: C8_3  and  C81_2 
REMARK    2  A    between atoms: C8_3  and  C9_4 
REMARK    3  A    between atoms: C8_3  and  O7_6 
REMARK    4  A    between atoms: C6_7  and  O7_6 
REMARK    5  A    between atoms: C2_9  and  C1_10 
REMARK    6  A    between atoms: C4_14  and  N4_15 
REMARK    7  A    between atoms: C5_19  and  N5_20 
REMARK       I    between atoms: C10_22  and  N5_20 
ROOT
ATOM      1  C6  G39 d           0.985  81.875 111.357  0.00  0.00     0.160 C 
ATOM      2  C7  G39 d          -0.038  80.972 111.693  0.00  0.00     0.011 C 
ATOM      3  C2  G39 d          -0.858  81.114 112.835  0.00  0.00     0.060 C 
ATOM      4  C3  G39 d          -0.812  82.260 113.643  0.00  0.00     0.011 C 
ATOM      5  C4  G39 d           0.546  82.953 113.632  0.00  0.00     0.223 C 
ATOM      6  C5  G39 d           0.977  83.189 112.166  0.00  0.00     0.144 C 
ENDROOT
BRANCH   1   7
ATOM      7  O7  G39 d           0.944  82.156 109.944  0.00  0.00    -0.353 OA
BRANCH   7   8
ATOM      8  C8  G39 d           1.973  81.528 109.141  0.00  0.00     0.116 C 
BRANCH   8   9
ATOM      9  C81 G39 d           1.414  80.180 108.644  0.00  0.00     0.030 C 
ATOM     10  C82 G39 d           2.182  78.978 109.219  0.00  0.00     0.003 C 
ENDBRANCH   8   9
BRANCH   8  11
ATOM     11  C9  G39 d           3.200  81.170 109.986  0.00  0.00     0.030 C 
ATOM     12  C91 G39 d           4.453  81.962 109.582  0.00  0.00     0.003 C 
ENDBRANCH   8  11
ENDBRANCH   7   8
ENDBRANCH   1   7
BRANCH   6  13
ATOM     13  N5  G39 d           2.333  83.788 112.063  0.00  0.00    -0.342 N 
ATOM     14  H52 G39 d           3.107  83.157 111.998  0.00  0.00     0.163 HD
ATOM     15  C10 G39 d           2.555  85.101 112.045  0.00  0.00     0.231 C 
ATOM     16  O10 G39 d           1.676  85.969 112.159  0.00  0.00    -0.273 OA
ATOM     17  C11 G39 d           4.027  85.506 111.913  0.00  0.00     0.097 C 
ENDBRANCH   6  13
BRANCH   3  18
ATOM     18  C1  G39 d          -1.712  80.084 113.201  0.00  0.00     0.210 C 
ATOM     19  O1B G39 d          -1.314  79.189 113.984  0.00  0.00    -0.644 OA
ATOM     20  O1A G39 d          -2.860  80.014 112.722  0.00  0.00    -0.644 OA
ENDBRANCH   3  18
BRANCH   5  21
ATOM     21  N4  G39 d           0.414  84.204 114.403  0.00  0.00    -0.060 N 
ATOM     22  H43 G39 d           1.317  84.609 114.551  0.00  0.00     0.275 HD
ATOM     23  H44 G39 d           0.013  83.993 115.300  0.00  0.00     0.275 HD
ATOM     24  H42 G39 d          -0.170  84.847 113.914  0.00  0.00     0.275 HD
ENDBRANCH   5  21
TORSDOF 7
ENDMDL
MODEL 9
REMARK VINA RESULT:      -5.5      2.517      4.146
REMARK  7 active torsions:
REMARK  status: ('A' for Active; 'I' for Inactive)
REMARK    1  A    between atoms: C8_3  and  C81_2 
REMARK    2  A    between atoms: C8_3  and  C9_4 
REMARK    3  A    between atoms: C8_3  and  O7_6 
REMARK    4  A    between atoms: C6_7  and  O7_6 
REMARK    5  A    between atoms: C2_9  and  C1_10 
REMARK    6  A    between atoms: C4_14  and  N4_15 
REMARK    7  A    between atoms: C5_19  and  N5_20 
REMARK       I    between atoms: C10_22  and  N5_20 
ROOT
ATOM      1  C6  G39 d           1.345  82.867 110.720  0.00  0.00     0.160 C 
ATOM      2  C7  G39 d           0.854  81.769 109.994  0.00  0.00     0.011 C 
ATOM      3  C2  G39 d           1.645  81.008 109.104  0.00  0.00     0.060 C 
ATOM      4  C3  G39 d           3.030  81.201 108.992  0.00  0.00     0.011 C 
ATOM      5  C4  G39 d           3.471  82.623 109.324  0.00  0.00     0.223 C 
ATOM      6  C5  G39 d           2.880  83.025 110.695  0.00  0.00     0.144 C 
ENDROOT
BRANCH   1   7
ATOM      7  O7  G39 d           0.870  82.807 112.079  0.00  0.00    -0.353 OA
BRANCH   7   8
ATOM      8  C8  G39 d          -0.441  83.374 112.321  0.00  0.00     0.116 C 
BRANCH   8   9
ATOM      9  C81 G39 d          -0.274  84.499 113.362  0.00  0.00     0.030 C 
ATOM     10  C82 G39 d          -0.093  85.880 112.710  0.00  0.00     0.003 C 
ENDBRANCH   8   9
BRANCH   8  11
ATOM     11  C9  G39 d          -1.379  82.354 112.974  0.00  0.00     0.030 C 
ATOM     12  C91 G39 d          -1.058  82.114 114.457  0.00  0.00     0.003 C 
ENDBRANCH   8  11
ENDBRANCH   7   8
ENDBRANCH   1   7
BRANCH   6  13
ATOM     13  N5  G39 d           3.194  84.432 111.057  0.00  0.00    -0.342 N 
ATOM     14  H52 G39 d           3.106  85.119 110.335  0.00  0.00     0.163 HD
ATOM     15  C10 G39 d           3.568  84.808 112.279  0.00  0.00     0.231 C 
ATOM     16  O10 G39 d           3.744  84.037 113.234  0.00  0.00    -0.273 OA
ATOM     17  C11 G39 d           3.823  86.310 112.442  0.00  0.00     0.097 C 
ENDBRANCH   6  13
BRANCH   3  18
ATOM     18  C1  G39 d           1.044  80.065 108.284  0.00  0.00     0.210 C 
ATOM     19  O1B G39 d           1.735  79.158 107.762  0.00  0.00    -0.644 OA
ATOM     20  O1A G39 d          -0.172  80.137 108.023  0.00  0.00    -0.644 OA
ENDBRANCH   3  18
BRANCH   5  21
ATOM     21  N4  G39 d           4.946  82.649 109.302  0.00  0.00    -0.060 N 
ATOM     22  H43 G39 d           5.275  82.480 108.373  0.00  0.00     0.275 HD
ATOM     23  H44 G39 d           5.293  81.917 109.897  0.00  0.00     0.275 HD
ATOM     24  H42 G39 d           5.277  83.532 109.624  0.00  0.00     0.275 HD
ENDBRANCH   5  21
TORSDOF 7
ENDMDL
