MODEL 1
REMARK VINA RESULT:      -5.1      0.000      0.000
REMARK  7 active torsions:
REMARK  status: ('A' for Active; 'I' for Inactive)
REMARK    1  A    between atoms: C_2  and  C_3 
REMARK    2  A    between atoms: C_3  and  O_6 
REMARK    3  A    between atoms: C_3  and  C_4 
REMARK    4  A    between atoms: C_7  and  O_6 
REMARK    5  A    between atoms: C_9  and  C_10 
REMARK    6  A    between atoms: N_15  and  C_14 
REMARK    7  A    between atoms: N_20  and  C_19 
REMARK       I    between atoms: C_22  and  N_20 
ROOT
ATOM      1  C   LIG d   1      -6.165  92.173 118.920  0.00  0.00     0.161 C 
ATOM      2  C   LIG d   1      -7.424  92.779 118.775  0.00  0.00     0.016 C 
ATOM      3  C   LIG d   1      -7.606  94.177 118.662  0.00  0.00     0.038 C 
ATOM      4  C   LIG d   1      -6.522  95.057 118.533  0.00  0.00     0.028 C 
ATOM      5  C   LIG d   1      -5.241  94.541 119.180  0.00  0.00    -0.047 C 
ATOM      6  C   LIG d   1      -4.964  93.108 118.670  0.00  0.00     0.091 C 
ENDROOT
BRANCH   1   7
ATOM      7  O   LIG d   1      -6.082  91.012 118.070  0.00  0.00    -0.368 OA
BRANCH   7   8
ATOM      8  C   LIG d   1      -5.663  91.251 116.704  0.00  0.00     0.119 C 
BRANCH   8   9
ATOM      9  C   LIG d   1      -6.905  91.093 115.805  0.00  0.00     0.028 C 
ATOM     10  C   LIG d   1      -7.708  89.822 116.130  0.00  0.00     0.006 C 
ENDBRANCH   8   9
BRANCH   8  11
ATOM     11  C   LIG d   1      -4.679  90.179 116.227  0.00  0.00     0.028 C 
ATOM     12  C   LIG d   1      -3.984  89.449 117.388  0.00  0.00     0.006 C 
ENDBRANCH   8  11
ENDBRANCH   7   8
ENDBRANCH   1   7
BRANCH   6  13
ATOM     13  N   LIG d   1      -3.775  92.496 119.318  0.00  0.00    -0.311 N 
ATOM     14  C   LIG d   1      -2.568  92.466 118.756  0.00  0.00     0.210 C 
ATOM     15  C   LIG d   1      -1.485  91.769 119.585  0.00  0.00     0.109 C 
ATOM     16  O   LIG d   1      -2.284  92.979 117.663  0.00  0.00    -0.276 OA
ATOM     17  H   LIG d   1      -3.909  92.084 120.221  0.00  0.00     0.149 HD
ENDBRANCH   6  13
BRANCH   5  18
ATOM     18  N   LIG d   1      -4.161  95.490 118.852  0.00  0.00     0.381 N 
ATOM     19  H   LIG d   1      -3.517  95.547 119.615  0.00  0.00    -0.090 HD
ATOM     20  H   LIG d   1      -4.562  96.401 118.708  0.00  0.00    -0.090 HD
ATOM     21  H   LIG d   1      -3.686  95.195 118.028  0.00  0.00    -0.090 HD
ENDBRANCH   5  18
BRANCH   3  22
ATOM     22  C   LIG d   1      -8.885  94.710 118.717  0.00  0.00     0.382 C 
ATOM     23  O   LIG d   1      -9.068  95.927 118.471  0.00  0.00    -0.241 OA
ATOM     24  O   LIG d   1      -9.852  94.000 119.052  0.00  0.00    -0.241 OA
ENDBRANCH   3  22
TORSDOF 7
ENDMDL
MODEL 2
REMARK VINA RESULT:      -5.0      1.669      2.457
REMARK  7 active torsions:
REMARK  status: ('A' for Active; 'I' for Inactive)
REMARK    1  A    between atoms: C_2  and  C_3 
REMARK    2  A    between atoms: C_3  and  O_6 
REMARK    3  A    between atoms: C_3  and  C_4 
REMARK    4  A    between atoms: C_7  and  O_6 
REMARK    5  A    between atoms: C_9  and  C_10 
REMARK    6  A    between atoms: N_15  and  C_14 
REMARK    7  A    between atoms: N_20  and  C_19 
REMARK       I    between atoms: C_22  and  N_20 
ROOT
ATOM      1  C   LIG d   1      -7.310  93.265 118.582  0.00  0.00     0.161 C 
ATOM      2  C   LIG d   1      -8.605  93.570 119.032  0.00  0.00     0.016 C 
ATOM      3  C   LIG d   1      -8.998  94.860 119.458  0.00  0.00     0.038 C 
ATOM      4  C   LIG d   1      -8.157  95.975 119.317  0.00  0.00     0.028 C 
ATOM      5  C   LIG d   1      -6.674  95.621 119.339  0.00  0.00    -0.047 C 
ATOM      6  C   LIG d   1      -6.412  94.492 118.317  0.00  0.00     0.091 C 
ENDROOT
BRANCH   1   7
ATOM      7  O   LIG d   1      -7.385  92.435 117.406  0.00  0.00    -0.368 OA
BRANCH   7   8
ATOM      8  C   LIG d   1      -7.388  91.005 117.634  0.00  0.00     0.119 C 
BRANCH   8   9
ATOM      9  C   LIG d   1      -6.052  90.642 118.311  0.00  0.00     0.028 C 
ATOM     10  C   LIG d   1      -4.940  90.342 117.292  0.00  0.00     0.006 C 
ENDBRANCH   8   9
BRANCH   8  11
ATOM     11  C   LIG d   1      -7.396  90.230 116.313  0.00  0.00     0.028 C 
ATOM     12  C   LIG d   1      -8.526  89.190 116.240  0.00  0.00     0.006 C 
ENDBRANCH   8  11
ENDBRANCH   7   8
ENDBRANCH   1   7
BRANCH   6  13
ATOM     13  N   LIG d   1      -5.000  94.027 118.334  0.00  0.00    -0.311 N 
ATOM     14  C   LIG d   1      -4.392  93.572 119.428  0.00  0.00     0.210 C 
ATOM     15  C   LIG d   1      -2.929  93.163 119.231  0.00  0.00     0.109 C 
ATOM     16  O   LIG d   1      -4.934  93.437 120.535  0.00  0.00    -0.276 OA
ATOM     17  H   LIG d   1      -4.495  94.073 117.471  0.00  0.00     0.149 HD
ENDBRANCH   6  13
BRANCH   5  18
ATOM     18  N   LIG d   1      -5.918  96.853 119.045  0.00  0.00     0.381 N 
ATOM     19  H   LIG d   1      -6.542  97.634 119.011  0.00  0.00    -0.090 HD
ATOM     20  H   LIG d   1      -5.480  96.760 118.146  0.00  0.00    -0.090 HD
ATOM     21  H   LIG d   1      -5.225  97.003 119.746  0.00  0.00    -0.090 HD
ENDBRANCH   5  18
BRANCH   3  22
ATOM     22  C   LIG d   1     -10.230  95.038 120.068  0.00  0.00     0.382 C 
ATOM     23  O   LIG d   1     -10.505  96.131 120.619  0.00  0.00    -0.241 OA
ATOM     24  O   LIG d   1     -11.053  94.104 120.113  0.00  0.00    -0.241 OA
ENDBRANCH   3  22
TORSDOF 7
ENDMDL
MODEL 3
REMARK VINA RESULT:      -4.7      2.196      4.761
REMARK  7 active torsions:
REMARK  status: ('A' for Active; 'I' for Inactive)
REMARK    1  A    between atoms: C_2  and  C_3 
REMARK    2  A    between atoms: C_3  and  O_6 
REMARK    3  A    between atoms: C_3  and  C_4 
REMARK    4  A    between atoms: C_7  and  O_6 
REMARK    5  A    between atoms: C_9  and  C_10 
REMARK    6  A    between atoms: N_15  and  C_14 
REMARK    7  A    between atoms: N_20  and  C_19 
REMARK       I    between atoms: C_22  and  N_20 
ROOT
ATOM      1  C   LIG d   1      -5.487  91.882 119.330  0.00  0.00     0.161 C 
ATOM      2  C   LIG d   1      -5.629  90.847 118.390  0.00  0.00     0.016 C 
ATOM      3  C   LIG d   1      -6.525  90.906 117.298  0.00  0.00     0.038 C 
ATOM      4  C   LIG d   1      -7.234  92.075 116.983  0.00  0.00     0.028 C 
ATOM      5  C   LIG d   1      -7.501  92.966 118.191  0.00  0.00    -0.047 C 
ATOM      6  C   LIG d   1      -6.171  93.209 118.939  0.00  0.00     0.091 C 
ENDROOT
BRANCH   1   7
ATOM      7  O   LIG d   1      -4.089  92.101 119.607  0.00  0.00    -0.368 OA
BRANCH   7   8
ATOM      8  C   LIG d   1      -3.374  92.929 118.657  0.00  0.00     0.119 C 
BRANCH   8   9
ATOM      9  C   LIG d   1      -2.210  92.089 118.095  0.00  0.00     0.028 C 
ATOM     10  C   LIG d   1      -1.891  90.867 118.973  0.00  0.00     0.006 C 
ENDBRANCH   8   9
BRANCH   8  11
ATOM     11  C   LIG d   1      -2.713  94.126 119.349  0.00  0.00     0.028 C 
ATOM     12  C   LIG d   1      -2.734  94.014 120.882  0.00  0.00     0.006 C 
ENDBRANCH   8  11
ENDBRANCH   7   8
ENDBRANCH   1   7
BRANCH   6  13
ATOM     13  N   LIG d   1      -6.356  94.002 120.182  0.00  0.00    -0.311 N 
ATOM     14  C   LIG d   1      -6.194  95.323 120.240  0.00  0.00     0.210 C 
ATOM     15  C   LIG d   1      -6.414  95.941 121.624  0.00  0.00     0.109 C 
ATOM     16  O   LIG d   1      -5.921  96.045 119.270  0.00  0.00    -0.276 OA
ATOM     17  H   LIG d   1      -6.609  93.500 121.011  0.00  0.00     0.149 HD
ENDBRANCH   6  13
BRANCH   5  18
ATOM     18  N   LIG d   1      -8.124  94.209 117.699  0.00  0.00     0.381 N 
ATOM     19  H   LIG d   1      -8.518  94.717 118.466  0.00  0.00    -0.090 HD
ATOM     20  H   LIG d   1      -8.865  93.973 117.063  0.00  0.00    -0.090 HD
ATOM     21  H   LIG d   1      -7.444  94.770 117.235  0.00  0.00    -0.090 HD
ENDBRANCH   5  18
BRANCH   3  22
ATOM     22  C   LIG d   1      -6.748  89.774 116.530  0.00  0.00     0.382 C 
ATOM     23  O   LIG d   1      -7.878  89.228 116.530  0.00  0.00    -0.241 OA
ATOM     24  O   LIG d   1      -5.822  89.264 115.872  0.00  0.00    -0.241 OA
ENDBRANCH   3  22
TORSDOF 7
ENDMDL
MODEL 4
REMARK VINA RESULT:      -4.6      2.446      4.537
REMARK  7 active torsions:
REMARK  status: ('A' for Active; 'I' for Inactive)
REMARK    1  A    between atoms: C_2  and  C_3 
REMARK    2  A    between atoms: C_3  and  O_6 
REMARK    3  A    between atoms: C_3  and  C_4 
REMARK    4  A    between atoms: C_7  and  O_6 
REMARK    5  A    between atoms: C_9  and  C_10 
REMARK    6  A    between atoms: N_15  and  C_14 
REMARK    7  A    between atoms: N_20  and  C_19 
REMARK       I    between atoms: C_22  and  N_20 
ROOT
ATOM      1  C   LIG d   1      -3.976  92.305 117.523  0.00  0.00     0.161 C 
ATOM      2  C   LIG d   1      -5.286  91.962 117.147  0.00  0.00     0.016 C 
ATOM      3  C   LIG d   1      -5.700  90.635 116.893  0.00  0.00     0.038 C 
ATOM      4  C   LIG d   1      -4.866  89.536 117.147  0.00  0.00     0.028 C 
ATOM      5  C   LIG d   1      -3.381  89.867 117.043  0.00  0.00    -0.047 C 
ATOM      6  C   LIG d   1      -3.082  91.109 117.912  0.00  0.00     0.091 C 
ENDROOT
BRANCH   1   7
ATOM      7  O   LIG d   1      -4.012  93.273 118.590  0.00  0.00    -0.368 OA
BRANCH   7   8
ATOM      8  C   LIG d   1      -5.225  93.304 119.382  0.00  0.00     0.119 C 
BRANCH   8   9
ATOM      9  C   LIG d   1      -5.596  94.784 119.601  0.00  0.00     0.028 C 
ATOM     10  C   LIG d   1      -6.601  95.298 118.556  0.00  0.00     0.006 C 
ENDBRANCH   8   9
BRANCH   8  11
ATOM     11  C   LIG d   1      -4.991  92.733 120.783  0.00  0.00     0.028 C 
ATOM     12  C   LIG d   1      -5.547  91.309 120.947  0.00  0.00     0.006 C 
ENDBRANCH   8  11
ENDBRANCH   7   8
ENDBRANCH   1   7
BRANCH   6  13
ATOM     13  N   LIG d   1      -1.667  91.552 117.802  0.00  0.00    -0.311 N 
ATOM     14  C   LIG d   1      -0.839  91.627 118.842  0.00  0.00     0.210 C 
ATOM     15  C   LIG d   1       0.571  92.126 118.512  0.00  0.00     0.109 C 
ATOM     16  O   LIG d   1      -1.129  91.297 120.002  0.00  0.00    -0.276 OA
ATOM     17  H   LIG d   1      -1.339  91.808 116.891  0.00  0.00     0.149 HD
ENDBRANCH   6  13
BRANCH   5  18
ATOM     18  N   LIG d   1      -2.627  88.671 117.465  0.00  0.00     0.381 N 
ATOM     19  H   LIG d   1      -1.893  88.937 118.090  0.00  0.00    -0.090 HD
ATOM     20  H   LIG d   1      -2.214  88.245 116.655  0.00  0.00    -0.090 HD
ATOM     21  H   LIG d   1      -3.238  88.024 117.915  0.00  0.00    -0.090 HD
ENDBRANCH   5  18
BRANCH   3  22
ATOM     22  C   LIG d   1      -6.951  90.399 116.341  0.00  0.00     0.382 C 
ATOM     23  O   LIG d   1      -7.587  91.338 115.805  0.00  0.00    -0.241 OA
ATOM     24  O   LIG d   1      -7.469  89.268 116.412  0.00  0.00    -0.241 OA
ENDBRANCH   3  22
TORSDOF 7
ENDMDL
MODEL 5
REMARK VINA RESULT:      -4.5     11.787     14.886
REMARK  7 active torsions:
REMARK  status: ('A' for Active; 'I' for Inactive)
REMARK    1  A    between atoms: C_2  and  C_3 
REMARK    2  A    between atoms: C_3  and  O_6 
REMARK    3  A    between atoms: C_3  and  C_4 
REMARK    4  A    between atoms: C_7  and  O_6 
REMARK    5  A    between atoms: C_9  and  C_10 
REMARK    6  A    between atoms: N_15  and  C_14 
REMARK    7  A    between atoms: N_20  and  C_19 
REMARK       I    between atoms: C_22  and  N_20 
ROOT
ATOM      1  C   LIG d   1      -7.005  79.450 118.428  0.00  0.00     0.161 C 
ATOM      2  C   LIG d   1      -5.827  79.046 117.778  0.00  0.00     0.016 C 
ATOM      3  C   LIG d   1      -5.667  77.777 117.175  0.00  0.00     0.038 C 
ATOM      4  C   LIG d   1      -6.735  76.876 117.049  0.00  0.00     0.028 C 
ATOM      5  C   LIG d   1      -7.795  77.038 118.133  0.00  0.00    -0.047 C 
ATOM      6  C   LIG d   1      -8.218  78.523 118.204  0.00  0.00     0.091 C 
ENDROOT
BRANCH   1   7
ATOM      7  O   LIG d   1      -7.331  80.803 118.051  0.00  0.00    -0.368 OA
BRANCH   7   8
ATOM      8  C   LIG d   1      -7.113  81.816 119.063  0.00  0.00     0.119 C 
BRANCH   8   9
ATOM      9  C   LIG d   1      -6.777  81.091 120.380  0.00  0.00     0.028 C 
ATOM     10  C   LIG d   1      -5.364  81.423 120.889  0.00  0.00     0.006 C 
ENDBRANCH   8   9
BRANCH   8  11
ATOM     11  C   LIG d   1      -8.396  82.603 119.350  0.00  0.00     0.028 C 
ATOM     12  C   LIG d   1      -8.739  82.658 120.847  0.00  0.00     0.006 C 
ENDBRANCH   8  11
ENDBRANCH   7   8
ENDBRANCH   1   7
BRANCH   6  13
ATOM     13  N   LIG d   1      -9.191  78.784 119.296  0.00  0.00    -0.311 N 
ATOM     14  C   LIG d   1     -10.243  79.591 119.164  0.00  0.00     0.210 C 
ATOM     15  C   LIG d   1     -11.109  79.736 120.419  0.00  0.00     0.109 C 
ATOM     16  O   LIG d   1     -10.559  80.175 118.116  0.00  0.00    -0.276 OA
ATOM     17  H   LIG d   1      -9.028  78.326 120.171  0.00  0.00     0.149 HD
ENDBRANCH   6  13
BRANCH   5  18
ATOM     18  N   LIG d   1      -8.913  76.134 117.802  0.00  0.00     0.381 N 
ATOM     19  H   LIG d   1      -8.744  75.696 116.919  0.00  0.00    -0.090 HD
ATOM     20  H   LIG d   1      -9.757  76.674 117.731  0.00  0.00    -0.090 HD
ATOM     21  H   LIG d   1      -9.012  75.441 118.511  0.00  0.00    -0.090 HD
ENDBRANCH   5  18
BRANCH   3  22
ATOM     22  C   LIG d   1      -4.416  77.383 116.725  0.00  0.00     0.382 C 
ATOM     23  O   LIG d   1      -3.911  76.311 117.138  0.00  0.00    -0.241 OA
ATOM     24  O   LIG d   1      -3.767  78.107 115.947  0.00  0.00    -0.241 OA
ENDBRANCH   3  22
TORSDOF 7
ENDMDL
MODEL 6
REMARK VINA RESULT:      -4.4      2.599      4.241
REMARK  7 active torsions:
REMARK  status: ('A' for Active; 'I' for Inactive)
REMARK    1  A    between atoms: C_2  and  C_3 
REMARK    2  A    between atoms: C_3  and  O_6 
REMARK    3  A    between atoms: C_3  and  C_4 
REMARK    4  A    between atoms: C_7  and  O_6 
REMARK    5  A    between atoms: C_9  and  C_10 
REMARK    6  A    between atoms: N_15  and  C_14 
REMARK    7  A    between atoms: N_20  and  C_19 
REMARK       I    between atoms: C_22  and  N_20 
ROOT
ATOM      1  C   LIG d   1      -3.597  90.109 118.090  0.00  0.00     0.161 C 
ATOM      2  C   LIG d   1      -4.722  89.849 117.291  0.00  0.00     0.016 C 
ATOM      3  C   LIG d   1      -5.638  90.848 116.887  0.00  0.00     0.038 C 
ATOM      4  C   LIG d   1      -5.405  92.210 117.132  0.00  0.00     0.028 C 
ATOM      5  C   LIG d   1      -4.547  92.465 118.367  0.00  0.00    -0.047 C 
ATOM      6  C   LIG d   1      -3.266  91.605 118.275  0.00  0.00     0.091 C 
ENDROOT
BRANCH   1   7
ATOM      7  O   LIG d   1      -2.453  89.404 117.568  0.00  0.00    -0.368 OA
BRANCH   7   8
ATOM      8  C   LIG d   1      -2.230  88.073 118.096  0.00  0.00     0.119 C 
BRANCH   8   9
ATOM      9  C   LIG d   1      -2.148  88.191 119.630  0.00  0.00     0.028 C 
ATOM     10  C   LIG d   1      -3.056  87.176 120.346  0.00  0.00     0.006 C 
ENDBRANCH   8   9
BRANCH   8  11
ATOM     11  C   LIG d   1      -0.870  87.521 117.659  0.00  0.00     0.028 C 
ATOM     12  C   LIG d   1       0.243  87.802 118.680  0.00  0.00     0.006 C 
ENDBRANCH   8  11
ENDBRANCH   7   8
ENDBRANCH   1   7
BRANCH   6  13
ATOM     13  N   LIG d   1      -2.410  91.731 119.483  0.00  0.00    -0.311 N 
ATOM     14  C   LIG d   1      -1.083  91.826 119.435  0.00  0.00     0.210 C 
ATOM     15  C   LIG d   1      -0.392  91.927 120.798  0.00  0.00     0.109 C 
ATOM     16  O   LIG d   1      -0.414  91.869 118.391  0.00  0.00    -0.276 OA
ATOM     17  H   LIG d   1      -2.873  91.736 120.371  0.00  0.00     0.149 HD
ENDBRANCH   6  13
BRANCH   5  18
ATOM     18  N   LIG d   1      -4.269  93.912 118.426  0.00  0.00     0.381 N 
ATOM     19  H   LIG d   1      -4.366  94.313 117.514  0.00  0.00    -0.090 HD
ATOM     20  H   LIG d   1      -3.322  94.049 118.732  0.00  0.00    -0.090 HD
ATOM     21  H   LIG d   1      -4.899  94.355 119.059  0.00  0.00    -0.090 HD
ENDBRANCH   5  18
BRANCH   3  22
ATOM     22  C   LIG d   1      -6.822  90.484 116.264  0.00  0.00     0.382 C 
ATOM     23  O   LIG d   1      -7.586  91.367 115.805  0.00  0.00    -0.241 OA
ATOM     24  O   LIG d   1      -7.157  89.286 116.196  0.00  0.00    -0.241 OA
ENDBRANCH   3  22
TORSDOF 7
ENDMDL
MODEL 7
REMARK VINA RESULT:      -4.4     12.056     14.216
REMARK  7 active torsions:
REMARK  status: ('A' for Active; 'I' for Inactive)
REMARK    1  A    between atoms: C_2  and  C_3 
REMARK    2  A    between atoms: C_3  and  O_6 
REMARK    3  A    between atoms: C_3  and  C_4 
REMARK    4  A    between atoms: C_7  and  O_6 
REMARK    5  A    between atoms: C_9  and  C_10 
REMARK    6  A    between atoms: N_15  and  C_14 
REMARK    7  A    between atoms: N_20  and  C_19 
REMARK       I    between atoms: C_22  and  N_20 
ROOT
ATOM      1  C   LIG d   1      -7.472  78.313 119.382  0.00  0.00     0.161 C 
ATOM      2  C   LIG d   1      -8.390  79.002 118.571  0.00  0.00     0.016 C 
ATOM      3  C   LIG d   1      -8.423  80.411 118.457  0.00  0.00     0.038 C 
ATOM      4  C   LIG d   1      -7.437  81.225 119.034  0.00  0.00     0.028 C 
ATOM      5  C   LIG d   1      -6.791  80.610 120.271  0.00  0.00    -0.047 C 
ATOM      6  C   LIG d   1      -6.318  79.178 119.931  0.00  0.00     0.091 C 
ENDROOT
BRANCH   1   7
ATOM      7  O   LIG d   1      -6.950  77.174 118.669  0.00  0.00    -0.368 OA
BRANCH   7   8
ATOM      8  C   LIG d   1      -7.601  76.853 117.416  0.00  0.00     0.119 C 
BRANCH   8   9
ATOM      9  C   LIG d   1      -8.417  75.564 117.635  0.00  0.00     0.028 C 
ATOM     10  C   LIG d   1      -9.876  75.707 117.171  0.00  0.00     0.006 C 
ENDBRANCH   8   9
BRANCH   8  11
ATOM     11  C   LIG d   1      -6.579  76.506 116.329  0.00  0.00     0.028 C 
ATOM     12  C   LIG d   1      -5.143  76.894 116.716  0.00  0.00     0.006 C 
ENDBRANCH   8  11
ENDBRANCH   7   8
ENDBRANCH   1   7
BRANCH   6  13
ATOM     13  N   LIG d   1      -5.750  78.473 121.110  0.00  0.00    -0.311 N 
ATOM     14  C   LIG d   1      -4.588  77.823 121.085  0.00  0.00     0.210 C 
ATOM     15  C   LIG d   1      -4.196  77.149 122.404  0.00  0.00     0.109 C 
ATOM     16  O   LIG d   1      -3.829  77.768 120.106  0.00  0.00    -0.276 OA
ATOM     17  H   LIG d   1      -6.286  78.494 121.955  0.00  0.00     0.149 HD
ENDBRANCH   6  13
BRANCH   5  18
ATOM     18  N   LIG d   1      -5.690  81.499 120.687  0.00  0.00     0.381 N 
ATOM     19  H   LIG d   1      -5.950  82.453 120.537  0.00  0.00    -0.090 HD
ATOM     20  H   LIG d   1      -4.881  81.300 120.125  0.00  0.00    -0.090 HD
ATOM     21  H   LIG d   1      -5.478  81.352 121.650  0.00  0.00    -0.090 HD
ENDBRANCH   5  18
BRANCH   3  22
ATOM     22  C   LIG d   1      -9.476  81.022 117.793  0.00  0.00     0.382 C 
ATOM     23  O   LIG d   1     -10.655  80.658 118.018  0.00  0.00    -0.241 OA
ATOM     24  O   LIG d   1      -9.258  81.902 116.939  0.00  0.00    -0.241 OA
ENDBRANCH   3  22
TORSDOF 7
ENDMDL
MODEL 8
REMARK VINA RESULT:      -4.3     11.452     13.444
REMARK  7 active torsions:
REMARK  status: ('A' for Active; 'I' for Inactive)
REMARK    1  A    between atoms: C_2  and  C_3 
REMARK    2  A    between atoms: C_3  and  O_6 
REMARK    3  A    between atoms: C_3  and  C_4 
REMARK    4  A    between atoms: C_7  and  O_6 
REMARK    5  A    between atoms: C_9  and  C_10 
REMARK    6  A    between atoms: N_15  and  C_14 
REMARK    7  A    between atoms: N_20  and  C_19 
REMARK       I    between atoms: C_22  and  N_20 
ROOT
ATOM      1  C   LIG d   1      -6.841  79.080 118.474  0.00  0.00     0.161 C 
ATOM      2  C   LIG d   1      -8.008  79.749 118.069  0.00  0.00     0.016 C 
ATOM      3  C   LIG d   1      -8.400  81.008 118.578  0.00  0.00     0.038 C 
ATOM      4  C   LIG d   1      -7.566  81.759 119.420  0.00  0.00     0.028 C 
ATOM      5  C   LIG d   1      -6.614  80.903 120.249  0.00  0.00    -0.047 C 
ATOM      6  C   LIG d   1      -5.864  79.933 119.309  0.00  0.00     0.091 C 
ENDROOT
BRANCH   1   7
ATOM      7  O   LIG d   1      -6.169  78.530 117.323  0.00  0.00    -0.368 OA
BRANCH   7   8
ATOM      8  C   LIG d   1      -5.902  77.106 117.361  0.00  0.00     0.119 C 
BRANCH   8   9
ATOM      9  C   LIG d   1      -4.528  76.875 116.703  0.00  0.00     0.028 C 
ATOM     10  C   LIG d   1      -3.645  78.134 116.732  0.00  0.00     0.006 C 
ENDBRANCH   8   9
BRANCH   8  11
ATOM     11  C   LIG d   1      -6.901  76.330 116.497  0.00  0.00     0.028 C 
ATOM     12  C   LIG d   1      -8.177  75.944 117.262  0.00  0.00     0.006 C 
ENDBRANCH   8  11
ENDBRANCH   7   8
ENDBRANCH   1   7
BRANCH   6  13
ATOM     13  N   LIG d   1      -4.973  79.002 120.049  0.00  0.00    -0.311 N 
ATOM     14  C   LIG d   1      -3.687  79.252 120.290  0.00  0.00     0.210 C 
ATOM     15  C   LIG d   1      -2.945  78.150 121.052  0.00  0.00     0.109 C 
ATOM     16  O   LIG d   1      -3.099  80.297 119.972  0.00  0.00    -0.276 OA
ATOM     17  H   LIG d   1      -5.376  78.143 120.370  0.00  0.00     0.149 HD
ENDBRANCH   6  13
BRANCH   5  18
ATOM     18  N   LIG d   1      -5.713  81.817 120.977  0.00  0.00     0.381 N 
ATOM     19  H   LIG d   1      -5.166  81.299 121.636  0.00  0.00    -0.090 HD
ATOM     20  H   LIG d   1      -6.267  82.485 121.483  0.00  0.00    -0.090 HD
ATOM     21  H   LIG d   1      -5.115  82.288 120.335  0.00  0.00    -0.090 HD
ENDBRANCH   5  18
BRANCH   3  22
ATOM     22  C   LIG d   1      -9.656  81.512 118.275  0.00  0.00     0.382 C 
ATOM     23  O   LIG d   1      -9.869  82.746 118.342  0.00  0.00    -0.241 OA
ATOM     24  O   LIG d   1     -10.590  80.743 117.978  0.00  0.00    -0.241 OA
ENDBRANCH   3  22
TORSDOF 7
ENDMDL
MODEL 9
REMARK VINA RESULT:      -4.3      2.382      4.137
REMARK  7 active torsions:
REMARK  status: ('A' for Active; 'I' for Inactive)
REMARK    1  A    between atoms: C_2  and  C_3 
REMARK    2  A    between atoms: C_3  and  O_6 
REMARK    3  A    between atoms: C_3  and  C_4 
REMARK    4  A    between atoms: C_7  and  O_6 
REMARK    5  A    between atoms: C_9  and  C_10 
REMARK    6  A    between atoms: N_15  and  C_14 
REMARK    7  A    between atoms: N_20  and  C_19 
REMARK       I    between atoms: C_22  and  N_20 
ROOT
ATOM      1  C   LIG d   1      -4.085  91.160 118.767  0.00  0.00     0.161 C 
ATOM      2  C   LIG d   1      -5.034  90.397 118.067  0.00  0.00     0.016 C 
ATOM      3  C   LIG d   1      -6.153  90.958 117.411  0.00  0.00     0.038 C 
ATOM      4  C   LIG d   1      -6.319  92.345 117.283  0.00  0.00     0.028 C 
ATOM      5  C   LIG d   1      -5.659  93.140 118.405  0.00  0.00    -0.047 C 
ATOM      6  C   LIG d   1      -4.188  92.683 118.545  0.00  0.00     0.091 C 
ENDROOT
BRANCH   1   7
ATOM      7  O   LIG d   1      -2.757  90.697 118.453  0.00  0.00    -0.368 OA
BRANCH   7   8
ATOM      8  C   LIG d   1      -2.000  90.137 119.554  0.00  0.00     0.119 C 
BRANCH   8   9
ATOM      9  C   LIG d   1      -0.573  90.715 119.477  0.00  0.00     0.028 C 
ATOM     10  C   LIG d   1      -0.233  91.251 118.076  0.00  0.00     0.006 C 
ENDBRANCH   8   9
BRANCH   8  11
ATOM     11  C   LIG d   1      -1.832  88.622 119.401  0.00  0.00     0.028 C 
ATOM     12  C   LIG d   1      -2.198  88.121 117.995  0.00  0.00     0.006 C 
ENDBRANCH   8  11
ENDBRANCH   7   8
ENDBRANCH   1   7
BRANCH   6  13
ATOM     13  N   LIG d   1      -3.493  93.351 119.676  0.00  0.00    -0.311 N 
ATOM     14  C   LIG d   1      -2.382  94.072 119.530  0.00  0.00     0.210 C 
ATOM     15  C   LIG d   1      -1.817  94.657 120.828  0.00  0.00     0.109 C 
ATOM     16  O   LIG d   1      -1.830  94.309 118.445  0.00  0.00    -0.276 OA
ATOM     17  H   LIG d   1      -3.890  93.237 120.587  0.00  0.00     0.149 HD
ENDBRANCH   6  13
BRANCH   5  18
ATOM     18  N   LIG d   1      -5.790  94.572 118.074  0.00  0.00     0.381 N 
ATOM     19  H   LIG d   1      -4.979  94.880 117.577  0.00  0.00    -0.090 HD
ATOM     20  H   LIG d   1      -5.857  95.098 118.927  0.00  0.00    -0.090 HD
ATOM     21  H   LIG d   1      -6.604  94.720 117.519  0.00  0.00    -0.090 HD
ENDBRANCH   5  18
BRANCH   3  22
ATOM     22  C   LIG d   1      -7.143  90.128 116.909  0.00  0.00     0.382 C 
ATOM     23  O   LIG d   1      -8.306  90.183 117.378  0.00  0.00    -0.241 OA
ATOM     24  O   LIG d   1      -6.878  89.293 116.023  0.00  0.00    -0.241 OA
ENDBRANCH   3  22
TORSDOF 7
ENDMDL
