MODEL 1
REMARK VINA RESULT:      -4.7      0.000      0.000
REMARK  7 active torsions:
REMARK  status: ('A' for Active; 'I' for Inactive)
REMARK    1  A    between atoms: C_2  and  C_3 
REMARK    2  A    between atoms: C_3  and  O_6 
REMARK    3  A    between atoms: C_3  and  C_4 
REMARK    4  A    between atoms: C_7  and  O_6 
REMARK    5  A    between atoms: C_9  and  C_10 
REMARK    6  A    between atoms: N_15  and  C_14 
REMARK    7  A    between atoms: N_20  and  C_19 
REMARK       I    between atoms: C_22  and  N_20 
ROOT
ATOM      1  C   LIG d   1      -7.200  80.060 119.064  0.00  0.00     0.161 C 
ATOM      2  C   LIG d   1      -5.977  79.920 118.387  0.00  0.00     0.016 C 
ATOM      3  C   LIG d   1      -5.482  78.679 117.924  0.00  0.00     0.038 C 
ATOM      4  C   LIG d   1      -6.252  77.508 117.975  0.00  0.00     0.028 C 
ATOM      5  C   LIG d   1      -7.279  77.506 119.102  0.00  0.00    -0.047 C 
ATOM      6  C   LIG d   1      -8.105  78.811 119.030  0.00  0.00     0.091 C 
ENDROOT
BRANCH   1   7
ATOM      7  O   LIG d   1      -7.910  81.207 118.558  0.00  0.00    -0.368 OA
BRANCH   7   8
ATOM      8  C   LIG d   1      -8.267  82.218 119.534  0.00  0.00     0.119 C 
BRANCH   8   9
ATOM      9  C   LIG d   1      -9.789  82.436 119.439  0.00  0.00     0.028 C 
ATOM     10  C   LIG d   1     -10.371  81.940 118.104  0.00  0.00     0.006 C 
ENDBRANCH   8   9
BRANCH   8  11
ATOM     11  C   LIG d   1      -7.641  83.572 119.187  0.00  0.00     0.028 C 
ATOM     12  C   LIG d   1      -6.210  83.722 119.728  0.00  0.00     0.006 C 
ENDBRANCH   8  11
ENDBRANCH   7   8
ENDBRANCH   1   7
BRANCH   6  13
ATOM     13  N   LIG d   1      -9.077  78.928 120.149  0.00  0.00    -0.311 N 
ATOM     14  C   LIG d   1     -10.342  78.521 120.066  0.00  0.00     0.210 C 
ATOM     15  C   LIG d   1     -11.179  78.753 121.328  0.00  0.00     0.109 C 
ATOM     16  O   LIG d   1     -10.841  77.959 119.080  0.00  0.00    -0.276 OA
ATOM     17  H   LIG d   1      -8.747  79.344 120.998  0.00  0.00     0.149 HD
ENDBRANCH   6  13
BRANCH   5  18
ATOM     18  N   LIG d   1      -8.102  76.291 118.953  0.00  0.00     0.381 N 
ATOM     19  H   LIG d   1      -8.246  75.868 119.848  0.00  0.00    -0.090 HD
ATOM     20  H   LIG d   1      -7.612  75.636 118.370  0.00  0.00    -0.090 HD
ATOM     21  H   LIG d   1      -8.979  76.522 118.542  0.00  0.00    -0.090 HD
ENDBRANCH   5  18
BRANCH   3  22
ATOM     22  C   LIG d   1      -4.185  78.595 117.439  0.00  0.00     0.382 C 
ATOM     23  O   LIG d   1      -3.420  77.689 117.850  0.00  0.00    -0.241 OA
ATOM     24  O   LIG d   1      -3.757  79.439 116.630  0.00  0.00    -0.241 OA
ENDBRANCH   3  22
TORSDOF 7
ENDMDL
MODEL 2
REMARK VINA RESULT:      -4.6     22.218     24.253
REMARK  7 active torsions:
REMARK  status: ('A' for Active; 'I' for Inactive)
REMARK    1  A    between atoms: C_2  and  C_3 
REMARK    2  A    between atoms: C_3  and  O_6 
REMARK    3  A    between atoms: C_3  and  C_4 
REMARK    4  A    between atoms: C_7  and  O_6 
REMARK    5  A    between atoms: C_9  and  C_10 
REMARK    6  A    between atoms: N_15  and  C_14 
REMARK    7  A    between atoms: N_20  and  C_19 
REMARK       I    between atoms: C_22  and  N_20 
ROOT
ATOM      1  C   LIG d   1       0.831  57.846 118.403  0.00  0.00     0.161 C 
ATOM      2  C   LIG d   1       2.224  57.937 118.238  0.00  0.00     0.016 C 
ATOM      3  C   LIG d   1       3.076  58.585 119.162  0.00  0.00     0.038 C 
ATOM      4  C   LIG d   1       2.607  59.058 120.397  0.00  0.00     0.028 C 
ATOM      5  C   LIG d   1       1.130  59.437 120.379  0.00  0.00    -0.047 C 
ATOM      6  C   LIG d   1       0.317  58.259 119.797  0.00  0.00     0.091 C 
ENDROOT
BRANCH   1   7
ATOM      7  O   LIG d   1       0.387  56.513 118.079  0.00  0.00    -0.368 OA
BRANCH   7   8
ATOM      8  C   LIG d   1       1.265  55.433 118.481  0.00  0.00     0.119 C 
BRANCH   8   9
ATOM      9  C   LIG d   1       1.339  54.436 117.309  0.00  0.00     0.028 C 
ATOM     10  C   LIG d   1       2.772  54.261 116.778  0.00  0.00     0.006 C 
ENDBRANCH   8   9
BRANCH   8  11
ATOM     11  C   LIG d   1       0.673  54.641 119.651  0.00  0.00     0.028 C 
ATOM     12  C   LIG d   1       1.401  54.905 120.978  0.00  0.00     0.006 C 
ENDBRANCH   8  11
ENDBRANCH   7   8
ENDBRANCH   1   7
BRANCH   6  13
ATOM     13  N   LIG d   1      -1.129  58.578 119.667  0.00  0.00    -0.311 N 
ATOM     14  C   LIG d   1      -2.089  57.903 120.297  0.00  0.00     0.210 C 
ATOM     15  C   LIG d   1      -3.514  58.383 120.008  0.00  0.00     0.109 C 
ATOM     16  O   LIG d   1      -1.893  56.972 121.094  0.00  0.00    -0.276 OA
ATOM     17  H   LIG d   1      -1.376  59.339 119.065  0.00  0.00     0.149 HD
ENDBRANCH   6  13
BRANCH   5  18
ATOM     18  N   LIG d   1       0.742  59.781 121.760  0.00  0.00     0.381 N 
ATOM     19  H   LIG d   1       1.510  60.220 122.228  0.00  0.00    -0.090 HD
ATOM     20  H   LIG d   1       0.514  58.936 122.254  0.00  0.00    -0.090 HD
ATOM     21  H   LIG d   1      -0.044  60.392 121.751  0.00  0.00    -0.090 HD
ENDBRANCH   5  18
BRANCH   3  22
ATOM     22  C   LIG d   1       4.406  58.800 118.835  0.00  0.00     0.382 C 
ATOM     23  O   LIG d   1       5.311  58.460 119.635  0.00  0.00    -0.241 OA
ATOM     24  O   LIG d   1       4.711  59.371 117.771  0.00  0.00    -0.241 OA
ENDBRANCH   3  22
TORSDOF 7
ENDMDL
MODEL 3
REMARK VINA RESULT:      -4.5     11.798     14.669
REMARK  7 active torsions:
REMARK  status: ('A' for Active; 'I' for Inactive)
REMARK    1  A    between atoms: C_2  and  C_3 
REMARK    2  A    between atoms: C_3  and  O_6 
REMARK    3  A    between atoms: C_3  and  C_4 
REMARK    4  A    between atoms: C_7  and  O_6 
REMARK    5  A    between atoms: C_9  and  C_10 
REMARK    6  A    between atoms: N_15  and  C_14 
REMARK    7  A    between atoms: N_20  and  C_19 
REMARK       I    between atoms: C_22  and  N_20 
ROOT
ATOM      1  C   LIG d   1       0.007  91.126 117.509  0.00  0.00     0.161 C 
ATOM      2  C   LIG d   1       1.391  91.194 117.282  0.00  0.00     0.016 C 
ATOM      3  C   LIG d   1       2.113  92.410 117.235  0.00  0.00     0.038 C 
ATOM      4  C   LIG d   1       1.519  93.637 117.565  0.00  0.00     0.028 C 
ATOM      5  C   LIG d   1       0.017  93.673 117.307  0.00  0.00    -0.047 C 
ATOM      6  C   LIG d   1      -0.637  92.446 117.982  0.00  0.00     0.091 C 
ENDROOT
BRANCH   1   7
ATOM      7  O   LIG d   1      -0.283  90.065 118.442  0.00  0.00    -0.368 OA
BRANCH   7   8
ATOM      8  C   LIG d   1      -1.086  88.971 117.933  0.00  0.00     0.119 C 
BRANCH   8   9
ATOM      9  C   LIG d   1      -2.368  88.903 118.785  0.00  0.00     0.028 C 
ATOM     10  C   LIG d   1      -2.199  89.580 120.156  0.00  0.00     0.006 C 
ENDBRANCH   8   9
BRANCH   8  11
ATOM     11  C   LIG d   1      -0.388  87.624 118.143  0.00  0.00     0.028 C 
ATOM     12  C   LIG d   1       0.578  87.270 117.001  0.00  0.00     0.006 C 
ENDBRANCH   8  11
ENDBRANCH   7   8
ENDBRANCH   1   7
BRANCH   6  13
ATOM     13  N   LIG d   1      -2.095  92.358 117.707  0.00  0.00    -0.311 N 
ATOM     14  C   LIG d   1      -3.025  92.864 118.516  0.00  0.00     0.210 C 
ATOM     15  C   LIG d   1      -4.470  92.646 118.055  0.00  0.00     0.109 C 
ATOM     16  O   LIG d   1      -2.790  93.499 119.554  0.00  0.00    -0.276 OA
ATOM     17  H   LIG d   1      -2.374  91.886 116.870  0.00  0.00     0.149 HD
ENDBRANCH   6  13
BRANCH   5  18
ATOM     18  N   LIG d   1      -0.494  94.957 117.822  0.00  0.00     0.381 N 
ATOM     19  H   LIG d   1      -0.031  95.186 118.679  0.00  0.00    -0.090 HD
ATOM     20  H   LIG d   1      -1.477  94.865 118.009  0.00  0.00    -0.090 HD
ATOM     21  H   LIG d   1      -0.342  95.678 117.152  0.00  0.00    -0.090 HD
ENDBRANCH   5  18
BRANCH   3  22
ATOM     22  C   LIG d   1       3.434  92.408 116.816  0.00  0.00     0.382 C 
ATOM     23  O   LIG d   1       4.142  93.433 116.970  0.00  0.00    -0.241 OA
ATOM     24  O   LIG d   1       3.915  91.411 116.245  0.00  0.00    -0.241 OA
ENDBRANCH   3  22
TORSDOF 7
ENDMDL
MODEL 4
REMARK VINA RESULT:      -4.4     12.884     15.234
REMARK  7 active torsions:
REMARK  status: ('A' for Active; 'I' for Inactive)
REMARK    1  A    between atoms: C_2  and  C_3 
REMARK    2  A    between atoms: C_3  and  O_6 
REMARK    3  A    between atoms: C_3  and  C_4 
REMARK    4  A    between atoms: C_7  and  O_6 
REMARK    5  A    between atoms: C_9  and  C_10 
REMARK    6  A    between atoms: N_15  and  C_14 
REMARK    7  A    between atoms: N_20  and  C_19 
REMARK       I    between atoms: C_22  and  N_20 
ROOT
ATOM      1  C   LIG d   1      -3.584  93.091 118.525  0.00  0.00     0.161 C 
ATOM      2  C   LIG d   1      -4.235  92.442 117.463  0.00  0.00     0.016 C 
ATOM      3  C   LIG d   1      -5.635  92.483 117.268  0.00  0.00     0.038 C 
ATOM      4  C   LIG d   1      -6.468  93.306 118.041  0.00  0.00     0.028 C 
ATOM      5  C   LIG d   1      -5.920  93.582 119.437  0.00  0.00    -0.047 C 
ATOM      6  C   LIG d   1      -4.463  94.084 119.313  0.00  0.00     0.091 C 
ENDROOT
BRANCH   1   7
ATOM      7  O   LIG d   1      -2.396  93.749 118.040  0.00  0.00    -0.368 OA
BRANCH   7   8
ATOM      8  C   LIG d   1      -1.197  92.938 117.983  0.00  0.00     0.119 C 
BRANCH   8   9
ATOM      9  C   LIG d   1      -0.706  92.734 119.429  0.00  0.00     0.028 C 
ATOM     10  C   LIG d   1       0.010  93.976 119.987  0.00  0.00     0.006 C 
ENDBRANCH   8   9
BRANCH   8  11
ATOM     11  C   LIG d   1      -0.060  93.675 117.269  0.00  0.00     0.028 C 
ATOM     12  C   LIG d   1      -0.491  95.042 116.715  0.00  0.00     0.006 C 
ENDBRANCH   8  11
ENDBRANCH   7   8
ENDBRANCH   1   7
BRANCH   6  13
ATOM     13  N   LIG d   1      -3.823  94.298 120.637  0.00  0.00    -0.311 N 
ATOM     14  C   LIG d   1      -3.184  95.418 120.970  0.00  0.00     0.210 C 
ATOM     15  C   LIG d   1      -2.580  95.424 122.378  0.00  0.00     0.109 C 
ATOM     16  O   LIG d   1      -3.088  96.420 120.245  0.00  0.00    -0.276 OA
ATOM     17  H   LIG d   1      -3.880  93.548 121.298  0.00  0.00     0.149 HD
ENDBRANCH   6  13
BRANCH   5  18
ATOM     18  N   LIG d   1      -6.816  94.560 120.082  0.00  0.00     0.381 N 
ATOM     19  H   LIG d   1      -6.613  94.611 121.060  0.00  0.00    -0.090 HD
ATOM     20  H   LIG d   1      -7.766  94.251 119.973  0.00  0.00    -0.090 HD
ATOM     21  H   LIG d   1      -6.700  95.456 119.664  0.00  0.00    -0.090 HD
ENDBRANCH   5  18
BRANCH   3  22
ATOM     22  C   LIG d   1      -6.220  91.663 116.315  0.00  0.00     0.382 C 
ATOM     23  O   LIG d   1      -5.563  90.722 115.808  0.00  0.00    -0.241 OA
ATOM     24  O   LIG d   1      -7.383  91.879 115.923  0.00  0.00    -0.241 OA
ENDBRANCH   3  22
TORSDOF 7
ENDMDL
MODEL 5
REMARK VINA RESULT:      -4.3      2.536      5.464
REMARK  7 active torsions:
REMARK  status: ('A' for Active; 'I' for Inactive)
REMARK    1  A    between atoms: C_2  and  C_3 
REMARK    2  A    between atoms: C_3  and  O_6 
REMARK    3  A    between atoms: C_3  and  C_4 
REMARK    4  A    between atoms: C_7  and  O_6 
REMARK    5  A    between atoms: C_9  and  C_10 
REMARK    6  A    between atoms: N_15  and  C_14 
REMARK    7  A    between atoms: N_20  and  C_19 
REMARK       I    between atoms: C_22  and  N_20 
ROOT
ATOM      1  C   LIG d   1      -6.626  77.236 117.926  0.00  0.00     0.161 C 
ATOM      2  C   LIG d   1      -7.103  76.054 117.336  0.00  0.00     0.016 C 
ATOM      3  C   LIG d   1      -8.451  75.633 117.417  0.00  0.00     0.038 C 
ATOM      4  C   LIG d   1      -9.450  76.448 117.970  0.00  0.00     0.028 C 
ATOM      5  C   LIG d   1      -8.926  77.419 119.023  0.00  0.00    -0.047 C 
ATOM      6  C   LIG d   1      -7.723  78.193 118.438  0.00  0.00     0.091 C 
ENDROOT
BRANCH   1   7
ATOM      7  O   LIG d   1      -5.751  77.922 117.008  0.00  0.00    -0.368 OA
BRANCH   7   8
ATOM      8  C   LIG d   1      -4.345  77.933 117.355  0.00  0.00     0.119 C 
BRANCH   8   9
ATOM      9  C   LIG d   1      -3.907  79.406 117.466  0.00  0.00     0.028 C 
ATOM     10  C   LIG d   1      -3.234  79.718 118.813  0.00  0.00     0.006 C 
ENDBRANCH   8   9
BRANCH   8  11
ATOM     11  C   LIG d   1      -3.489  77.338 116.232  0.00  0.00     0.028 C 
ATOM     12  C   LIG d   1      -3.485  75.802 116.236  0.00  0.00     0.006 C 
ENDBRANCH   8  11
ENDBRANCH   7   8
ENDBRANCH   1   7
BRANCH   6  13
ATOM     13  N   LIG d   1      -7.098  79.104 119.431  0.00  0.00    -0.311 N 
ATOM     14  C   LIG d   1      -6.967  80.416 119.243  0.00  0.00     0.210 C 
ATOM     15  C   LIG d   1      -6.276  81.168 120.384  0.00  0.00     0.109 C 
ATOM     16  O   LIG d   1      -7.388  81.033 118.252  0.00  0.00    -0.276 OA
ATOM     17  H   LIG d   1      -6.757  78.691 120.278  0.00  0.00     0.149 HD
ENDBRANCH   6  13
BRANCH   5  18
ATOM     18  N   LIG d   1     -10.045  78.298 119.414  0.00  0.00     0.381 N 
ATOM     19  H   LIG d   1      -9.734  78.957 120.100  0.00  0.00    -0.090 HD
ATOM     20  H   LIG d   1     -10.772  77.737 119.822  0.00  0.00    -0.090 HD
ATOM     21  H   LIG d   1     -10.395  78.779 118.615  0.00  0.00    -0.090 HD
ENDBRANCH   5  18
BRANCH   3  22
ATOM     22  C   LIG d   1      -8.802  74.366 116.977  0.00  0.00     0.382 C 
ATOM     23  O   LIG d   1      -9.969  73.942 117.157  0.00  0.00    -0.241 OA
ATOM     24  O   LIG d   1      -7.955  73.625 116.443  0.00  0.00    -0.241 OA
ENDBRANCH   3  22
TORSDOF 7
ENDMDL
MODEL 6
REMARK VINA RESULT:      -4.3     22.005     24.833
REMARK  7 active torsions:
REMARK  status: ('A' for Active; 'I' for Inactive)
REMARK    1  A    between atoms: C_2  and  C_3 
REMARK    2  A    between atoms: C_3  and  O_6 
REMARK    3  A    between atoms: C_3  and  C_4 
REMARK    4  A    between atoms: C_7  and  O_6 
REMARK    5  A    between atoms: C_9  and  C_10 
REMARK    6  A    between atoms: N_15  and  C_14 
REMARK    7  A    between atoms: N_20  and  C_19 
REMARK       I    between atoms: C_22  and  N_20 
ROOT
ATOM      1  C   LIG d   1       2.056  57.840 117.896  0.00  0.00     0.161 C 
ATOM      2  C   LIG d   1       1.100  56.823 118.056  0.00  0.00     0.016 C 
ATOM      3  C   LIG d   1       1.427  55.498 118.426  0.00  0.00     0.038 C 
ATOM      4  C   LIG d   1       2.727  55.135 118.810  0.00  0.00     0.028 C 
ATOM      5  C   LIG d   1       3.810  56.003 118.178  0.00  0.00    -0.047 C 
ATOM      6  C   LIG d   1       3.465  57.490 118.419  0.00  0.00     0.091 C 
ENDROOT
BRANCH   1   7
ATOM      7  O   LIG d   1       1.583  59.056 118.507  0.00  0.00    -0.368 OA
BRANCH   7   8
ATOM      8  C   LIG d   1       0.827  58.902 119.733  0.00  0.00     0.119 C 
BRANCH   8   9
ATOM      9  C   LIG d   1      -0.418  59.803 119.626  0.00  0.00     0.028 C 
ATOM     10  C   LIG d   1      -1.648  59.189 120.316  0.00  0.00     0.006 C 
ENDBRANCH   8   9
BRANCH   8  11
ATOM     11  C   LIG d   1       1.608  59.430 120.940  0.00  0.00     0.028 C 
ATOM     12  C   LIG d   1       2.191  58.306 121.811  0.00  0.00     0.006 C 
ENDBRANCH   8  11
ENDBRANCH   7   8
ENDBRANCH   1   7
BRANCH   6  13
ATOM     13  N   LIG d   1       4.430  58.409 117.760  0.00  0.00    -0.311 N 
ATOM     14  C   LIG d   1       5.539  58.854 118.350  0.00  0.00     0.210 C 
ATOM     15  C   LIG d   1       6.384  59.809 117.501  0.00  0.00     0.109 C 
ATOM     16  O   LIG d   1       5.918  58.523 119.483  0.00  0.00    -0.276 OA
ATOM     17  H   LIG d   1       4.216  58.704 116.828  0.00  0.00     0.149 HD
ENDBRANCH   6  13
BRANCH   5  18
ATOM     18  N   LIG d   1       5.101  55.605 118.770  0.00  0.00     0.381 N 
ATOM     19  H   LIG d   1       5.351  56.244 119.497  0.00  0.00    -0.090 HD
ATOM     20  H   LIG d   1       5.810  55.643 118.059  0.00  0.00    -0.090 HD
ATOM     21  H   LIG d   1       5.038  54.681 119.137  0.00  0.00    -0.090 HD
ENDBRANCH   5  18
BRANCH   3  22
ATOM     22  C   LIG d   1       0.455  54.510 118.375  0.00  0.00     0.382 C 
ATOM     23  O   LIG d   1       0.300  53.733 119.347  0.00  0.00    -0.241 OA
ATOM     24  O   LIG d   1      -0.238  54.359 117.351  0.00  0.00    -0.241 OA
ENDBRANCH   3  22
TORSDOF 7
ENDMDL
MODEL 7
REMARK VINA RESULT:      -4.2      2.354      4.838
REMARK  7 active torsions:
REMARK  status: ('A' for Active; 'I' for Inactive)
REMARK    1  A    between atoms: C_2  and  C_3 
REMARK    2  A    between atoms: C_3  and  O_6 
REMARK    3  A    between atoms: C_3  and  C_4 
REMARK    4  A    between atoms: C_7  and  O_6 
REMARK    5  A    between atoms: C_9  and  C_10 
REMARK    6  A    between atoms: N_15  and  C_14 
REMARK    7  A    between atoms: N_20  and  C_19 
REMARK       I    between atoms: C_22  and  N_20 
ROOT
ATOM      1  C   LIG d   1      -7.029  77.791 118.521  0.00  0.00     0.161 C 
ATOM      2  C   LIG d   1      -7.434  76.635 117.833  0.00  0.00     0.016 C 
ATOM      3  C   LIG d   1      -8.760  76.146 117.847  0.00  0.00     0.038 C 
ATOM      4  C   LIG d   1      -9.811  76.869 118.430  0.00  0.00     0.028 C 
ATOM      5  C   LIG d   1      -9.361  77.782 119.565  0.00  0.00    -0.047 C 
ATOM      6  C   LIG d   1      -8.184  78.654 119.071  0.00  0.00     0.091 C 
ENDROOT
BRANCH   1   7
ATOM      7  O   LIG d   1      -6.168  78.584 117.680  0.00  0.00    -0.368 OA
BRANCH   7   8
ATOM      8  C   LIG d   1      -4.744  78.396 117.869  0.00  0.00     0.119 C 
BRANCH   8   9
ATOM      9  C   LIG d   1      -4.538  77.801 119.275  0.00  0.00     0.028 C 
ATOM     10  C   LIG d   1      -3.334  76.846 119.338  0.00  0.00     0.006 C 
ENDBRANCH   8   9
BRANCH   8  11
ATOM     11  C   LIG d   1      -4.002  79.735 117.881  0.00  0.00     0.028 C 
ATOM     12  C   LIG d   1      -4.222  80.526 119.181  0.00  0.00     0.006 C 
ENDBRANCH   8  11
ENDBRANCH   7   8
ENDBRANCH   1   7
BRANCH   6  13
ATOM     13  N   LIG d   1      -7.628  79.517 120.145  0.00  0.00    -0.311 N 
ATOM     14  C   LIG d   1      -7.982  80.789 120.321  0.00  0.00     0.210 C 
ATOM     15  C   LIG d   1      -7.274  81.504 121.475  0.00  0.00     0.109 C 
ATOM     16  O   LIG d   1      -8.840  81.383 119.651  0.00  0.00    -0.276 OA
ATOM     17  H   LIG d   1      -6.948  79.106 120.755  0.00  0.00     0.149 HD
ENDBRANCH   6  13
BRANCH   5  18
ATOM     18  N   LIG d   1     -10.530  78.576 119.988  0.00  0.00     0.381 N 
ATOM     19  H   LIG d   1     -10.245  79.510 120.207  0.00  0.00    -0.090 HD
ATOM     20  H   LIG d   1     -10.920  78.164 120.817  0.00  0.00    -0.090 HD
ATOM     21  H   LIG d   1     -11.213  78.591 119.263  0.00  0.00    -0.090 HD
ENDBRANCH   5  18
BRANCH   3  22
ATOM     22  C   LIG d   1      -9.039  74.900 117.306  0.00  0.00     0.382 C 
ATOM     23  O   LIG d   1      -8.123  74.229 116.772  0.00  0.00    -0.241 OA
ATOM     24  O   LIG d   1     -10.203  74.457 117.305  0.00  0.00    -0.241 OA
ENDBRANCH   3  22
TORSDOF 7
ENDMDL
MODEL 8
REMARK VINA RESULT:      -4.1     12.767     15.614
REMARK  7 active torsions:
REMARK  status: ('A' for Active; 'I' for Inactive)
REMARK    1  A    between atoms: C_2  and  C_3 
REMARK    2  A    between atoms: C_3  and  O_6 
REMARK    3  A    between atoms: C_3  and  C_4 
REMARK    4  A    between atoms: C_7  and  O_6 
REMARK    5  A    between atoms: C_9  and  C_10 
REMARK    6  A    between atoms: N_15  and  C_14 
REMARK    7  A    between atoms: N_20  and  C_19 
REMARK       I    between atoms: C_22  and  N_20 
ROOT
ATOM      1  C   LIG d   1      -3.721  94.078 119.311  0.00  0.00     0.161 C 
ATOM      2  C   LIG d   1      -3.666  93.080 118.324  0.00  0.00     0.016 C 
ATOM      3  C   LIG d   1      -4.815  92.510 117.728  0.00  0.00     0.038 C 
ATOM      4  C   LIG d   1      -6.102  93.010 117.972  0.00  0.00     0.028 C 
ATOM      5  C   LIG d   1      -6.245  93.676 119.336  0.00  0.00    -0.047 C 
ATOM      6  C   LIG d   1      -5.113  94.714 119.509  0.00  0.00     0.091 C 
ENDROOT
BRANCH   1   7
ATOM      7  O   LIG d   1      -2.740  95.096 119.031  0.00  0.00    -0.368 OA
BRANCH   7   8
ATOM      8  C   LIG d   1      -1.354  94.675 119.081  0.00  0.00     0.119 C 
BRANCH   8   9
ATOM      9  C   LIG d   1      -0.805  95.051 120.471  0.00  0.00     0.028 C 
ATOM     10  C   LIG d   1       0.433  95.959 120.387  0.00  0.00     0.006 C 
ENDBRANCH   8   9
BRANCH   8  11
ATOM     11  C   LIG d   1      -0.498  95.459 118.081  0.00  0.00     0.028 C 
ATOM     12  C   LIG d   1      -0.673  94.970 116.635  0.00  0.00     0.006 C 
ENDBRANCH   8  11
ENDBRANCH   7   8
ENDBRANCH   1   7
BRANCH   6  13
ATOM     13  N   LIG d   1      -5.128  95.352 120.851  0.00  0.00    -0.311 N 
ATOM     14  C   LIG d   1      -5.743  96.505 121.108  0.00  0.00     0.210 C 
ATOM     15  C   LIG d   1      -5.619  96.996 122.554  0.00  0.00     0.109 C 
ATOM     16  O   LIG d   1      -6.406  97.152 120.283  0.00  0.00    -0.276 OA
ATOM     17  H   LIG d   1      -4.641  94.879 121.587  0.00  0.00     0.149 HD
ENDBRANCH   6  13
BRANCH   5  18
ATOM     18  N   LIG d   1      -7.592  94.273 119.403  0.00  0.00     0.381 N 
ATOM     19  H   LIG d   1      -8.152  93.772 120.064  0.00  0.00    -0.090 HD
ATOM     20  H   LIG d   1      -8.026  94.196 118.500  0.00  0.00    -0.090 HD
ATOM     21  H   LIG d   1      -7.528  95.231 119.668  0.00  0.00    -0.090 HD
ENDBRANCH   5  18
BRANCH   3  22
ATOM     22  C   LIG d   1      -4.684  91.400 116.907  0.00  0.00     0.382 C 
ATOM     23  O   LIG d   1      -5.456  91.249 115.929  0.00  0.00    -0.241 OA
ATOM     24  O   LIG d   1      -3.833  90.526 117.157  0.00  0.00    -0.241 OA
ENDBRANCH   3  22
TORSDOF 7
ENDMDL
MODEL 9
REMARK VINA RESULT:      -4.1     12.871     15.037
REMARK  7 active torsions:
REMARK  status: ('A' for Active; 'I' for Inactive)
REMARK    1  A    between atoms: C_2  and  C_3 
REMARK    2  A    between atoms: C_3  and  O_6 
REMARK    3  A    between atoms: C_3  and  C_4 
REMARK    4  A    between atoms: C_7  and  O_6 
REMARK    5  A    between atoms: C_9  and  C_10 
REMARK    6  A    between atoms: N_15  and  C_14 
REMARK    7  A    between atoms: N_20  and  C_19 
REMARK       I    between atoms: C_22  and  N_20 
ROOT
ATOM      1  C   LIG d   1      -5.548  94.159 119.556  0.00  0.00     0.161 C 
ATOM      2  C   LIG d   1      -4.451  93.395 119.123  0.00  0.00     0.016 C 
ATOM      3  C   LIG d   1      -4.506  92.511 118.021  0.00  0.00     0.038 C 
ATOM      4  C   LIG d   1      -5.625  92.444 117.179  0.00  0.00     0.028 C 
ATOM      5  C   LIG d   1      -6.929  92.822 117.874  0.00  0.00    -0.047 C 
ATOM      6  C   LIG d   1      -6.744  94.183 118.582  0.00  0.00     0.091 C 
ENDROOT
BRANCH   1   7
ATOM      7  O   LIG d   1      -5.119  95.502 119.856  0.00  0.00    -0.368 OA
BRANCH   7   8
ATOM      8  C   LIG d   1      -5.048  95.850 121.261  0.00  0.00     0.119 C 
BRANCH   8   9
ATOM      9  C   LIG d   1      -5.677  97.247 121.425  0.00  0.00     0.028 C 
ATOM     10  C   LIG d   1      -5.998  97.908 120.074  0.00  0.00     0.006 C 
ENDBRANCH   8   9
BRANCH   8  11
ATOM     11  C   LIG d   1      -3.596  96.002 121.725  0.00  0.00     0.028 C 
ATOM     12  C   LIG d   1      -2.638  96.356 120.577  0.00  0.00     0.006 C 
ENDBRANCH   8  11
ENDBRANCH   7   8
ENDBRANCH   1   7
BRANCH   6  13
ATOM     13  N   LIG d   1      -7.947  94.587 119.357  0.00  0.00    -0.311 N 
ATOM     14  C   LIG d   1      -8.696  95.645 119.050  0.00  0.00     0.210 C 
ATOM     15  C   LIG d   1      -9.878  95.895 119.991  0.00  0.00     0.109 C 
ATOM     16  O   LIG d   1      -8.512  96.380 118.068  0.00  0.00    -0.276 OA
ATOM     17  H   LIG d   1      -8.187  94.027 120.152  0.00  0.00     0.149 HD
ENDBRANCH   6  13
BRANCH   5  18
ATOM     18  N   LIG d   1      -7.990  92.844 116.849  0.00  0.00     0.381 N 
ATOM     19  H   LIG d   1      -7.992  91.979 116.345  0.00  0.00    -0.090 HD
ATOM     20  H   LIG d   1      -7.800  93.587 116.200  0.00  0.00    -0.090 HD
ATOM     21  H   LIG d   1      -8.877  92.987 117.279  0.00  0.00    -0.090 HD
ENDBRANCH   5  18
BRANCH   3  22
ATOM     22  C   LIG d   1      -3.445  91.652 117.777  0.00  0.00     0.382 C 
ATOM     23  O   LIG d   1      -3.660  90.509 117.306  0.00  0.00    -0.241 OA
ATOM     24  O   LIG d   1      -2.280  91.989 118.061  0.00  0.00    -0.241 OA
ENDBRANCH   3  22
TORSDOF 7
ENDMDL
