MODEL 1
REMARK VINA RESULT:      -5.8      0.000      0.000
REMARK  7 active torsions:
REMARK  status: ('A' for Active; 'I' for Inactive)
REMARK    1  A    between atoms: C_2  and  C_3 
REMARK    2  A    between atoms: C_3  and  O_6 
REMARK    3  A    between atoms: C_3  and  C_4 
REMARK    4  A    between atoms: C_7  and  O_6 
REMARK    5  A    between atoms: C_9  and  C_10 
REMARK    6  A    between atoms: N_15  and  C_14 
REMARK    7  A    between atoms: N_20  and  C_19 
REMARK       I    between atoms: C_22  and  N_20 
ROOT
ATOM      1  C   LIG d   1      -7.712  74.963 118.693  0.00  0.00     0.161 C 
ATOM      2  C   LIG d   1      -7.531  73.747 118.013  0.00  0.00     0.016 C 
ATOM      3  C   LIG d   1      -8.500  73.187 117.149  0.00  0.00     0.038 C 
ATOM      4  C   LIG d   1      -9.662  73.884 116.786  0.00  0.00     0.028 C 
ATOM      5  C   LIG d   1     -10.120  74.887 117.840  0.00  0.00    -0.047 C 
ATOM      6  C   LIG d   1      -8.926  75.792 118.223  0.00  0.00     0.091 C 
ENDROOT
BRANCH   1   7
ATOM      7  O   LIG d   1      -6.508  75.751 118.615  0.00  0.00    -0.368 OA
BRANCH   7   8
ATOM      8  C   LIG d   1      -5.710  75.578 117.418  0.00  0.00     0.119 C 
BRANCH   8   9
ATOM      9  C   LIG d   1      -4.247  75.381 117.861  0.00  0.00     0.028 C 
ATOM     10  C   LIG d   1      -3.639  74.078 117.316  0.00  0.00     0.006 C 
ENDBRANCH   8   9
BRANCH   8  11
ATOM     11  C   LIG d   1      -5.706  76.849 116.562  0.00  0.00     0.028 C 
ATOM     12  C   LIG d   1      -6.158  78.093 117.342  0.00  0.00     0.006 C 
ENDBRANCH   8  11
ENDBRANCH   7   8
ENDBRANCH   1   7
BRANCH   6  13
ATOM     13  N   LIG d   1      -9.266  76.747 119.310  0.00  0.00    -0.311 N 
ATOM     14  C   LIG d   1      -9.743  77.971 119.088  0.00  0.00     0.210 C 
ATOM     15  C   LIG d   1     -10.007  78.800 120.348  0.00  0.00     0.109 C 
ATOM     16  O   LIG d   1     -10.003  78.436 117.968  0.00  0.00    -0.276 OA
ATOM     17  H   LIG d   1      -9.115  76.440 120.251  0.00  0.00     0.149 HD
ENDBRANCH   6  13
BRANCH   5  18
ATOM     18  N   LIG d   1     -11.257  75.639 117.275  0.00  0.00     0.381 N 
ATOM     19  H   LIG d   1     -11.516  75.248 116.392  0.00  0.00    -0.090 HD
ATOM     20  H   LIG d   1     -10.975  76.592 117.128  0.00  0.00    -0.090 HD
ATOM     21  H   LIG d   1     -12.031  75.606 117.901  0.00  0.00    -0.090 HD
ENDBRANCH   5  18
BRANCH   3  22
ATOM     22  C   LIG d   1      -8.329  71.897 116.669  0.00  0.00     0.382 C 
ATOM     23  O   LIG d   1      -7.356  71.629 115.924  0.00  0.00    -0.241 OA
ATOM     24  O   LIG d   1      -9.160  71.009 116.936  0.00  0.00    -0.241 OA
ENDBRANCH   3  22
TORSDOF 7
ENDMDL
MODEL 2
REMARK VINA RESULT:      -5.6      2.358      5.822
REMARK  7 active torsions:
REMARK  status: ('A' for Active; 'I' for Inactive)
REMARK    1  A    between atoms: C_2  and  C_3 
REMARK    2  A    between atoms: C_3  and  O_6 
REMARK    3  A    between atoms: C_3  and  C_4 
REMARK    4  A    between atoms: C_7  and  O_6 
REMARK    5  A    between atoms: C_9  and  C_10 
REMARK    6  A    between atoms: N_15  and  C_14 
REMARK    7  A    between atoms: N_20  and  C_19 
REMARK       I    between atoms: C_22  and  N_20 
ROOT
ATOM      1  C   LIG d   1      -7.190  75.422 118.846  0.00  0.00     0.161 C 
ATOM      2  C   LIG d   1      -8.279  76.296 119.001  0.00  0.00     0.016 C 
ATOM      3  C   LIG d   1      -8.290  77.621 118.507  0.00  0.00     0.038 C 
ATOM      4  C   LIG d   1      -7.264  78.115 117.688  0.00  0.00     0.028 C 
ATOM      5  C   LIG d   1      -5.919  77.439 117.928  0.00  0.00    -0.047 C 
ATOM      6  C   LIG d   1      -6.108  75.907 117.859  0.00  0.00     0.091 C 
ENDROOT
BRANCH   1   7
ATOM      7  O   LIG d   1      -7.663  74.114 118.468  0.00  0.00    -0.368 OA
BRANCH   7   8
ATOM      8  C   LIG d   1      -7.969  73.928 117.064  0.00  0.00     0.119 C 
BRANCH   8   9
ATOM      9  C   LIG d   1      -9.464  73.571 116.959  0.00  0.00     0.028 C 
ATOM     10  C   LIG d   1     -10.306  74.730 116.401  0.00  0.00     0.006 C 
ENDBRANCH   8   9
BRANCH   8  11
ATOM     11  C   LIG d   1      -7.222  72.722 116.487  0.00  0.00     0.028 C 
ATOM     12  C   LIG d   1      -7.881  71.382 116.853  0.00  0.00     0.006 C 
ENDBRANCH   8  11
ENDBRANCH   7   8
ENDBRANCH   1   7
BRANCH   6  13
ATOM     13  N   LIG d   1      -4.856  75.167 118.166  0.00  0.00    -0.311 N 
ATOM     14  C   LIG d   1      -4.040  74.685 117.229  0.00  0.00     0.210 C 
ATOM     15  C   LIG d   1      -2.814  73.937 117.762  0.00  0.00     0.109 C 
ATOM     16  O   LIG d   1      -4.199  74.835 116.008  0.00  0.00    -0.276 OA
ATOM     17  H   LIG d   1      -4.633  75.028 119.132  0.00  0.00     0.149 HD
ENDBRANCH   6  13
BRANCH   5  18
ATOM     18  N   LIG d   1      -4.976  77.952 116.915  0.00  0.00     0.381 N 
ATOM     19  H   LIG d   1      -4.420  77.200 116.559  0.00  0.00    -0.090 HD
ATOM     20  H   LIG d   1      -4.363  78.618 117.350  0.00  0.00    -0.090 HD
ATOM     21  H   LIG d   1      -5.477  78.386 116.171  0.00  0.00    -0.090 HD
ENDBRANCH   5  18
BRANCH   3  22
ATOM     22  C   LIG d   1      -9.318  78.480 118.866  0.00  0.00     0.382 C 
ATOM     23  O   LIG d   1     -10.358  78.540 118.167  0.00  0.00    -0.241 OA
ATOM     24  O   LIG d   1      -9.200  79.227 119.856  0.00  0.00    -0.241 OA
ENDBRANCH   3  22
TORSDOF 7
ENDMDL
MODEL 3
REMARK VINA RESULT:      -5.6      2.206      4.483
REMARK  7 active torsions:
REMARK  status: ('A' for Active; 'I' for Inactive)
REMARK    1  A    between atoms: C_2  and  C_3 
REMARK    2  A    between atoms: C_3  and  O_6 
REMARK    3  A    between atoms: C_3  and  C_4 
REMARK    4  A    between atoms: C_7  and  O_6 
REMARK    5  A    between atoms: C_9  and  C_10 
REMARK    6  A    between atoms: N_15  and  C_14 
REMARK    7  A    between atoms: N_20  and  C_19 
REMARK       I    between atoms: C_22  and  N_20 
ROOT
ATOM      1  C   LIG d   1      -6.570  75.386 116.483  0.00  0.00     0.161 C 
ATOM      2  C   LIG d   1      -5.355  74.703 116.307  0.00  0.00     0.016 C 
ATOM      3  C   LIG d   1      -4.296  74.745 117.243  0.00  0.00     0.038 C 
ATOM      4  C   LIG d   1      -4.440  75.354 118.499  0.00  0.00     0.028 C 
ATOM      5  C   LIG d   1      -5.466  76.482 118.510  0.00  0.00    -0.047 C 
ATOM      6  C   LIG d   1      -6.787  75.965 117.897  0.00  0.00     0.091 C 
ENDROOT
BRANCH   1   7
ATOM      7  O   LIG d   1      -7.670  74.528 116.119  0.00  0.00    -0.368 OA
BRANCH   7   8
ATOM      8  C   LIG d   1      -8.272  73.771 117.197  0.00  0.00     0.119 C 
BRANCH   8   9
ATOM      9  C   LIG d   1      -7.653  72.360 117.173  0.00  0.00     0.028 C 
ATOM     10  C   LIG d   1      -8.707  71.260 116.959  0.00  0.00     0.006 C 
ENDBRANCH   8   9
BRANCH   8  11
ATOM     11  C   LIG d   1      -9.771  73.561 116.961  0.00  0.00     0.028 C 
ATOM     12  C   LIG d   1     -10.497  74.853 116.557  0.00  0.00     0.006 C 
ENDBRANCH   8  11
ENDBRANCH   7   8
ENDBRANCH   1   7
BRANCH   6  13
ATOM     13  N   LIG d   1      -7.819  77.030 117.793  0.00  0.00    -0.311 N 
ATOM     14  C   LIG d   1      -8.770  77.221 118.707  0.00  0.00     0.210 C 
ATOM     15  C   LIG d   1      -9.745  78.361 118.396  0.00  0.00     0.109 C 
ATOM     16  O   LIG d   1      -8.879  76.575 119.760  0.00  0.00    -0.276 OA
ATOM     17  H   LIG d   1      -7.786  77.620 116.985  0.00  0.00     0.149 HD
ENDBRANCH   6  13
BRANCH   5  18
ATOM     18  N   LIG d   1      -5.615  76.934 119.907  0.00  0.00     0.381 N 
ATOM     19  H   LIG d   1      -5.639  76.143 120.518  0.00  0.00    -0.090 HD
ATOM     20  H   LIG d   1      -6.485  77.429 119.997  0.00  0.00    -0.090 HD
ATOM     21  H   LIG d   1      -4.857  77.532 120.154  0.00  0.00    -0.090 HD
ENDBRANCH   5  18
BRANCH   3  22
ATOM     22  C   LIG d   1      -3.063  74.206 116.910  0.00  0.00     0.382 C 
ATOM     23  O   LIG d   1      -2.536  74.481 115.805  0.00  0.00    -0.241 OA
ATOM     24  O   LIG d   1      -2.491  73.413 117.681  0.00  0.00    -0.241 OA
ENDBRANCH   3  22
TORSDOF 7
ENDMDL
MODEL 4
REMARK VINA RESULT:      -5.4      2.459      4.701
REMARK  7 active torsions:
REMARK  status: ('A' for Active; 'I' for Inactive)
REMARK    1  A    between atoms: C_2  and  C_3 
REMARK    2  A    between atoms: C_3  and  O_6 
REMARK    3  A    between atoms: C_3  and  C_4 
REMARK    4  A    between atoms: C_7  and  O_6 
REMARK    5  A    between atoms: C_9  and  C_10 
REMARK    6  A    between atoms: N_15  and  C_14 
REMARK    7  A    between atoms: N_20  and  C_19 
REMARK       I    between atoms: C_22  and  N_20 
ROOT
ATOM      1  C   LIG d   1      -7.356  75.615 116.563  0.00  0.00     0.161 C 
ATOM      2  C   LIG d   1      -8.221  74.515 116.685  0.00  0.00     0.016 C 
ATOM      3  C   LIG d   1      -7.782  73.214 117.023  0.00  0.00     0.038 C 
ATOM      4  C   LIG d   1      -6.459  72.955 117.411  0.00  0.00     0.028 C 
ATOM      5  C   LIG d   1      -5.451  73.931 116.814  0.00  0.00    -0.047 C 
ATOM      6  C   LIG d   1      -5.926  75.375 117.091  0.00  0.00     0.091 C 
ENDROOT
BRANCH   1   7
ATOM      7  O   LIG d   1      -7.939  76.768 117.201  0.00  0.00    -0.368 OA
BRANCH   7   8
ATOM      8  C   LIG d   1      -8.743  76.507 118.378  0.00  0.00     0.119 C 
BRANCH   8   9
ATOM      9  C   LIG d   1     -10.085  77.242 118.194  0.00  0.00     0.028 C 
ATOM     10  C   LIG d   1     -11.280  76.276 118.132  0.00  0.00     0.006 C 
ENDBRANCH   8   9
BRANCH   8  11
ATOM     11  C   LIG d   1      -8.113  77.121 119.631  0.00  0.00     0.028 C 
ATOM     12  C   LIG d   1      -8.155  76.177 120.843  0.00  0.00     0.006 C 
ENDBRANCH   8  11
ENDBRANCH   7   8
ENDBRANCH   1   7
BRANCH   6  13
ATOM     13  N   LIG d   1      -5.040  76.393 116.468  0.00  0.00    -0.311 N 
ATOM     14  C   LIG d   1      -3.999  76.940 117.093  0.00  0.00     0.210 C 
ATOM     15  C   LIG d   1      -3.230  77.983 116.277  0.00  0.00     0.109 C 
ATOM     16  O   LIG d   1      -3.620  76.636 118.235  0.00  0.00    -0.276 OA
ATOM     17  H   LIG d   1      -5.256  76.674 115.532  0.00  0.00     0.149 HD
ENDBRANCH   6  13
BRANCH   5  18
ATOM     18  N   LIG d   1      -4.135  73.631 117.409  0.00  0.00     0.381 N 
ATOM     19  H   LIG d   1      -4.063  74.063 118.308  0.00  0.00    -0.090 HD
ATOM     20  H   LIG d   1      -3.417  74.011 116.818  0.00  0.00    -0.090 HD
ATOM     21  H   LIG d   1      -4.016  72.645 117.496  0.00  0.00    -0.090 HD
ENDBRANCH   5  18
BRANCH   3  22
ATOM     22  C   LIG d   1      -8.664  72.147 116.935  0.00  0.00     0.382 C 
ATOM     23  O   LIG d   1      -9.896  72.359 116.833  0.00  0.00    -0.241 OA
ATOM     24  O   LIG d   1      -8.246  70.975 117.001  0.00  0.00    -0.241 OA
ENDBRANCH   3  22
TORSDOF 7
ENDMDL
MODEL 5
REMARK VINA RESULT:      -5.3      1.779      4.850
REMARK  7 active torsions:
REMARK  status: ('A' for Active; 'I' for Inactive)
REMARK    1  A    between atoms: C_2  and  C_3 
REMARK    2  A    between atoms: C_3  and  O_6 
REMARK    3  A    between atoms: C_3  and  C_4 
REMARK    4  A    between atoms: C_7  and  O_6 
REMARK    5  A    between atoms: C_9  and  C_10 
REMARK    6  A    between atoms: N_15  and  C_14 
REMARK    7  A    between atoms: N_20  and  C_19 
REMARK       I    between atoms: C_22  and  N_20 
ROOT
ATOM      1  C   LIG d   1      -7.090  76.282 117.279  0.00  0.00     0.161 C 
ATOM      2  C   LIG d   1      -7.468  77.599 117.589  0.00  0.00     0.016 C 
ATOM      3  C   LIG d   1      -8.797  77.979 117.885  0.00  0.00     0.038 C 
ATOM      4  C   LIG d   1      -9.821  77.032 118.041  0.00  0.00     0.028 C 
ATOM      5  C   LIG d   1      -9.590  75.754 117.243  0.00  0.00    -0.047 C 
ATOM      6  C   LIG d   1      -8.174  75.218 117.552  0.00  0.00     0.091 C 
ENDROOT
BRANCH   1   7
ATOM      7  O   LIG d   1      -5.872  75.947 117.973  0.00  0.00    -0.368 OA
BRANCH   7   8
ATOM      8  C   LIG d   1      -4.643  76.136 117.230  0.00  0.00     0.119 C 
BRANCH   8   9
ATOM      9  C   LIG d   1      -4.222  74.761 116.675  0.00  0.00     0.028 C 
ATOM     10  C   LIG d   1      -3.199  74.052 117.579  0.00  0.00     0.006 C 
ENDBRANCH   8   9
BRANCH   8  11
ATOM     11  C   LIG d   1      -3.497  76.571 118.148  0.00  0.00     0.028 C 
ATOM     12  C   LIG d   1      -2.823  77.872 117.685  0.00  0.00     0.006 C 
ENDBRANCH   8  11
ENDBRANCH   7   8
ENDBRANCH   1   7
BRANCH   6  13
ATOM     13  N   LIG d   1      -7.834  74.014 116.749  0.00  0.00    -0.311 N 
ATOM     14  C   LIG d   1      -7.324  72.902 117.274  0.00  0.00     0.210 C 
ATOM     15  C   LIG d   1      -7.029  71.787 116.266  0.00  0.00     0.109 C 
ATOM     16  O   LIG d   1      -7.118  72.721 118.484  0.00  0.00    -0.276 OA
ATOM     17  H   LIG d   1      -7.999  74.063 115.763  0.00  0.00     0.149 HD
ENDBRANCH   6  13
BRANCH   5  18
ATOM     18  N   LIG d   1     -10.659  74.804 117.604  0.00  0.00     0.381 N 
ATOM     19  H   LIG d   1     -11.055  75.058 118.487  0.00  0.00    -0.090 HD
ATOM     20  H   LIG d   1     -10.262  73.884 117.689  0.00  0.00    -0.090 HD
ATOM     21  H   LIG d   1     -11.367  74.804 116.902  0.00  0.00    -0.090 HD
ENDBRANCH   5  18
BRANCH   3  22
ATOM     22  C   LIG d   1      -9.121  79.323 117.990  0.00  0.00     0.382 C 
ATOM     23  O   LIG d   1     -10.272  79.664 118.357  0.00  0.00    -0.241 OA
ATOM     24  O   LIG d   1      -8.292  80.199 117.680  0.00  0.00    -0.241 OA
ENDBRANCH   3  22
TORSDOF 7
ENDMDL
MODEL 6
REMARK VINA RESULT:      -5.2      2.008      5.027
REMARK  7 active torsions:
REMARK  status: ('A' for Active; 'I' for Inactive)
REMARK    1  A    between atoms: C_2  and  C_3 
REMARK    2  A    between atoms: C_3  and  O_6 
REMARK    3  A    between atoms: C_3  and  C_4 
REMARK    4  A    between atoms: C_7  and  O_6 
REMARK    5  A    between atoms: C_9  and  C_10 
REMARK    6  A    between atoms: N_15  and  C_14 
REMARK    7  A    between atoms: N_20  and  C_19 
REMARK       I    between atoms: C_22  and  N_20 
ROOT
ATOM      1  C   LIG d   1      -7.087  76.117 117.596  0.00  0.00     0.161 C 
ATOM      2  C   LIG d   1      -7.486  77.436 117.866  0.00  0.00     0.016 C 
ATOM      3  C   LIG d   1      -8.839  77.839 117.942  0.00  0.00     0.038 C 
ATOM      4  C   LIG d   1      -9.892  76.913 117.902  0.00  0.00     0.028 C 
ATOM      5  C   LIG d   1      -9.554  75.644 117.128  0.00  0.00    -0.047 C 
ATOM      6  C   LIG d   1      -8.220  75.072 117.660  0.00  0.00     0.091 C 
ENDROOT
BRANCH   1   7
ATOM      7  O   LIG d   1      -6.010  75.743 118.478  0.00  0.00    -0.368 OA
BRANCH   7   8
ATOM      8  C   LIG d   1      -6.012  76.364 119.787  0.00  0.00     0.119 C 
BRANCH   8   9
ATOM      9  C   LIG d   1      -4.547  76.471 120.252  0.00  0.00     0.028 C 
ATOM     10  C   LIG d   1      -3.551  76.333 119.088  0.00  0.00     0.006 C 
ENDBRANCH   8   9
BRANCH   8  11
ATOM     11  C   LIG d   1      -6.703  75.474 120.825  0.00  0.00     0.028 C 
ATOM     12  C   LIG d   1      -8.067  76.025 121.269  0.00  0.00     0.006 C 
ENDBRANCH   8  11
ENDBRANCH   7   8
ENDBRANCH   1   7
BRANCH   6  13
ATOM     13  N   LIG d   1      -7.772  73.876 116.900  0.00  0.00    -0.311 N 
ATOM     14  C   LIG d   1      -7.269  72.786 117.478  0.00  0.00     0.210 C 
ATOM     15  C   LIG d   1      -6.851  71.675 116.509  0.00  0.00     0.109 C 
ATOM     16  O   LIG d   1      -7.159  72.621 118.702  0.00  0.00    -0.276 OA
ATOM     17  H   LIG d   1      -7.855  73.912 115.903  0.00  0.00     0.149 HD
ENDBRANCH   6  13
BRANCH   5  18
ATOM     18  N   LIG d   1     -10.686  74.711 117.283  0.00  0.00     0.381 N 
ATOM     19  H   LIG d   1     -11.098  74.827 118.187  0.00  0.00    -0.090 HD
ATOM     20  H   LIG d   1     -10.344  73.770 117.211  0.00  0.00    -0.090 HD
ATOM     21  H   LIG d   1     -11.367  74.881 116.576  0.00  0.00    -0.090 HD
ENDBRANCH   5  18
BRANCH   3  22
ATOM     22  C   LIG d   1      -9.151  79.188 118.019  0.00  0.00     0.382 C 
ATOM     23  O   LIG d   1     -10.301  79.547 118.370  0.00  0.00    -0.241 OA
ATOM     24  O   LIG d   1      -8.311  80.050 117.700  0.00  0.00    -0.241 OA
ENDBRANCH   3  22
TORSDOF 7
ENDMDL
MODEL 7
REMARK VINA RESULT:      -5.0      2.686      5.644
REMARK  7 active torsions:
REMARK  status: ('A' for Active; 'I' for Inactive)
REMARK    1  A    between atoms: C_2  and  C_3 
REMARK    2  A    between atoms: C_3  and  O_6 
REMARK    3  A    between atoms: C_3  and  C_4 
REMARK    4  A    between atoms: C_7  and  O_6 
REMARK    5  A    between atoms: C_9  and  C_10 
REMARK    6  A    between atoms: N_15  and  C_14 
REMARK    7  A    between atoms: N_20  and  C_19 
REMARK       I    between atoms: C_22  and  N_20 
ROOT
ATOM      1  C   LIG d   1      -9.101  77.073 118.529  0.00  0.00     0.161 C 
ATOM      2  C   LIG d   1     -10.345  77.222 119.164  0.00  0.00     0.016 C 
ATOM      3  C   LIG d   1     -10.672  78.326 119.985  0.00  0.00     0.038 C 
ATOM      4  C   LIG d   1      -9.825  79.438 120.104  0.00  0.00     0.028 C 
ATOM      5  C   LIG d   1      -8.353  79.104 119.887  0.00  0.00    -0.047 C 
ATOM      6  C   LIG d   1      -8.205  78.329 118.558  0.00  0.00     0.091 C 
ENDROOT
BRANCH   1   7
ATOM      7  O   LIG d   1      -9.296  76.628 117.172  0.00  0.00    -0.368 OA
BRANCH   7   8
ATOM      8  C   LIG d   1      -8.822  75.294 116.864  0.00  0.00     0.119 C 
BRANCH   8   9
ATOM      9  C   LIG d   1     -10.059  74.397 116.669  0.00  0.00     0.028 C 
ATOM     10  C   LIG d   1      -9.724  72.900 116.788  0.00  0.00     0.006 C 
ENDBRANCH   8   9
BRANCH   8  11
ATOM     11  C   LIG d   1      -8.063  74.686 118.047  0.00  0.00     0.028 C 
ATOM     12  C   LIG d   1      -6.591  74.387 117.721  0.00  0.00     0.006 C 
ENDBRANCH   8  11
ENDBRANCH   7   8
ENDBRANCH   1   7
BRANCH   6  13
ATOM     13  N   LIG d   1      -6.807  77.890 118.310  0.00  0.00    -0.311 N 
ATOM     14  C   LIG d   1      -5.947  78.573 117.557  0.00  0.00     0.210 C 
ATOM     15  C   LIG d   1      -4.562  77.933 117.416  0.00  0.00     0.109 C 
ATOM     16  O   LIG d   1      -6.189  79.664 117.019  0.00  0.00    -0.276 OA
ATOM     17  H   LIG d   1      -6.517  77.031 118.735  0.00  0.00     0.149 HD
ENDBRANCH   6  13
BRANCH   5  18
ATOM     18  N   LIG d   1      -7.601  80.373 119.904  0.00  0.00     0.381 N 
ATOM     19  H   LIG d   1      -7.624  80.792 118.996  0.00  0.00    -0.090 HD
ATOM     20  H   LIG d   1      -6.643  80.180 120.138  0.00  0.00    -0.090 HD
ATOM     21  H   LIG d   1      -7.995  80.994 120.575  0.00  0.00    -0.090 HD
ENDBRANCH   5  18
BRANCH   3  22
ATOM     22  C   LIG d   1     -11.843  78.307 120.728  0.00  0.00     0.382 C 
ATOM     23  O   LIG d   1     -12.590  77.300 120.695  0.00  0.00    -0.241 OA
ATOM     24  O   LIG d   1     -12.183  79.302 121.396  0.00  0.00    -0.241 OA
ENDBRANCH   3  22
TORSDOF 7
ENDMDL
MODEL 8
REMARK VINA RESULT:      -4.9     14.130     16.538
REMARK  7 active torsions:
REMARK  status: ('A' for Active; 'I' for Inactive)
REMARK    1  A    between atoms: C_2  and  C_3 
REMARK    2  A    between atoms: C_3  and  O_6 
REMARK    3  A    between atoms: C_3  and  C_4 
REMARK    4  A    between atoms: C_7  and  O_6 
REMARK    5  A    between atoms: C_9  and  C_10 
REMARK    6  A    between atoms: N_15  and  C_14 
REMARK    7  A    between atoms: N_20  and  C_19 
REMARK       I    between atoms: C_22  and  N_20 
ROOT
ATOM      1  C   LIG d   1      -2.403  89.685 117.896  0.00  0.00     0.161 C 
ATOM      2  C   LIG d   1      -3.703  89.502 117.396  0.00  0.00     0.016 C 
ATOM      3  C   LIG d   1      -4.560  90.571 117.045  0.00  0.00     0.038 C 
ATOM      4  C   LIG d   1      -4.116  91.901 117.028  0.00  0.00     0.028 C 
ATOM      5  C   LIG d   1      -2.977  92.173 118.005  0.00  0.00    -0.047 C 
ATOM      6  C   LIG d   1      -1.862  91.126 117.779  0.00  0.00     0.091 C 
ENDROOT
BRANCH   1   7
ATOM      7  O   LIG d   1      -1.500  88.759 117.261  0.00  0.00    -0.368 OA
BRANCH   7   8
ATOM      8  C   LIG d   1      -1.279  87.507 117.956  0.00  0.00     0.119 C 
BRANCH   8   9
ATOM      9  C   LIG d   1      -1.439  87.780 119.464  0.00  0.00     0.028 C 
ATOM     10  C   LIG d   1      -2.163  86.636 120.193  0.00  0.00     0.006 C 
ENDBRANCH   8   9
BRANCH   8  11
ATOM     11  C   LIG d   1       0.164  87.021 117.783  0.00  0.00     0.028 C 
ATOM     12  C   LIG d   1       1.199  88.133 118.015  0.00  0.00     0.006 C 
ENDBRANCH   8  11
ENDBRANCH   7   8
ENDBRANCH   1   7
BRANCH   6  13
ATOM     13  N   LIG d   1      -0.747  91.268 118.751  0.00  0.00    -0.311 N 
ATOM     14  C   LIG d   1       0.338  92.005 118.519  0.00  0.00     0.210 C 
ATOM     15  C   LIG d   1       1.377  91.999 119.645  0.00  0.00     0.109 C 
ATOM     16  O   LIG d   1       0.524  92.689 117.501  0.00  0.00    -0.276 OA
ATOM     17  H   LIG d   1      -0.829  90.771 119.616  0.00  0.00     0.149 HD
ENDBRANCH   6  13
BRANCH   5  18
ATOM     18  N   LIG d   1      -2.522  93.559 117.785  0.00  0.00     0.381 N 
ATOM     19  H   LIG d   1      -1.684  93.727 118.305  0.00  0.00    -0.090 HD
ATOM     20  H   LIG d   1      -3.231  94.190 118.116  0.00  0.00    -0.090 HD
ATOM     21  H   LIG d   1      -2.356  93.713 116.815  0.00  0.00    -0.090 HD
ENDBRANCH   5  18
BRANCH   3  22
ATOM     22  C   LIG d   1      -5.889  90.315 116.744  0.00  0.00     0.382 C 
ATOM     23  O   LIG d   1      -6.687  91.268 116.572  0.00  0.00    -0.241 OA
ATOM     24  O   LIG d   1      -6.310  89.144 116.686  0.00  0.00    -0.241 OA
ENDBRANCH   3  22
TORSDOF 7
ENDMDL
MODEL 9
REMARK VINA RESULT:      -4.9      2.597      6.046
REMARK  7 active torsions:
REMARK  status: ('A' for Active; 'I' for Inactive)
REMARK    1  A    between atoms: C_2  and  C_3 
REMARK    2  A    between atoms: C_3  and  O_6 
REMARK    3  A    between atoms: C_3  and  C_4 
REMARK    4  A    between atoms: C_7  and  O_6 
REMARK    5  A    between atoms: C_9  and  C_10 
REMARK    6  A    between atoms: N_15  and  C_14 
REMARK    7  A    between atoms: N_20  and  C_19 
REMARK       I    between atoms: C_22  and  N_20 
ROOT
ATOM      1  C   LIG d   1      -6.854  75.848 117.444  0.00  0.00     0.161 C 
ATOM      2  C   LIG d   1      -7.710  76.882 117.858  0.00  0.00     0.016 C 
ATOM      3  C   LIG d   1      -7.334  78.245 117.873  0.00  0.00     0.038 C 
ATOM      4  C   LIG d   1      -6.119  78.685 117.327  0.00  0.00     0.028 C 
ATOM      5  C   LIG d   1      -5.021  77.627 117.362  0.00  0.00    -0.047 C 
ATOM      6  C   LIG d   1      -5.564  76.320 116.740  0.00  0.00     0.091 C 
ENDROOT
BRANCH   1   7
ATOM      7  O   LIG d   1      -7.574  74.925 116.603  0.00  0.00    -0.368 OA
BRANCH   7   8
ATOM      8  C   LIG d   1      -8.359  73.918 117.288  0.00  0.00     0.119 C 
BRANCH   8   9
ATOM      9  C   LIG d   1      -7.759  72.543 116.934  0.00  0.00     0.028 C 
ATOM     10  C   LIG d   1      -8.828  71.441 116.849  0.00  0.00     0.006 C 
ENDBRANCH   8   9
BRANCH   8  11
ATOM     11  C   LIG d   1      -9.797  73.880 116.764  0.00  0.00     0.028 C 
ATOM     12  C   LIG d   1     -10.693  74.953 117.404  0.00  0.00     0.006 C 
ENDBRANCH   8  11
ENDBRANCH   7   8
ENDBRANCH   1   7
BRANCH   6  13
ATOM     13  N   LIG d   1      -4.581  75.208 116.811  0.00  0.00    -0.311 N 
ATOM     14  C   LIG d   1      -3.778  75.004 117.854  0.00  0.00     0.210 C 
ATOM     15  C   LIG d   1      -2.826  73.812 117.714  0.00  0.00     0.109 C 
ATOM     16  O   LIG d   1      -3.787  75.677 118.895  0.00  0.00    -0.276 OA
ATOM     17  H   LIG d   1      -4.529  74.594 116.022  0.00  0.00     0.149 HD
ENDBRANCH   6  13
BRANCH   5  18
ATOM     18  N   LIG d   1      -3.856  78.170 116.639  0.00  0.00     0.381 N 
ATOM     19  H   LIG d   1      -3.778  79.153 116.811  0.00  0.00    -0.090 HD
ATOM     20  H   LIG d   1      -3.992  78.033 115.653  0.00  0.00    -0.090 HD
ATOM     21  H   LIG d   1      -3.025  77.707 116.935  0.00  0.00    -0.090 HD
ENDBRANCH   5  18
BRANCH   3  22
ATOM     22  C   LIG d   1      -8.163  79.179 118.475  0.00  0.00     0.382 C 
ATOM     23  O   LIG d   1      -9.368  79.261 118.134  0.00  0.00    -0.241 OA
ATOM     24  O   LIG d   1      -7.710  79.972 119.322  0.00  0.00    -0.241 OA
ENDBRANCH   3  22
TORSDOF 7
ENDMDL
