MODEL 1
REMARK VINA RESULT:      -5.0      0.000      0.000
REMARK  7 active torsions:
REMARK  status: ('A' for Active; 'I' for Inactive)
REMARK    1  A    between atoms: C_2  and  C_3 
REMARK    2  A    between atoms: C_3  and  O_6 
REMARK    3  A    between atoms: C_3  and  C_4 
REMARK    4  A    between atoms: C_7  and  O_6 
REMARK    5  A    between atoms: C_9  and  C_10 
REMARK    6  A    between atoms: N_15  and  C_14 
REMARK    7  A    between atoms: N_20  and  C_19 
REMARK       I    between atoms: C_22  and  N_20 
ROOT
ATOM      1  C   LIG d   1      -5.870  93.593 118.636  0.00  0.00     0.161 C 
ATOM      2  C   LIG d   1      -6.600  92.536 118.067  0.00  0.00     0.016 C 
ATOM      3  C   LIG d   1      -5.996  91.428 117.430  0.00  0.00     0.038 C 
ATOM      4  C   LIG d   1      -4.608  91.226 117.453  0.00  0.00     0.028 C 
ATOM      5  C   LIG d   1      -3.809  92.519 117.574  0.00  0.00    -0.047 C 
ATOM      6  C   LIG d   1      -4.355  93.335 118.769  0.00  0.00     0.091 C 
ENDROOT
BRANCH   1   7
ATOM      7  O   LIG d   1      -6.433  93.941 119.917  0.00  0.00    -0.368 OA
BRANCH   7   8
ATOM      8  C   LIG d   1      -7.036  95.255 120.012  0.00  0.00     0.119 C 
BRANCH   8   9
ATOM      9  C   LIG d   1      -8.497  95.062 120.462  0.00  0.00     0.028 C 
ATOM     10  C   LIG d   1      -9.437  94.749 119.285  0.00  0.00     0.006 C 
ENDBRANCH   8   9
BRANCH   8  11
ATOM     11  C   LIG d   1      -7.120  95.931 118.641  0.00  0.00     0.028 C 
ATOM     12  C   LIG d   1      -6.441  97.310 118.613  0.00  0.00     0.006 C 
ENDBRANCH   8  11
ENDBRANCH   7   8
ENDBRANCH   1   7
BRANCH   6  13
ATOM     13  N   LIG d   1      -3.685  94.655 118.907  0.00  0.00    -0.311 N 
ATOM     14  C   LIG d   1      -3.153  95.091 120.048  0.00  0.00     0.210 C 
ATOM     15  C   LIG d   1      -2.528  96.488 119.977  0.00  0.00     0.109 C 
ATOM     16  O   LIG d   1      -3.111  94.440 121.103  0.00  0.00    -0.276 OA
ATOM     17  H   LIG d   1      -3.646  95.234 118.092  0.00  0.00     0.149 HD
ENDBRANCH   6  13
BRANCH   5  18
ATOM     18  N   LIG d   1      -2.388  92.153 117.725  0.00  0.00     0.381 N 
ATOM     19  H   LIG d   1      -1.847  92.597 117.011  0.00  0.00    -0.090 HD
ATOM     20  H   LIG d   1      -2.296  91.158 117.619  0.00  0.00    -0.090 HD
ATOM     21  H   LIG d   1      -2.058  92.431 118.623  0.00  0.00    -0.090 HD
ENDBRANCH   5  18
BRANCH   3  22
ATOM     22  C   LIG d   1      -6.781  90.528 116.727  0.00  0.00     0.382 C 
ATOM     23  O   LIG d   1      -7.983  90.361 117.046  0.00  0.00    -0.241 OA
ATOM     24  O   LIG d   1      -6.291  89.847 115.805  0.00  0.00    -0.241 OA
ENDBRANCH   3  22
TORSDOF 7
ENDMDL
MODEL 2
REMARK VINA RESULT:      -4.8     14.866     17.927
REMARK  7 active torsions:
REMARK  status: ('A' for Active; 'I' for Inactive)
REMARK    1  A    between atoms: C_2  and  C_3 
REMARK    2  A    between atoms: C_3  and  O_6 
REMARK    3  A    between atoms: C_3  and  C_4 
REMARK    4  A    between atoms: C_7  and  O_6 
REMARK    5  A    between atoms: C_9  and  C_10 
REMARK    6  A    between atoms: N_15  and  C_14 
REMARK    7  A    between atoms: N_20  and  C_19 
REMARK       I    between atoms: C_22  and  N_20 
ROOT
ATOM      1  C   LIG d   1      -4.500  76.479 116.180  0.00  0.00     0.161 C 
ATOM      2  C   LIG d   1      -3.552  75.446 116.097  0.00  0.00     0.016 C 
ATOM      3  C   LIG d   1      -2.553  75.225 117.073  0.00  0.00     0.038 C 
ATOM      4  C   LIG d   1      -2.529  75.936 118.282  0.00  0.00     0.028 C 
ATOM      5  C   LIG d   1      -3.155  77.322 118.182  0.00  0.00    -0.047 C 
ATOM      6  C   LIG d   1      -4.558  77.195 117.546  0.00  0.00     0.091 C 
ENDROOT
BRANCH   1   7
ATOM      7  O   LIG d   1      -5.802  75.978 115.821  0.00  0.00    -0.368 OA
BRANCH   7   8
ATOM      8  C   LIG d   1      -6.320  74.902 116.642  0.00  0.00     0.119 C 
BRANCH   8   9
ATOM      9  C   LIG d   1      -6.257  73.610 115.806  0.00  0.00     0.028 C 
ATOM     10  C   LIG d   1      -7.332  72.590 116.220  0.00  0.00     0.006 C 
ENDBRANCH   8   9
BRANCH   8  11
ATOM     11  C   LIG d   1      -7.804  75.108 116.960  0.00  0.00     0.028 C 
ATOM     12  C   LIG d   1      -8.270  76.553 116.717  0.00  0.00     0.006 C 
ENDBRANCH   8  11
ENDBRANCH   7   8
ENDBRANCH   1   7
BRANCH   6  13
ATOM     13  N   LIG d   1      -5.207  78.515 117.334  0.00  0.00    -0.311 N 
ATOM     14  C   LIG d   1      -6.094  79.039 118.178  0.00  0.00     0.210 C 
ATOM     15  C   LIG d   1      -6.657  80.401 117.761  0.00  0.00     0.109 C 
ATOM     16  O   LIG d   1      -6.445  78.520 119.249  0.00  0.00    -0.276 OA
ATOM     17  H   LIG d   1      -4.957  79.019 116.506  0.00  0.00     0.149 HD
ENDBRANCH   6  13
BRANCH   5  18
ATOM     18  N   LIG d   1      -3.187  77.896 119.541  0.00  0.00     0.381 N 
ATOM     19  H   LIG d   1      -2.266  77.895 119.931  0.00  0.00    -0.090 HD
ATOM     20  H   LIG d   1      -3.776  77.324 120.121  0.00  0.00    -0.090 HD
ATOM     21  H   LIG d   1      -3.542  78.826 119.511  0.00  0.00    -0.090 HD
ENDBRANCH   5  18
BRANCH   3  22
ATOM     22  C   LIG d   1      -1.540  74.311 116.825  0.00  0.00     0.382 C 
ATOM     23  O   LIG d   1      -1.305  73.397 117.651  0.00  0.00    -0.241 OA
ATOM     24  O   LIG d   1      -0.829  74.416 115.808  0.00  0.00    -0.241 OA
ENDBRANCH   3  22
TORSDOF 7
ENDMDL
MODEL 3
REMARK VINA RESULT:      -4.7      2.170      4.186
REMARK  7 active torsions:
REMARK  status: ('A' for Active; 'I' for Inactive)
REMARK    1  A    between atoms: C_2  and  C_3 
REMARK    2  A    between atoms: C_3  and  O_6 
REMARK    3  A    between atoms: C_3  and  C_4 
REMARK    4  A    between atoms: C_7  and  O_6 
REMARK    5  A    between atoms: C_9  and  C_10 
REMARK    6  A    between atoms: N_15  and  C_14 
REMARK    7  A    between atoms: N_20  and  C_19 
REMARK       I    between atoms: C_22  and  N_20 
ROOT
ATOM      1  C   LIG d   1      -5.059  92.214 119.241  0.00  0.00     0.161 C 
ATOM      2  C   LIG d   1      -5.343  91.343 118.176  0.00  0.00     0.016 C 
ATOM      3  C   LIG d   1      -6.278  91.637 117.158  0.00  0.00     0.038 C 
ATOM      4  C   LIG d   1      -6.886  92.897 117.051  0.00  0.00     0.028 C 
ATOM      5  C   LIG d   1      -7.012  93.624 118.386  0.00  0.00    -0.047 C 
ATOM      6  C   LIG d   1      -5.631  93.638 119.081  0.00  0.00     0.091 C 
ENDROOT
BRANCH   1   7
ATOM      7  O   LIG d   1      -3.636  92.267 119.463  0.00  0.00    -0.368 OA
BRANCH   7   8
ATOM      8  C   LIG d   1      -2.803  92.193 118.280  0.00  0.00     0.119 C 
BRANCH   8   9
ATOM      9  C   LIG d   1      -1.639  91.234 118.592  0.00  0.00     0.028 C 
ATOM     10  C   LIG d   1      -1.757  90.603 119.990  0.00  0.00     0.006 C 
ENDBRANCH   8   9
BRANCH   8  11
ATOM     11  C   LIG d   1      -2.146  93.543 117.975  0.00  0.00     0.028 C 
ATOM     12  C   LIG d   1      -1.944  94.404 119.232  0.00  0.00     0.006 C 
ENDBRANCH   8  11
ENDBRANCH   7   8
ENDBRANCH   1   7
BRANCH   6  13
ATOM     13  N   LIG d   1      -5.682  94.257 120.431  0.00  0.00    -0.311 N 
ATOM     14  C   LIG d   1      -5.387  95.535 120.664  0.00  0.00     0.210 C 
ATOM     15  C   LIG d   1      -5.485  95.964 122.131  0.00  0.00     0.109 C 
ATOM     16  O   LIG d   1      -5.085  96.362 119.790  0.00  0.00    -0.276 OA
ATOM     17  H   LIG d   1      -5.948  93.666 121.194  0.00  0.00     0.149 HD
ENDBRANCH   6  13
BRANCH   5  18
ATOM     18  N   LIG d   1      -7.535  94.975 118.110  0.00  0.00     0.381 N 
ATOM     19  H   LIG d   1      -8.347  95.144 118.669  0.00  0.00    -0.090 HD
ATOM     20  H   LIG d   1      -7.800  95.029 117.143  0.00  0.00    -0.090 HD
ATOM     21  H   LIG d   1      -6.837  95.658 118.310  0.00  0.00    -0.090 HD
ENDBRANCH   5  18
BRANCH   3  22
ATOM     22  C   LIG d   1      -6.643  90.651 116.254  0.00  0.00     0.382 C 
ATOM     23  O   LIG d   1      -5.778  89.861 115.805  0.00  0.00    -0.241 OA
ATOM     24  O   LIG d   1      -7.818  90.570 115.848  0.00  0.00    -0.241 OA
ENDBRANCH   3  22
TORSDOF 7
ENDMDL
MODEL 4
REMARK VINA RESULT:      -4.4     11.708     14.081
REMARK  7 active torsions:
REMARK  status: ('A' for Active; 'I' for Inactive)
REMARK    1  A    between atoms: C_2  and  C_3 
REMARK    2  A    between atoms: C_3  and  O_6 
REMARK    3  A    between atoms: C_3  and  C_4 
REMARK    4  A    between atoms: C_7  and  O_6 
REMARK    5  A    between atoms: C_9  and  C_10 
REMARK    6  A    between atoms: N_15  and  C_14 
REMARK    7  A    between atoms: N_20  and  C_19 
REMARK       I    between atoms: C_22  and  N_20 
ROOT
ATOM      1  C   LIG d   1      -6.763  79.776 118.031  0.00  0.00     0.161 C 
ATOM      2  C   LIG d   1      -7.461  78.709 117.441  0.00  0.00     0.016 C 
ATOM      3  C   LIG d   1      -7.076  77.355 117.581  0.00  0.00     0.038 C 
ATOM      4  C   LIG d   1      -6.047  76.963 118.450  0.00  0.00     0.028 C 
ATOM      5  C   LIG d   1      -4.996  78.045 118.671  0.00  0.00    -0.047 C 
ATOM      6  C   LIG d   1      -5.704  79.358 119.073  0.00  0.00     0.091 C 
ENDROOT
BRANCH   1   7
ATOM      7  O   LIG d   1      -7.696  80.709 118.611  0.00  0.00    -0.368 OA
BRANCH   7   8
ATOM      8  C   LIG d   1      -7.771  82.010 117.980  0.00  0.00     0.119 C 
BRANCH   8   9
ATOM      9  C   LIG d   1      -7.703  83.071 119.096  0.00  0.00     0.028 C 
ATOM     10  C   LIG d   1      -7.612  82.443 120.497  0.00  0.00     0.006 C 
ENDBRANCH   8   9
BRANCH   8  11
ATOM     11  C   LIG d   1      -9.127  82.223 117.301  0.00  0.00     0.028 C 
ATOM     12  C   LIG d   1     -10.245  81.371 117.923  0.00  0.00     0.006 C 
ENDBRANCH   8  11
ENDBRANCH   7   8
ENDBRANCH   1   7
BRANCH   6  13
ATOM     13  N   LIG d   1      -4.754  80.491 119.227  0.00  0.00    -0.311 N 
ATOM     14  C   LIG d   1      -4.224  80.849 120.395  0.00  0.00     0.210 C 
ATOM     15  C   LIG d   1      -3.283  82.056 120.335  0.00  0.00     0.109 C 
ATOM     16  O   LIG d   1      -4.418  80.261 121.470  0.00  0.00    -0.276 OA
ATOM     17  H   LIG d   1      -4.517  81.003 118.401  0.00  0.00     0.149 HD
ENDBRANCH   6  13
BRANCH   5  18
ATOM     18  N   LIG d   1      -4.061  77.553 119.701  0.00  0.00     0.381 N 
ATOM     19  H   LIG d   1      -4.295  77.951 120.589  0.00  0.00    -0.090 HD
ATOM     20  H   LIG d   1      -3.130  77.845 119.461  0.00  0.00    -0.090 HD
ATOM     21  H   LIG d   1      -4.102  76.559 119.753  0.00  0.00    -0.090 HD
ENDBRANCH   5  18
BRANCH   3  22
ATOM     22  C   LIG d   1      -7.698  76.382 116.814  0.00  0.00     0.382 C 
ATOM     23  O   LIG d   1      -8.943  76.234 116.877  0.00  0.00    -0.241 OA
ATOM     24  O   LIG d   1      -7.026  75.620 116.093  0.00  0.00    -0.241 OA
ENDBRANCH   3  22
TORSDOF 7
ENDMDL
MODEL 5
REMARK VINA RESULT:      -4.4      4.105      7.158
REMARK  7 active torsions:
REMARK  status: ('A' for Active; 'I' for Inactive)
REMARK    1  A    between atoms: C_2  and  C_3 
REMARK    2  A    between atoms: C_3  and  O_6 
REMARK    3  A    between atoms: C_3  and  C_4 
REMARK    4  A    between atoms: C_7  and  O_6 
REMARK    5  A    between atoms: C_9  and  C_10 
REMARK    6  A    between atoms: N_15  and  C_14 
REMARK    7  A    between atoms: N_20  and  C_19 
REMARK       I    between atoms: C_22  and  N_20 
ROOT
ATOM      1  C   LIG d   1      -1.086  91.757 117.979  0.00  0.00     0.161 C 
ATOM      2  C   LIG d   1       0.301  91.924 118.124  0.00  0.00     0.016 C 
ATOM      3  C   LIG d   1       0.934  93.188 118.154  0.00  0.00     0.038 C 
ATOM      4  C   LIG d   1       0.200  94.384 118.193  0.00  0.00     0.028 C 
ATOM      5  C   LIG d   1      -1.174  94.273 117.541  0.00  0.00    -0.047 C 
ATOM      6  C   LIG d   1      -1.913  93.051 118.132  0.00  0.00     0.091 C 
ENDROOT
BRANCH   1   7
ATOM      7  O   LIG d   1      -1.556  90.751 118.899  0.00  0.00    -0.368 OA
BRANCH   7   8
ATOM      8  C   LIG d   1      -2.068  89.533 118.304  0.00  0.00     0.119 C 
BRANCH   8   9
ATOM      9  C   LIG d   1      -2.845  88.776 119.398  0.00  0.00     0.028 C 
ATOM     10  C   LIG d   1      -3.160  89.661 120.615  0.00  0.00     0.006 C 
ENDBRANCH   8   9
BRANCH   8  11
ATOM     11  C   LIG d   1      -0.931  88.594 117.890  0.00  0.00     0.028 C 
ATOM     12  C   LIG d   1      -0.385  87.766 119.064  0.00  0.00     0.006 C 
ENDBRANCH   8  11
ENDBRANCH   7   8
ENDBRANCH   1   7
BRANCH   6  13
ATOM     13  N   LIG d   1      -3.232  92.820 117.488  0.00  0.00    -0.311 N 
ATOM     14  C   LIG d   1      -4.365  92.668 118.172  0.00  0.00     0.210 C 
ATOM     15  C   LIG d   1      -5.610  92.421 117.314  0.00  0.00     0.109 C 
ATOM     16  O   LIG d   1      -4.463  92.747 119.406  0.00  0.00    -0.276 OA
ATOM     17  H   LIG d   1      -3.250  92.773 116.488  0.00  0.00     0.149 HD
ENDBRANCH   6  13
BRANCH   5  18
ATOM     18  N   LIG d   1      -1.882  95.546 117.774  0.00  0.00     0.381 N 
ATOM     19  H   LIG d   1      -1.569  96.233 117.117  0.00  0.00    -0.090 HD
ATOM     20  H   LIG d   1      -1.666  95.873 118.699  0.00  0.00    -0.090 HD
ATOM     21  H   LIG d   1      -2.865  95.411 117.682  0.00  0.00    -0.090 HD
ENDBRANCH   5  18
BRANCH   3  22
ATOM     22  C   LIG d   1       2.317  93.266 118.105  0.00  0.00     0.382 C 
ATOM     23  O   LIG d   1       2.971  93.474 119.155  0.00  0.00    -0.241 OA
ATOM     24  O   LIG d   1       2.917  93.175 117.017  0.00  0.00    -0.241 OA
ENDBRANCH   3  22
TORSDOF 7
ENDMDL
MODEL 6
REMARK VINA RESULT:      -4.4      2.096      4.871
REMARK  7 active torsions:
REMARK  status: ('A' for Active; 'I' for Inactive)
REMARK    1  A    between atoms: C_2  and  C_3 
REMARK    2  A    between atoms: C_3  and  O_6 
REMARK    3  A    between atoms: C_3  and  C_4 
REMARK    4  A    between atoms: C_7  and  O_6 
REMARK    5  A    between atoms: C_9  and  C_10 
REMARK    6  A    between atoms: N_15  and  C_14 
REMARK    7  A    between atoms: N_20  and  C_19 
REMARK       I    between atoms: C_22  and  N_20 
ROOT
ATOM      1  C   LIG d   1      -5.395  93.201 118.662  0.00  0.00     0.161 C 
ATOM      2  C   LIG d   1      -6.682  93.692 118.389  0.00  0.00     0.016 C 
ATOM      3  C   LIG d   1      -7.136  94.963 118.810  0.00  0.00     0.038 C 
ATOM      4  C   LIG d   1      -6.275  95.897 119.407  0.00  0.00     0.028 C 
ATOM      5  C   LIG d   1      -5.110  95.256 120.153  0.00  0.00    -0.047 C 
ATOM      6  C   LIG d   1      -4.407  94.249 119.215  0.00  0.00     0.091 C 
ENDROOT
BRANCH   1   7
ATOM      7  O   LIG d   1      -4.851  92.573 117.484  0.00  0.00    -0.368 OA
BRANCH   7   8
ATOM      8  C   LIG d   1      -5.034  91.139 117.384  0.00  0.00     0.119 C 
BRANCH   8   9
ATOM      9  C   LIG d   1      -3.666  90.479 117.649  0.00  0.00     0.028 C 
ATOM     10  C   LIG d   1      -3.528  89.977 119.096  0.00  0.00     0.006 C 
ENDBRANCH   8   9
BRANCH   8  11
ATOM     11  C   LIG d   1      -5.415  90.723 115.960  0.00  0.00     0.028 C 
ATOM     12  C   LIG d   1      -6.917  90.437 115.806  0.00  0.00     0.006 C 
ENDBRANCH   8  11
ENDBRANCH   7   8
ENDBRANCH   1   7
BRANCH   6  13
ATOM     13  N   LIG d   1      -3.306  93.515 119.894  0.00  0.00    -0.311 N 
ATOM     14  C   LIG d   1      -2.074  93.420 119.398  0.00  0.00     0.210 C 
ATOM     15  C   LIG d   1      -1.097  92.601 120.247  0.00  0.00     0.109 C 
ATOM     16  O   LIG d   1      -1.688  93.963 118.352  0.00  0.00    -0.276 OA
ATOM     17  H   LIG d   1      -3.523  93.070 120.764  0.00  0.00     0.149 HD
ENDBRANCH   6  13
BRANCH   5  18
ATOM     18  N   LIG d   1      -4.220  96.341 120.608  0.00  0.00     0.381 N 
ATOM     19  H   LIG d   1      -4.599  96.768 121.430  0.00  0.00    -0.090 HD
ATOM     20  H   LIG d   1      -4.166  97.040 119.887  0.00  0.00    -0.090 HD
ATOM     21  H   LIG d   1      -3.312  95.980 120.800  0.00  0.00    -0.090 HD
ENDBRANCH   5  18
BRANCH   3  22
ATOM     22  C   LIG d   1      -8.474  95.296 118.671  0.00  0.00     0.382 C 
ATOM     23  O   LIG d   1      -8.833  96.496 118.747  0.00  0.00    -0.241 OA
ATOM     24  O   LIG d   1      -9.333  94.408 118.515  0.00  0.00    -0.241 OA
ENDBRANCH   3  22
TORSDOF 7
ENDMDL
MODEL 7
REMARK VINA RESULT:      -4.3     12.701     15.512
REMARK  7 active torsions:
REMARK  status: ('A' for Active; 'I' for Inactive)
REMARK    1  A    between atoms: C_2  and  C_3 
REMARK    2  A    between atoms: C_3  and  O_6 
REMARK    3  A    between atoms: C_3  and  C_4 
REMARK    4  A    between atoms: C_7  and  O_6 
REMARK    5  A    between atoms: C_9  and  C_10 
REMARK    6  A    between atoms: N_15  and  C_14 
REMARK    7  A    between atoms: N_20  and  C_19 
REMARK       I    between atoms: C_22  and  N_20 
ROOT
ATOM      1  C   LIG d   1      -5.530  79.298 117.343  0.00  0.00     0.161 C 
ATOM      2  C   LIG d   1      -6.662  80.031 117.734  0.00  0.00     0.016 C 
ATOM      3  C   LIG d   1      -7.957  79.472 117.828  0.00  0.00     0.038 C 
ATOM      4  C   LIG d   1      -8.183  78.095 117.681  0.00  0.00     0.028 C 
ATOM      5  C   LIG d   1      -7.154  77.404 116.791  0.00  0.00    -0.047 C 
ATOM      6  C   LIG d   1      -5.736  77.770 117.286  0.00  0.00     0.091 C 
ENDROOT
BRANCH   1   7
ATOM      7  O   LIG d   1      -4.417  79.621 118.201  0.00  0.00    -0.368 OA
BRANCH   7   8
ATOM      8  C   LIG d   1      -4.724  79.783 119.607  0.00  0.00     0.119 C 
BRANCH   8   9
ATOM      9  C   LIG d   1      -3.875  80.957 120.133  0.00  0.00     0.028 C 
ATOM     10  C   LIG d   1      -4.739  82.119 120.653  0.00  0.00     0.006 C 
ENDBRANCH   8   9
BRANCH   8  11
ATOM     11  C   LIG d   1      -4.276  78.564 120.419  0.00  0.00     0.028 C 
ATOM     12  C   LIG d   1      -5.457  77.754 120.978  0.00  0.00     0.006 C 
ENDBRANCH   8  11
ENDBRANCH   7   8
ENDBRANCH   1   7
BRANCH   6  13
ATOM     13  N   LIG d   1      -4.670  77.203 116.420  0.00  0.00    -0.311 N 
ATOM     14  C   LIG d   1      -3.741  76.357 116.859  0.00  0.00     0.210 C 
ATOM     15  C   LIG d   1      -2.723  75.909 115.805  0.00  0.00     0.109 C 
ATOM     16  O   LIG d   1      -3.682  75.908 118.014  0.00  0.00    -0.276 OA
ATOM     17  H   LIG d   1      -4.662  77.489 115.460  0.00  0.00     0.149 HD
ENDBRANCH   6  13
BRANCH   5  18
ATOM     18  N   LIG d   1      -7.427  75.956 116.836  0.00  0.00     0.381 N 
ATOM     19  H   LIG d   1      -7.883  75.670 115.992  0.00  0.00    -0.090 HD
ATOM     20  H   LIG d   1      -8.043  75.765 117.607  0.00  0.00    -0.090 HD
ATOM     21  H   LIG d   1      -6.576  75.451 116.949  0.00  0.00    -0.090 HD
ENDBRANCH   5  18
BRANCH   3  22
ATOM     22  C   LIG d   1      -9.050  80.300 118.032  0.00  0.00     0.382 C 
ATOM     23  O   LIG d   1      -8.878  81.524 118.246  0.00  0.00    -0.241 OA
ATOM     24  O   LIG d   1     -10.204  79.831 118.049  0.00  0.00    -0.241 OA
ENDBRANCH   3  22
TORSDOF 7
ENDMDL
MODEL 8
REMARK VINA RESULT:      -4.2     26.820     29.978
REMARK  7 active torsions:
REMARK  status: ('A' for Active; 'I' for Inactive)
REMARK    1  A    between atoms: C_2  and  C_3 
REMARK    2  A    between atoms: C_3  and  O_6 
REMARK    3  A    between atoms: C_3  and  C_4 
REMARK    4  A    between atoms: C_7  and  O_6 
REMARK    5  A    between atoms: C_9  and  C_10 
REMARK    6  A    between atoms: N_15  and  C_14 
REMARK    7  A    between atoms: N_20  and  C_19 
REMARK       I    between atoms: C_22  and  N_20 
ROOT
ATOM      1  C   LIG d   1     -15.800  65.802 118.933  0.00  0.00     0.161 C 
ATOM      2  C   LIG d   1     -15.913  67.202 118.916  0.00  0.00     0.016 C 
ATOM      3  C   LIG d   1     -15.169  68.054 119.765  0.00  0.00     0.038 C 
ATOM      4  C   LIG d   1     -14.143  67.567 120.589  0.00  0.00     0.028 C 
ATOM      5  C   LIG d   1     -14.341  66.114 121.008  0.00  0.00    -0.047 C 
ATOM      6  C   LIG d   1     -14.606  65.260 119.747  0.00  0.00     0.091 C 
ENDROOT
BRANCH   1   7
ATOM      7  O   LIG d   1     -15.755  65.299 117.583  0.00  0.00    -0.368 OA
BRANCH   7   8
ATOM      8  C   LIG d   1     -16.904  64.529 117.152  0.00  0.00     0.119 C 
BRANCH   8   9
ATOM      9  C   LIG d   1     -17.671  65.379 116.120  0.00  0.00     0.028 C 
ATOM     10  C   LIG d   1     -18.877  66.106 116.739  0.00  0.00     0.006 C 
ENDBRANCH   8   9
BRANCH   8  11
ATOM     11  C   LIG d   1     -17.889  64.305 118.304  0.00  0.00     0.028 C 
ATOM     12  C   LIG d   1     -18.104  62.816 118.622  0.00  0.00     0.006 C 
ENDBRANCH   8  11
ENDBRANCH   7   8
ENDBRANCH   1   7
BRANCH   6  13
ATOM     13  N   LIG d   1     -14.893  63.839 120.075  0.00  0.00    -0.311 N 
ATOM     14  C   LIG d   1     -14.195  62.818 119.583  0.00  0.00     0.210 C 
ATOM     15  C   LIG d   1     -14.670  61.433 120.033  0.00  0.00     0.109 C 
ATOM     16  O   LIG d   1     -13.206  62.928 118.842  0.00  0.00    -0.276 OA
ATOM     17  H   LIG d   1     -15.659  63.660 120.694  0.00  0.00     0.149 HD
ENDBRANCH   6  13
BRANCH   5  18
ATOM     18  N   LIG d   1     -13.134  65.695 121.746  0.00  0.00     0.381 N 
ATOM     19  H   LIG d   1     -12.729  66.485 122.208  0.00  0.00    -0.090 HD
ATOM     20  H   LIG d   1     -12.463  65.332 121.093  0.00  0.00    -0.090 HD
ATOM     21  H   LIG d   1     -13.370  64.996 122.415  0.00  0.00    -0.090 HD
ENDBRANCH   5  18
BRANCH   3  22
ATOM     22  C   LIG d   1     -15.476  69.405 119.824  0.00  0.00     0.382 C 
ATOM     23  O   LIG d   1     -16.133  69.939 118.898  0.00  0.00    -0.241 OA
ATOM     24  O   LIG d   1     -15.067  70.105 120.769  0.00  0.00    -0.241 OA
ENDBRANCH   3  22
TORSDOF 7
ENDMDL
MODEL 9
REMARK VINA RESULT:      -4.2     12.321     14.739
REMARK  7 active torsions:
REMARK  status: ('A' for Active; 'I' for Inactive)
REMARK    1  A    between atoms: C_2  and  C_3 
REMARK    2  A    between atoms: C_3  and  O_6 
REMARK    3  A    between atoms: C_3  and  C_4 
REMARK    4  A    between atoms: C_7  and  O_6 
REMARK    5  A    between atoms: C_9  and  C_10 
REMARK    6  A    between atoms: N_15  and  C_14 
REMARK    7  A    between atoms: N_20  and  C_19 
REMARK       I    between atoms: C_22  and  N_20 
ROOT
ATOM      1  C   LIG d   1      -6.694  79.951 118.581  0.00  0.00     0.161 C 
ATOM      2  C   LIG d   1      -5.884  80.933 119.177  0.00  0.00     0.016 C 
ATOM      3  C   LIG d   1      -4.541  80.708 119.558  0.00  0.00     0.038 C 
ATOM      4  C   LIG d   1      -3.866  79.523 119.228  0.00  0.00     0.028 C 
ATOM      5  C   LIG d   1      -4.791  78.320 119.078  0.00  0.00    -0.047 C 
ATOM      6  C   LIG d   1      -5.941  78.688 118.113  0.00  0.00     0.091 C 
ENDROOT
BRANCH   1   7
ATOM      7  O   LIG d   1      -7.435  80.527 117.487  0.00  0.00    -0.368 OA
BRANCH   7   8
ATOM      8  C   LIG d   1      -8.865  80.657 117.684  0.00  0.00     0.119 C 
BRANCH   8   9
ATOM      9  C   LIG d   1      -9.182  82.161 117.792  0.00  0.00     0.028 C 
ATOM     10  C   LIG d   1      -9.182  82.658 119.248  0.00  0.00     0.006 C 
ENDBRANCH   8   9
BRANCH   8  11
ATOM     11  C   LIG d   1      -9.300  80.053 119.023  0.00  0.00     0.028 C 
ATOM     12  C   LIG d   1     -10.198  78.818 118.855  0.00  0.00     0.006 C 
ENDBRANCH   8  11
ENDBRANCH   7   8
ENDBRANCH   1   7
BRANCH   6  13
ATOM     13  N   LIG d   1      -6.938  77.595 117.976  0.00  0.00    -0.311 N 
ATOM     14  C   LIG d   1      -7.130  76.915 116.847  0.00  0.00     0.210 C 
ATOM     15  C   LIG d   1      -8.221  75.842 116.916  0.00  0.00     0.109 C 
ATOM     16  O   LIG d   1      -6.477  77.076 115.805  0.00  0.00    -0.276 OA
ATOM     17  H   LIG d   1      -7.490  77.377 118.783  0.00  0.00     0.149 HD
ENDBRANCH   6  13
BRANCH   5  18
ATOM     18  N   LIG d   1      -3.976  77.187 118.600  0.00  0.00     0.381 N 
ATOM     19  H   LIG d   1      -4.432  76.325 118.820  0.00  0.00    -0.090 HD
ATOM     20  H   LIG d   1      -3.088  77.204 119.072  0.00  0.00    -0.090 HD
ATOM     21  H   LIG d   1      -3.838  77.258 117.616  0.00  0.00    -0.090 HD
ENDBRANCH   5  18
BRANCH   3  22
ATOM     22  C   LIG d   1      -3.872  81.660 120.311  0.00  0.00     0.382 C 
ATOM     23  O   LIG d   1      -2.641  81.837 120.147  0.00  0.00    -0.241 OA
ATOM     24  O   LIG d   1      -4.475  82.312 121.184  0.00  0.00    -0.241 OA
ENDBRANCH   3  22
TORSDOF 7
ENDMDL
