MODEL 1
REMARK VINA RESULT:      -5.5      0.000      0.000
REMARK  7 active torsions:
REMARK  status: ('A' for Active; 'I' for Inactive)
REMARK    1  A    between atoms: C_2  and  C_3 
REMARK    2  A    between atoms: C_3  and  O_6 
REMARK    3  A    between atoms: C_3  and  C_4 
REMARK    4  A    between atoms: C_7  and  O_6 
REMARK    5  A    between atoms: C_9  and  C_10 
REMARK    6  A    between atoms: N_15  and  C_14 
REMARK    7  A    between atoms: N_20  and  C_19 
REMARK       I    between atoms: C_22  and  N_20 
ROOT
ATOM      1  C   LIG d   1      -0.045  60.241 118.489  0.00  0.00     0.161 C 
ATOM      2  C   LIG d   1       1.214  59.981 117.922  0.00  0.00     0.016 C 
ATOM      3  C   LIG d   1       2.315  59.492 118.662  0.00  0.00     0.038 C 
ATOM      4  C   LIG d   1       2.188  59.084 119.998  0.00  0.00     0.028 C 
ATOM      5  C   LIG d   1       1.069  59.802 120.747  0.00  0.00    -0.047 C 
ATOM      6  C   LIG d   1      -0.233  59.698 119.921  0.00  0.00     0.091 C 
ENDROOT
BRANCH   1   7
ATOM      7  O   LIG d   1      -1.083  59.743 117.623  0.00  0.00    -0.368 OA
BRANCH   7   8
ATOM      8  C   LIG d   1      -1.469  58.360 117.820  0.00  0.00     0.119 C 
BRANCH   8   9
ATOM      9  C   LIG d   1      -1.033  57.575 116.568  0.00  0.00     0.028 C 
ATOM     10  C   LIG d   1       0.019  56.499 116.886  0.00  0.00     0.006 C 
ENDBRANCH   8   9
BRANCH   8  11
ATOM     11  C   LIG d   1      -2.992  58.210 117.884  0.00  0.00     0.028 C 
ATOM     12  C   LIG d   1      -3.723  59.561 117.905  0.00  0.00     0.006 C 
ENDBRANCH   8  11
ENDBRANCH   7   8
ENDBRANCH   1   7
BRANCH   6  13
ATOM     13  N   LIG d   1      -1.358  60.445 120.541  0.00  0.00    -0.311 N 
ATOM     14  C   LIG d   1      -2.291  59.871 121.299  0.00  0.00     0.210 C 
ATOM     15  C   LIG d   1      -3.373  60.820 121.823  0.00  0.00     0.109 C 
ATOM     16  O   LIG d   1      -2.306  58.671 121.614  0.00  0.00    -0.276 OA
ATOM     17  H   LIG d   1      -1.405  61.429 120.363  0.00  0.00     0.149 HD
ENDBRANCH   6  13
BRANCH   5  18
ATOM     18  N   LIG d   1       0.959  59.184 122.082  0.00  0.00     0.381 N 
ATOM     19  H   LIG d   1       0.024  59.285 122.425  0.00  0.00    -0.090 HD
ATOM     20  H   LIG d   1       1.580  59.659 122.712  0.00  0.00    -0.090 HD
ATOM     21  H   LIG d   1       1.199  58.218 122.032  0.00  0.00    -0.090 HD
ENDBRANCH   5  18
BRANCH   3  22
ATOM     22  C   LIG d   1       3.571  59.444 118.076  0.00  0.00     0.382 C 
ATOM     23  O   LIG d   1       4.441  58.657 118.520  0.00  0.00    -0.241 OA
ATOM     24  O   LIG d   1       3.859  60.210 117.137  0.00  0.00    -0.241 OA
ENDBRANCH   3  22
TORSDOF 7
ENDMDL
MODEL 2
REMARK VINA RESULT:      -5.2     33.079     34.769
REMARK  7 active torsions:
REMARK  status: ('A' for Active; 'I' for Inactive)
REMARK    1  A    between atoms: C_2  and  C_3 
REMARK    2  A    between atoms: C_3  and  O_6 
REMARK    3  A    between atoms: C_3  and  C_4 
REMARK    4  A    between atoms: C_7  and  O_6 
REMARK    5  A    between atoms: C_9  and  C_10 
REMARK    6  A    between atoms: N_15  and  C_14 
REMARK    7  A    between atoms: N_20  and  C_19 
REMARK       I    between atoms: C_22  and  N_20 
ROOT
ATOM      1  C   LIG d   1      -5.583  92.788 118.451  0.00  0.00     0.161 C 
ATOM      2  C   LIG d   1      -5.977  91.663 117.707  0.00  0.00     0.016 C 
ATOM      3  C   LIG d   1      -7.192  91.593 116.987  0.00  0.00     0.038 C 
ATOM      4  C   LIG d   1      -8.031  92.707 116.838  0.00  0.00     0.028 C 
ATOM      5  C   LIG d   1      -7.922  93.705 117.986  0.00  0.00    -0.047 C 
ATOM      6  C   LIG d   1      -6.432  94.053 118.209  0.00  0.00     0.091 C 
ENDROOT
BRANCH   1   7
ATOM      7  O   LIG d   1      -4.189  93.067 118.212  0.00  0.00    -0.368 OA
BRANCH   7   8
ATOM      8  C   LIG d   1      -3.268  92.644 119.248  0.00  0.00     0.119 C 
BRANCH   8   9
ATOM      9  C   LIG d   1      -2.600  93.910 119.817  0.00  0.00     0.028 C 
ATOM     10  C   LIG d   1      -2.606  95.078 118.816  0.00  0.00     0.006 C 
ENDBRANCH   8   9
BRANCH   8  11
ATOM     11  C   LIG d   1      -2.124  91.807 118.668  0.00  0.00     0.028 C 
ATOM     12  C   LIG d   1      -2.533  90.353 118.386  0.00  0.00     0.006 C 
ENDBRANCH   8  11
ENDBRANCH   7   8
ENDBRANCH   1   7
BRANCH   6  13
ATOM     13  N   LIG d   1      -6.229  94.959 119.369  0.00  0.00    -0.311 N 
ATOM     14  C   LIG d   1      -6.288  96.287 119.281  0.00  0.00     0.210 C 
ATOM     15  C   LIG d   1      -6.029  97.034 120.593  0.00  0.00     0.109 C 
ATOM     16  O   LIG d   1      -6.561  96.916 118.248  0.00  0.00    -0.276 OA
ATOM     17  H   LIG d   1      -6.033  94.532 120.253  0.00  0.00     0.149 HD
ENDBRANCH   6  13
BRANCH   5  18
ATOM     18  N   LIG d   1      -8.743  94.879 117.635  0.00  0.00     0.381 N 
ATOM     19  H   LIG d   1      -8.187  95.709 117.687  0.00  0.00    -0.090 HD
ATOM     20  H   LIG d   1      -9.494  94.961 118.298  0.00  0.00    -0.090 HD
ATOM     21  H   LIG d   1      -9.113  94.775 116.716  0.00  0.00    -0.090 HD
ENDBRANCH   5  18
BRANCH   3  22
ATOM     22  C   LIG d   1      -7.598  90.385 116.440  0.00  0.00     0.382 C 
ATOM     23  O   LIG d   1      -6.774  89.667 115.824  0.00  0.00    -0.241 OA
ATOM     24  O   LIG d   1      -8.788  90.025 116.517  0.00  0.00    -0.241 OA
ENDBRANCH   3  22
TORSDOF 7
ENDMDL
MODEL 3
REMARK VINA RESULT:      -5.1     19.476     21.455
REMARK  7 active torsions:
REMARK  status: ('A' for Active; 'I' for Inactive)
REMARK    1  A    between atoms: C_2  and  C_3 
REMARK    2  A    between atoms: C_3  and  O_6 
REMARK    3  A    between atoms: C_3  and  C_4 
REMARK    4  A    between atoms: C_7  and  O_6 
REMARK    5  A    between atoms: C_9  and  C_10 
REMARK    6  A    between atoms: N_15  and  C_14 
REMARK    7  A    between atoms: N_20  and  C_19 
REMARK       I    between atoms: C_22  and  N_20 
ROOT
ATOM      1  C   LIG d   1      -6.468  78.545 118.511  0.00  0.00     0.161 C 
ATOM      2  C   LIG d   1      -7.833  78.287 118.722  0.00  0.00     0.016 C 
ATOM      3  C   LIG d   1      -8.853  79.229 118.453  0.00  0.00     0.038 C 
ATOM      4  C   LIG d   1      -8.587  80.446 117.808  0.00  0.00     0.028 C 
ATOM      5  C   LIG d   1      -7.169  80.956 118.038  0.00  0.00    -0.047 C 
ATOM      6  C   LIG d   1      -6.169  79.826 117.704  0.00  0.00     0.091 C 
ENDROOT
BRANCH   1   7
ATOM      7  O   LIG d   1      -5.846  77.404 117.887  0.00  0.00    -0.368 OA
BRANCH   7   8
ATOM      8  C   LIG d   1      -5.962  77.323 116.446  0.00  0.00     0.119 C 
BRANCH   8   9
ATOM      9  C   LIG d   1      -6.997  76.227 116.125  0.00  0.00     0.028 C 
ATOM     10  C   LIG d   1      -6.347  74.847 115.925  0.00  0.00     0.006 C 
ENDBRANCH   8   9
BRANCH   8  11
ATOM     11  C   LIG d   1      -4.654  76.845 115.807  0.00  0.00     0.028 C 
ATOM     12  C   LIG d   1      -3.428  77.103 116.697  0.00  0.00     0.006 C 
ENDBRANCH   8  11
ENDBRANCH   7   8
ENDBRANCH   1   7
BRANCH   6  13
ATOM     13  N   LIG d   1      -4.761  80.214 117.982  0.00  0.00    -0.311 N 
ATOM     14  C   LIG d   1      -3.934  80.689 117.052  0.00  0.00     0.210 C 
ATOM     15  C   LIG d   1      -2.520  81.008 117.546  0.00  0.00     0.109 C 
ATOM     16  O   LIG d   1      -4.247  80.906 115.872  0.00  0.00    -0.276 OA
ATOM     17  H   LIG d   1      -4.433  80.099 118.921  0.00  0.00     0.149 HD
ENDBRANCH   6  13
BRANCH   5  18
ATOM     18  N   LIG d   1      -6.986  82.156 117.200  0.00  0.00     0.381 N 
ATOM     19  H   LIG d   1      -6.084  82.554 117.371  0.00  0.00    -0.090 HD
ATOM     20  H   LIG d   1      -7.683  82.836 117.449  0.00  0.00    -0.090 HD
ATOM     21  H   LIG d   1      -7.074  81.917 116.237  0.00  0.00    -0.090 HD
ENDBRANCH   5  18
BRANCH   3  22
ATOM     22  C   LIG d   1     -10.151  78.972 118.867  0.00  0.00     0.382 C 
ATOM     23  O   LIG d   1     -10.674  79.677 119.763  0.00  0.00    -0.241 OA
ATOM     24  O   LIG d   1     -10.790  78.017 118.387  0.00  0.00    -0.241 OA
ENDBRANCH   3  22
TORSDOF 7
ENDMDL
MODEL 4
REMARK VINA RESULT:      -4.8      1.709      2.091
REMARK  7 active torsions:
REMARK  status: ('A' for Active; 'I' for Inactive)
REMARK    1  A    between atoms: C_2  and  C_3 
REMARK    2  A    between atoms: C_3  and  O_6 
REMARK    3  A    between atoms: C_3  and  C_4 
REMARK    4  A    between atoms: C_7  and  O_6 
REMARK    5  A    between atoms: C_9  and  C_10 
REMARK    6  A    between atoms: N_15  and  C_14 
REMARK    7  A    between atoms: N_20  and  C_19 
REMARK       I    between atoms: C_22  and  N_20 
ROOT
ATOM      1  C   LIG d   1       1.486  58.737 118.487  0.00  0.00     0.161 C 
ATOM      2  C   LIG d   1       2.801  58.994 118.062  0.00  0.00     0.016 C 
ATOM      3  C   LIG d   1       3.761  59.656 118.861  0.00  0.00     0.038 C 
ATOM      4  C   LIG d   1       3.515  59.975 120.205  0.00  0.00     0.028 C 
ATOM      5  C   LIG d   1       2.037  60.190 120.516  0.00  0.00    -0.047 C 
ATOM      6  C   LIG d   1       1.233  58.979 119.990  0.00  0.00     0.091 C 
ENDROOT
BRANCH   1   7
ATOM      7  O   LIG d   1       1.109  57.394 118.125  0.00  0.00    -0.368 OA
BRANCH   7   8
ATOM      8  C   LIG d   1      -0.191  57.243 117.503  0.00  0.00     0.119 C 
BRANCH   8   9
ATOM      9  C   LIG d   1      -0.114  56.025 116.562  0.00  0.00     0.028 C 
ATOM     10  C   LIG d   1       1.109  55.138 116.848  0.00  0.00     0.006 C 
ENDBRANCH   8   9
BRANCH   8  11
ATOM     11  C   LIG d   1      -0.518  58.434 116.598  0.00  0.00     0.028 C 
ATOM     12  C   LIG d   1      -2.025  58.723 116.514  0.00  0.00     0.006 C 
ENDBRANCH   8  11
ENDBRANCH   7   8
ENDBRANCH   1   7
BRANCH   6  13
ATOM     13  N   LIG d   1      -0.232  59.146 120.178  0.00  0.00    -0.311 N 
ATOM     14  C   LIG d   1      -0.900  60.234 119.798  0.00  0.00     0.210 C 
ATOM     15  C   LIG d   1      -2.401  60.210 120.103  0.00  0.00     0.109 C 
ATOM     16  O   LIG d   1      -0.398  61.202 119.207  0.00  0.00    -0.276 OA
ATOM     17  H   LIG d   1      -0.724  58.395 120.621  0.00  0.00     0.149 HD
ENDBRANCH   6  13
BRANCH   5  18
ATOM     18  N   LIG d   1       1.911  60.378 121.973  0.00  0.00     0.381 N 
ATOM     19  H   LIG d   1       2.663  60.948 122.307  0.00  0.00    -0.090 HD
ATOM     20  H   LIG d   1       1.970  59.482 122.423  0.00  0.00    -0.090 HD
ATOM     21  H   LIG d   1       1.038  60.808 122.187  0.00  0.00    -0.090 HD
ENDBRANCH   5  18
BRANCH   3  22
ATOM     22  C   LIG d   1       4.970  60.042 118.303  0.00  0.00     0.382 C 
ATOM     23  O   LIG d   1       6.048  59.647 118.809  0.00  0.00    -0.241 OA
ATOM     24  O   LIG d   1       4.998  60.817 117.328  0.00  0.00    -0.241 OA
ENDBRANCH   3  22
TORSDOF 7
ENDMDL
MODEL 5
REMARK VINA RESULT:      -4.7      2.428      4.621
REMARK  7 active torsions:
REMARK  status: ('A' for Active; 'I' for Inactive)
REMARK    1  A    between atoms: C_2  and  C_3 
REMARK    2  A    between atoms: C_3  and  O_6 
REMARK    3  A    between atoms: C_3  and  C_4 
REMARK    4  A    between atoms: C_7  and  O_6 
REMARK    5  A    between atoms: C_9  and  C_10 
REMARK    6  A    between atoms: N_15  and  C_14 
REMARK    7  A    between atoms: N_20  and  C_19 
REMARK       I    between atoms: C_22  and  N_20 
ROOT
ATOM      1  C   LIG d   1       0.720  58.059 118.374  0.00  0.00     0.161 C 
ATOM      2  C   LIG d   1       1.032  56.990 117.519  0.00  0.00     0.016 C 
ATOM      3  C   LIG d   1       0.120  55.959 117.196  0.00  0.00     0.038 C 
ATOM      4  C   LIG d   1      -1.226  56.010 117.591  0.00  0.00     0.028 C 
ATOM      5  C   LIG d   1      -1.452  56.808 118.870  0.00  0.00    -0.047 C 
ATOM      6  C   LIG d   1      -0.777  58.191 118.725  0.00  0.00     0.091 C 
ENDROOT
BRANCH   1   7
ATOM      7  O   LIG d   1       1.214  59.293 117.815  0.00  0.00    -0.368 OA
BRANCH   7   8
ATOM      8  C   LIG d   1       2.347  59.891 118.491  0.00  0.00     0.119 C 
BRANCH   8   9
ATOM      9  C   LIG d   1       3.602  59.589 117.649  0.00  0.00     0.028 C 
ATOM     10  C   LIG d   1       4.809  60.445 118.067  0.00  0.00     0.006 C 
ENDBRANCH   8   9
BRANCH   8  11
ATOM     11  C   LIG d   1       2.600  59.227 119.848  0.00  0.00     0.028 C 
ATOM     12  C   LIG d   1       2.495  60.212 121.023  0.00  0.00     0.006 C 
ENDBRANCH   8  11
ENDBRANCH   7   8
ENDBRANCH   1   7
BRANCH   6  13
ATOM     13  N   LIG d   1      -0.878  59.005 119.964  0.00  0.00    -0.311 N 
ATOM     14  C   LIG d   1      -1.247  60.285 119.973  0.00  0.00     0.210 C 
ATOM     15  C   LIG d   1      -1.267  60.942 121.357  0.00  0.00     0.109 C 
ATOM     16  O   LIG d   1      -1.590  60.929 118.971  0.00  0.00    -0.276 OA
ATOM     17  H   LIG d   1      -0.648  58.552 120.827  0.00  0.00     0.149 HD
ENDBRANCH   6  13
BRANCH   5  18
ATOM     18  N   LIG d   1      -2.908  56.896 119.089  0.00  0.00     0.381 N 
ATOM     19  H   LIG d   1      -3.359  57.202 118.250  0.00  0.00    -0.090 HD
ATOM     20  H   LIG d   1      -3.089  57.573 119.809  0.00  0.00    -0.090 HD
ATOM     21  H   LIG d   1      -3.266  56.007 119.361  0.00  0.00    -0.090 HD
ENDBRANCH   5  18
BRANCH   3  22
ATOM     22  C   LIG d   1       0.561  54.842 116.504  0.00  0.00     0.382 C 
ATOM     23  O   LIG d   1       1.790  54.658 116.328  0.00  0.00    -0.241 OA
ATOM     24  O   LIG d   1      -0.255  54.038 116.016  0.00  0.00    -0.241 OA
ENDBRANCH   3  22
TORSDOF 7
ENDMDL
MODEL 6
REMARK VINA RESULT:      -4.7     31.513     33.125
REMARK  7 active torsions:
REMARK  status: ('A' for Active; 'I' for Inactive)
REMARK    1  A    between atoms: C_2  and  C_3 
REMARK    2  A    between atoms: C_3  and  O_6 
REMARK    3  A    between atoms: C_3  and  C_4 
REMARK    4  A    between atoms: C_7  and  O_6 
REMARK    5  A    between atoms: C_9  and  C_10 
REMARK    6  A    between atoms: N_15  and  C_14 
REMARK    7  A    between atoms: N_20  and  C_19 
REMARK       I    between atoms: C_22  and  N_20 
ROOT
ATOM      1  C   LIG d   1      -4.037  91.378 118.309  0.00  0.00     0.161 C 
ATOM      2  C   LIG d   1      -5.035  90.721 117.570  0.00  0.00     0.016 C 
ATOM      3  C   LIG d   1      -6.222  91.353 117.133  0.00  0.00     0.038 C 
ATOM      4  C   LIG d   1      -6.423  92.733 117.276  0.00  0.00     0.028 C 
ATOM      5  C   LIG d   1      -5.672  93.335 118.459  0.00  0.00    -0.047 C 
ATOM      6  C   LIG d   1      -4.188  92.912 118.379  0.00  0.00     0.091 C 
ENDROOT
BRANCH   1   7
ATOM      7  O   LIG d   1      -2.737  91.025 117.795  0.00  0.00    -0.368 OA
BRANCH   7   8
ATOM      8  C   LIG d   1      -2.131  89.835 118.357  0.00  0.00     0.119 C 
BRANCH   8   9
ATOM      9  C   LIG d   1      -2.342  89.885 119.883  0.00  0.00     0.028 C 
ATOM     10  C   LIG d   1      -2.847  88.547 120.450  0.00  0.00     0.006 C 
ENDBRANCH   8   9
BRANCH   8  11
ATOM     11  C   LIG d   1      -0.612  89.836 118.158  0.00  0.00     0.028 C 
ATOM     12  C   LIG d   1       0.114  90.796 119.114  0.00  0.00     0.006 C 
ENDBRANCH   8  11
ENDBRANCH   7   8
ENDBRANCH   1   7
BRANCH   6  13
ATOM     13  N   LIG d   1      -3.399  93.388 119.545  0.00  0.00    -0.311 N 
ATOM     14  C   LIG d   1      -2.272  94.090 119.430  0.00  0.00     0.210 C 
ATOM     15  C   LIG d   1      -1.606  94.464 120.758  0.00  0.00     0.109 C 
ATOM     16  O   LIG d   1      -1.779  94.465 118.356  0.00  0.00    -0.276 OA
ATOM     17  H   LIG d   1      -3.743  93.155 120.455  0.00  0.00     0.149 HD
ENDBRANCH   6  13
BRANCH   5  18
ATOM     18  N   LIG d   1      -5.860  94.797 118.409  0.00  0.00     0.381 N 
ATOM     19  H   LIG d   1      -5.008  95.239 118.127  0.00  0.00    -0.090 HD
ATOM     20  H   LIG d   1      -6.096  95.126 119.329  0.00  0.00    -0.090 HD
ATOM     21  H   LIG d   1      -6.589  95.026 117.770  0.00  0.00    -0.090 HD
ENDBRANCH   5  18
BRANCH   3  22
ATOM     22  C   LIG d   1      -7.241  90.593 116.579  0.00  0.00     0.382 C 
ATOM     23  O   LIG d   1      -8.436  90.843 116.866  0.00  0.00    -0.241 OA
ATOM     24  O   LIG d   1      -6.978  89.632 115.831  0.00  0.00    -0.241 OA
ENDBRANCH   3  22
TORSDOF 7
ENDMDL
MODEL 7
REMARK VINA RESULT:      -4.6      1.767      2.588
REMARK  7 active torsions:
REMARK  status: ('A' for Active; 'I' for Inactive)
REMARK    1  A    between atoms: C_2  and  C_3 
REMARK    2  A    between atoms: C_3  and  O_6 
REMARK    3  A    between atoms: C_3  and  C_4 
REMARK    4  A    between atoms: C_7  and  O_6 
REMARK    5  A    between atoms: C_9  and  C_10 
REMARK    6  A    between atoms: N_15  and  C_14 
REMARK    7  A    between atoms: N_20  and  C_19 
REMARK       I    between atoms: C_22  and  N_20 
ROOT
ATOM      1  C   LIG d   1       0.789  58.896 117.733  0.00  0.00     0.161 C 
ATOM      2  C   LIG d   1       2.147  58.981 118.082  0.00  0.00     0.016 C 
ATOM      3  C   LIG d   1       2.606  59.574 119.281  0.00  0.00     0.038 C 
ATOM      4  C   LIG d   1       1.723  59.990 120.288  0.00  0.00     0.028 C 
ATOM      5  C   LIG d   1       0.347  60.385 119.763  0.00  0.00    -0.047 C 
ATOM      6  C   LIG d   1      -0.195  59.245 118.870  0.00  0.00     0.091 C 
ENDROOT
BRANCH   1   7
ATOM      7  O   LIG d   1       0.501  57.586 117.206  0.00  0.00    -0.368 OA
BRANCH   7   8
ATOM      8  C   LIG d   1       0.782  56.469 118.085  0.00  0.00     0.119 C 
BRANCH   8   9
ATOM      9  C   LIG d   1       1.553  55.417 117.264  0.00  0.00     0.028 C 
ATOM     10  C   LIG d   1       0.694  54.797 116.150  0.00  0.00     0.006 C 
ENDBRANCH   8   9
BRANCH   8  11
ATOM     11  C   LIG d   1      -0.507  55.772 118.529  0.00  0.00     0.028 C 
ATOM     12  C   LIG d   1      -0.697  55.786 120.054  0.00  0.00     0.006 C 
ENDBRANCH   8  11
ENDBRANCH   7   8
ENDBRANCH   1   7
BRANCH   6  13
ATOM     13  N   LIG d   1      -1.500  59.585 118.247  0.00  0.00    -0.311 N 
ATOM     14  C   LIG d   1      -2.675  59.240 118.772  0.00  0.00     0.210 C 
ATOM     15  C   LIG d   1      -3.899  59.673 117.958  0.00  0.00     0.109 C 
ATOM     16  O   LIG d   1      -2.820  58.647 119.851  0.00  0.00    -0.276 OA
ATOM     17  H   LIG d   1      -1.476  60.093 117.385  0.00  0.00     0.149 HD
ENDBRANCH   6  13
BRANCH   5  18
ATOM     18  N   LIG d   1      -0.512  60.664 120.929  0.00  0.00     0.381 N 
ATOM     19  H   LIG d   1       0.035  60.641 121.766  0.00  0.00    -0.090 HD
ATOM     20  H   LIG d   1      -1.216  59.950 120.992  0.00  0.00    -0.090 HD
ATOM     21  H   LIG d   1      -0.943  61.557 120.829  0.00  0.00    -0.090 HD
ENDBRANCH   5  18
BRANCH   3  22
ATOM     22  C   LIG d   1       3.963  59.792 119.463  0.00  0.00     0.382 C 
ATOM     23  O   LIG d   1       4.360  60.529 120.398  0.00  0.00    -0.241 OA
ATOM     24  O   LIG d   1       4.794  59.297 118.678  0.00  0.00    -0.241 OA
ENDBRANCH   3  22
TORSDOF 7
ENDMDL
MODEL 8
REMARK VINA RESULT:      -4.6     34.898     36.594
REMARK  7 active torsions:
REMARK  status: ('A' for Active; 'I' for Inactive)
REMARK    1  A    between atoms: C_2  and  C_3 
REMARK    2  A    between atoms: C_3  and  O_6 
REMARK    3  A    between atoms: C_3  and  C_4 
REMARK    4  A    between atoms: C_7  and  O_6 
REMARK    5  A    between atoms: C_9  and  C_10 
REMARK    6  A    between atoms: N_15  and  C_14 
REMARK    7  A    between atoms: N_20  and  C_19 
REMARK       I    between atoms: C_22  and  N_20 
ROOT
ATOM      1  C   LIG d   1      -5.585  94.759 119.940  0.00  0.00     0.161 C 
ATOM      2  C   LIG d   1      -6.756  94.129 119.488  0.00  0.00     0.016 C 
ATOM      3  C   LIG d   1      -7.700  94.756 118.642  0.00  0.00     0.038 C 
ATOM      4  C   LIG d   1      -7.460  96.011 118.065  0.00  0.00     0.028 C 
ATOM      5  C   LIG d   1      -6.529  96.891 118.893  0.00  0.00    -0.047 C 
ATOM      6  C   LIG d   1      -5.251  96.089 119.231  0.00  0.00     0.091 C 
ENDROOT
BRANCH   1   7
ATOM      7  O   LIG d   1      -4.472  93.848 119.845  0.00  0.00    -0.368 OA
BRANCH   7   8
ATOM      8  C   LIG d   1      -4.016  93.536 118.506  0.00  0.00     0.119 C 
BRANCH   8   9
ATOM      9  C   LIG d   1      -4.058  92.003 118.348  0.00  0.00     0.028 C 
ATOM     10  C   LIG d   1      -5.084  91.549 117.297  0.00  0.00     0.006 C 
ENDBRANCH   8   9
BRANCH   8  11
ATOM     11  C   LIG d   1      -2.547  93.924 118.313  0.00  0.00     0.028 C 
ATOM     12  C   LIG d   1      -1.805  94.127 119.643  0.00  0.00     0.006 C 
ENDBRANCH   8  11
ENDBRANCH   7   8
ENDBRANCH   1   7
BRANCH   6  13
ATOM     13  N   LIG d   1      -4.323  96.846 120.111  0.00  0.00    -0.311 N 
ATOM     14  C   LIG d   1      -3.281  97.538 119.653  0.00  0.00     0.210 C 
ATOM     15  C   LIG d   1      -2.440  98.230 120.732  0.00  0.00     0.109 C 
ATOM     16  O   LIG d   1      -2.991  97.671 118.455  0.00  0.00    -0.276 OA
ATOM     17  H   LIG d   1      -4.503  96.818 121.095  0.00  0.00     0.149 HD
ENDBRANCH   6  13
BRANCH   5  18
ATOM     18  N   LIG d   1      -6.255  98.111 118.110  0.00  0.00     0.381 N 
ATOM     19  H   LIG d   1      -6.774  98.878 118.487  0.00  0.00    -0.090 HD
ATOM     20  H   LIG d   1      -6.554  97.963 117.162  0.00  0.00    -0.090 HD
ATOM     21  H   LIG d   1      -5.281  98.318 118.131  0.00  0.00    -0.090 HD
ENDBRANCH   5  18
BRANCH   3  22
ATOM     22  C   LIG d   1      -8.919  94.141 118.398  0.00  0.00     0.382 C 
ATOM     23  O   LIG d   1      -9.059  93.404 117.392  0.00  0.00    -0.241 OA
ATOM     24  O   LIG d   1      -9.893  94.349 119.146  0.00  0.00    -0.241 OA
ENDBRANCH   3  22
TORSDOF 7
ENDMDL
MODEL 9
REMARK VINA RESULT:      -4.6      2.470      4.407
REMARK  7 active torsions:
REMARK  status: ('A' for Active; 'I' for Inactive)
REMARK    1  A    between atoms: C_2  and  C_3 
REMARK    2  A    between atoms: C_3  and  O_6 
REMARK    3  A    between atoms: C_3  and  C_4 
REMARK    4  A    between atoms: C_7  and  O_6 
REMARK    5  A    between atoms: C_9  and  C_10 
REMARK    6  A    between atoms: N_15  and  C_14 
REMARK    7  A    between atoms: N_20  and  C_19 
REMARK       I    between atoms: C_22  and  N_20 
ROOT
ATOM      1  C   LIG d   1       0.256  57.888 120.293  0.00  0.00     0.161 C 
ATOM      2  C   LIG d   1       0.689  58.888 121.179  0.00  0.00     0.016 C 
ATOM      3  C   LIG d   1       1.620  59.892 120.825  0.00  0.00     0.038 C 
ATOM      4  C   LIG d   1       2.069  60.054 119.506  0.00  0.00     0.028 C 
ATOM      5  C   LIG d   1       2.049  58.762 118.696  0.00  0.00    -0.047 C 
ATOM      6  C   LIG d   1       0.650  58.115 118.819  0.00  0.00     0.091 C 
ENDROOT
BRANCH   1   7
ATOM      7  O   LIG d   1      -1.170  57.716 120.410  0.00  0.00    -0.368 OA
BRANCH   7   8
ATOM      8  C   LIG d   1      -1.987  58.791 119.885  0.00  0.00     0.119 C 
BRANCH   8   9
ATOM      9  C   LIG d   1      -2.818  59.354 121.054  0.00  0.00     0.028 C 
ATOM     10  C   LIG d   1      -2.459  60.814 121.380  0.00  0.00     0.006 C 
ENDBRANCH   8   9
BRANCH   8  11
ATOM     11  C   LIG d   1      -3.011  58.270 118.873  0.00  0.00     0.028 C 
ATOM     12  C   LIG d   1      -3.611  59.386 118.003  0.00  0.00     0.006 C 
ENDBRANCH   8  11
ENDBRANCH   7   8
ENDBRANCH   1   7
BRANCH   6  13
ATOM     13  N   LIG d   1       0.570  56.803 118.125  0.00  0.00    -0.311 N 
ATOM     14  C   LIG d   1       0.039  56.646 116.913  0.00  0.00     0.210 C 
ATOM     15  C   LIG d   1       0.038  55.206 116.390  0.00  0.00     0.109 C 
ATOM     16  O   LIG d   1      -0.401  57.567 116.209  0.00  0.00    -0.276 OA
ATOM     17  H   LIG d   1       0.933  56.007 118.611  0.00  0.00     0.149 HD
ENDBRANCH   6  13
BRANCH   5  18
ATOM     18  N   LIG d   1       2.409  59.101 117.306  0.00  0.00     0.381 N 
ATOM     19  H   LIG d   1       1.831  59.850 116.980  0.00  0.00    -0.090 HD
ATOM     20  H   LIG d   1       2.245  58.300 116.723  0.00  0.00    -0.090 HD
ATOM     21  H   LIG d   1       3.368  59.366 117.258  0.00  0.00    -0.090 HD
ENDBRANCH   5  18
BRANCH   3  22
ATOM     22  C   LIG d   1       2.141  60.723 121.805  0.00  0.00     0.382 C 
ATOM     23  O   LIG d   1       3.373  60.718 122.040  0.00  0.00    -0.241 OA
ATOM     24  O   LIG d   1       1.389  61.444 122.487  0.00  0.00    -0.241 OA
ENDBRANCH   3  22
TORSDOF 7
ENDMDL
