MODEL 1
REMARK VINA RESULT:      -4.9      0.000      0.000
REMARK  7 active torsions:
REMARK  status: ('A' for Active; 'I' for Inactive)
REMARK    1  A    between atoms: C_2  and  C_3 
REMARK    2  A    between atoms: C_3  and  O_6 
REMARK    3  A    between atoms: C_3  and  C_4 
REMARK    4  A    between atoms: C_7  and  O_6 
REMARK    5  A    between atoms: C_9  and  C_10 
REMARK    6  A    between atoms: N_15  and  C_14 
REMARK    7  A    between atoms: N_20  and  C_19 
REMARK       I    between atoms: C_22  and  N_20 
ROOT
ATOM      1  C   LIG d   1      -4.219  92.165 119.045  0.00  0.00     0.161 C 
ATOM      2  C   LIG d   1      -5.441  92.856 119.101  0.00  0.00     0.016 C 
ATOM      3  C   LIG d   1      -6.471  92.694 118.147  0.00  0.00     0.038 C 
ATOM      4  C   LIG d   1      -6.409  91.710 117.148  0.00  0.00     0.028 C 
ATOM      5  C   LIG d   1      -4.984  91.341 116.751  0.00  0.00    -0.047 C 
ATOM      6  C   LIG d   1      -4.177  91.007 118.027  0.00  0.00     0.091 C 
ENDROOT
BRANCH   1   7
ATOM      7  O   LIG d   1      -3.866  91.690 120.359  0.00  0.00    -0.368 OA
BRANCH   7   8
ATOM      8  C   LIG d   1      -2.765  92.372 121.009  0.00  0.00     0.119 C 
BRANCH   8   9
ATOM      9  C   LIG d   1      -2.003  93.159 119.925  0.00  0.00     0.028 C 
ATOM     10  C   LIG d   1      -0.546  92.690 119.774  0.00  0.00     0.006 C 
ENDBRANCH   8   9
BRANCH   8  11
ATOM     11  C   LIG d   1      -1.749  91.376 121.576  0.00  0.00     0.028 C 
ATOM     12  C   LIG d   1      -2.307  89.947 121.675  0.00  0.00     0.006 C 
ENDBRANCH   8  11
ENDBRANCH   7   8
ENDBRANCH   1   7
BRANCH   6  13
ATOM     13  N   LIG d   1      -2.749  90.716 117.735  0.00  0.00    -0.311 N 
ATOM     14  C   LIG d   1      -2.176  89.539 117.980  0.00  0.00     0.210 C 
ATOM     15  C   LIG d   1      -0.689  89.457 117.623  0.00  0.00     0.109 C 
ATOM     16  O   LIG d   1      -2.766  88.545 118.430  0.00  0.00    -0.276 OA
ATOM     17  H   LIG d   1      -2.204  91.457 117.339  0.00  0.00     0.149 HD
ENDBRANCH   6  13
BRANCH   5  18
ATOM     18  N   LIG d   1      -5.064  90.211 115.806  0.00  0.00     0.381 N 
ATOM     19  H   LIG d   1      -5.384  90.536 114.915  0.00  0.00    -0.090 HD
ATOM     20  H   LIG d   1      -5.727  89.542 116.154  0.00  0.00    -0.090 HD
ATOM     21  H   LIG d   1      -4.169  89.784 115.708  0.00  0.00    -0.090 HD
ENDBRANCH   5  18
BRANCH   3  22
ATOM     22  C   LIG d   1      -7.562  93.549 118.162  0.00  0.00     0.382 C 
ATOM     23  O   LIG d   1      -8.211  93.720 119.222  0.00  0.00    -0.241 OA
ATOM     24  O   LIG d   1      -7.934  94.117 117.117  0.00  0.00    -0.241 OA
ENDBRANCH   3  22
TORSDOF 7
ENDMDL
MODEL 2
REMARK VINA RESULT:      -4.9     13.683     15.360
REMARK  7 active torsions:
REMARK  status: ('A' for Active; 'I' for Inactive)
REMARK    1  A    between atoms: C_2  and  C_3 
REMARK    2  A    between atoms: C_3  and  O_6 
REMARK    3  A    between atoms: C_3  and  C_4 
REMARK    4  A    between atoms: C_7  and  O_6 
REMARK    5  A    between atoms: C_9  and  C_10 
REMARK    6  A    between atoms: N_15  and  C_14 
REMARK    7  A    between atoms: N_20  and  C_19 
REMARK       I    between atoms: C_22  and  N_20 
ROOT
ATOM      1  C   LIG d   1      -9.264  78.021 118.706  0.00  0.00     0.161 C 
ATOM      2  C   LIG d   1      -8.357  78.920 118.119  0.00  0.00     0.016 C 
ATOM      3  C   LIG d   1      -8.324  80.300 118.422  0.00  0.00     0.038 C 
ATOM      4  C   LIG d   1      -9.102  80.852 119.451  0.00  0.00     0.028 C 
ATOM      5  C   LIG d   1     -10.388  80.079 119.720  0.00  0.00    -0.047 C 
ATOM      6  C   LIG d   1     -10.044  78.584 119.912  0.00  0.00     0.091 C 
ENDROOT
BRANCH   1   7
ATOM      7  O   LIG d   1      -8.579  76.807 119.075  0.00  0.00    -0.368 OA
BRANCH   7   8
ATOM      8  C   LIG d   1      -9.105  75.581 118.510  0.00  0.00     0.119 C 
BRANCH   8   9
ATOM      9  C   LIG d   1      -8.211  74.425 118.998  0.00  0.00     0.028 C 
ATOM     10  C   LIG d   1      -8.701  73.824 120.326  0.00  0.00     0.006 C 
ENDBRANCH   8   9
BRANCH   8  11
ATOM     11  C   LIG d   1      -8.982  75.573 116.984  0.00  0.00     0.028 C 
ATOM     12  C   LIG d   1      -7.522  75.543 116.504  0.00  0.00     0.006 C 
ENDBRANCH   8  11
ENDBRANCH   7   8
ENDBRANCH   1   7
BRANCH   6  13
ATOM     13  N   LIG d   1     -11.255  77.743 120.096  0.00  0.00    -0.311 N 
ATOM     14  C   LIG d   1     -11.407  76.888 121.106  0.00  0.00     0.210 C 
ATOM     15  C   LIG d   1     -12.724  76.104 121.097  0.00  0.00     0.109 C 
ATOM     16  O   LIG d   1     -10.591  76.728 122.026  0.00  0.00    -0.276 OA
ATOM     17  H   LIG d   1     -11.981  77.832 119.412  0.00  0.00     0.149 HD
ENDBRANCH   6  13
BRANCH   5  18
ATOM     18  N   LIG d   1     -11.031  80.681 120.903  0.00  0.00     0.381 N 
ATOM     19  H   LIG d   1     -11.958  80.319 121.006  0.00  0.00    -0.090 HD
ATOM     20  H   LIG d   1     -11.093  81.675 120.769  0.00  0.00    -0.090 HD
ATOM     21  H   LIG d   1     -10.496  80.481 121.720  0.00  0.00    -0.090 HD
ENDBRANCH   5  18
BRANCH   3  22
ATOM     22  C   LIG d   1      -7.536  81.151 117.663  0.00  0.00     0.382 C 
ATOM     23  O   LIG d   1      -8.069  81.932 116.838  0.00  0.00    -0.241 OA
ATOM     24  O   LIG d   1      -6.294  81.118 117.761  0.00  0.00    -0.241 OA
ENDBRANCH   3  22
TORSDOF 7
ENDMDL
MODEL 3
REMARK VINA RESULT:      -4.8     15.574     17.557
REMARK  7 active torsions:
REMARK  status: ('A' for Active; 'I' for Inactive)
REMARK    1  A    between atoms: C_2  and  C_3 
REMARK    2  A    between atoms: C_3  and  O_6 
REMARK    3  A    between atoms: C_3  and  C_4 
REMARK    4  A    between atoms: C_7  and  O_6 
REMARK    5  A    between atoms: C_9  and  C_10 
REMARK    6  A    between atoms: N_15  and  C_14 
REMARK    7  A    between atoms: N_20  and  C_19 
REMARK       I    between atoms: C_22  and  N_20 
ROOT
ATOM      1  C   LIG d   1      -8.671  75.330 119.039  0.00  0.00     0.161 C 
ATOM      2  C   LIG d   1      -8.673  73.926 118.999  0.00  0.00     0.016 C 
ATOM      3  C   LIG d   1      -8.033  73.176 117.985  0.00  0.00     0.038 C 
ATOM      4  C   LIG d   1      -7.215  73.781 117.019  0.00  0.00     0.028 C 
ATOM      5  C   LIG d   1      -7.596  75.228 116.723  0.00  0.00    -0.047 C 
ATOM      6  C   LIG d   1      -7.691  76.004 118.057  0.00  0.00     0.091 C 
ENDROOT
BRANCH   1   7
ATOM      7  O   LIG d   1      -8.420  75.780 120.385  0.00  0.00    -0.368 OA
BRANCH   7   8
ATOM      8  C   LIG d   1      -9.570  76.268 121.119  0.00  0.00     0.119 C 
BRANCH   8   9
ATOM      9  C   LIG d   1     -10.039  75.135 122.052  0.00  0.00     0.028 C 
ATOM     10  C   LIG d   1     -11.569  75.089 122.196  0.00  0.00     0.006 C 
ENDBRANCH   8   9
BRANCH   8  11
ATOM     11  C   LIG d   1     -10.752  76.540 120.185  0.00  0.00     0.028 C 
ATOM     12  C   LIG d   1     -11.023  78.040 119.988  0.00  0.00     0.006 C 
ENDBRANCH   8  11
ENDBRANCH   7   8
ENDBRANCH   1   7
BRANCH   6  13
ATOM     13  N   LIG d   1      -8.141  77.407 117.864  0.00  0.00    -0.311 N 
ATOM     14  C   LIG d   1      -7.503  78.458 118.376  0.00  0.00     0.210 C 
ATOM     15  C   LIG d   1      -8.146  79.816 118.075  0.00  0.00     0.109 C 
ATOM     16  O   LIG d   1      -6.447  78.398 119.025  0.00  0.00    -0.276 OA
ATOM     17  H   LIG d   1      -8.972  77.550 117.325  0.00  0.00     0.149 HD
ENDBRANCH   6  13
BRANCH   5  18
ATOM     18  N   LIG d   1      -6.580  75.777 115.805  0.00  0.00     0.381 N 
ATOM     19  H   LIG d   1      -6.976  76.524 115.270  0.00  0.00    -0.090 HD
ATOM     20  H   LIG d   1      -6.290  75.053 115.171  0.00  0.00    -0.090 HD
ATOM     21  H   LIG d   1      -5.797  76.109 116.323  0.00  0.00    -0.090 HD
ENDBRANCH   5  18
BRANCH   3  22
ATOM     22  C   LIG d   1      -8.242  71.807 117.907  0.00  0.00     0.382 C 
ATOM     23  O   LIG d   1      -8.911  71.328 116.960  0.00  0.00    -0.241 OA
ATOM     24  O   LIG d   1      -7.808  71.050 118.796  0.00  0.00    -0.241 OA
ENDBRANCH   3  22
TORSDOF 7
ENDMDL
MODEL 4
REMARK VINA RESULT:      -4.8     13.362     15.107
REMARK  7 active torsions:
REMARK  status: ('A' for Active; 'I' for Inactive)
REMARK    1  A    between atoms: C_2  and  C_3 
REMARK    2  A    between atoms: C_3  and  O_6 
REMARK    3  A    between atoms: C_3  and  C_4 
REMARK    4  A    between atoms: C_7  and  O_6 
REMARK    5  A    between atoms: C_9  and  C_10 
REMARK    6  A    between atoms: N_15  and  C_14 
REMARK    7  A    between atoms: N_20  and  C_19 
REMARK       I    between atoms: C_22  and  N_20 
ROOT
ATOM      1  C   LIG d   1      -7.137  77.038 117.854  0.00  0.00     0.161 C 
ATOM      2  C   LIG d   1      -8.424  77.519 118.149  0.00  0.00     0.016 C 
ATOM      3  C   LIG d   1      -8.723  78.891 118.314  0.00  0.00     0.038 C 
ATOM      4  C   LIG d   1      -7.780  79.893 118.044  0.00  0.00     0.028 C 
ATOM      5  C   LIG d   1      -6.338  79.435 118.235  0.00  0.00    -0.047 C 
ATOM      6  C   LIG d   1      -6.119  78.124 117.446  0.00  0.00     0.091 C 
ENDROOT
BRANCH   1   7
ATOM      7  O   LIG d   1      -7.218  76.020 116.837  0.00  0.00    -0.368 OA
BRANCH   7   8
ATOM      8  C   LIG d   1      -7.075  74.652 117.293  0.00  0.00     0.119 C 
BRANCH   8   9
ATOM      9  C   LIG d   1      -6.226  73.902 116.248  0.00  0.00     0.028 C 
ATOM     10  C   LIG d   1      -4.720  74.162 116.420  0.00  0.00     0.006 C 
ENDBRANCH   8   9
BRANCH   8  11
ATOM     11  C   LIG d   1      -8.425  73.928 117.314  0.00  0.00     0.028 C 
ATOM     12  C   LIG d   1      -8.448  72.740 118.289  0.00  0.00     0.006 C 
ENDBRANCH   8  11
ENDBRANCH   7   8
ENDBRANCH   1   7
BRANCH   6  13
ATOM     13  N   LIG d   1      -4.758  77.562 117.646  0.00  0.00    -0.311 N 
ATOM     14  C   LIG d   1      -3.732  77.820 116.837  0.00  0.00     0.210 C 
ATOM     15  C   LIG d   1      -2.421  77.122 117.213  0.00  0.00     0.109 C 
ATOM     16  O   LIG d   1      -3.775  78.585 115.862  0.00  0.00    -0.276 OA
ATOM     17  H   LIG d   1      -4.626  76.955 118.431  0.00  0.00     0.149 HD
ENDBRANCH   6  13
BRANCH   5  18
ATOM     18  N   LIG d   1      -5.459  80.532 117.787  0.00  0.00     0.381 N 
ATOM     19  H   LIG d   1      -5.918  81.411 117.921  0.00  0.00    -0.090 HD
ATOM     20  H   LIG d   1      -5.272  80.420 116.806  0.00  0.00    -0.090 HD
ATOM     21  H   LIG d   1      -4.604  80.515 118.300  0.00  0.00    -0.090 HD
ENDBRANCH   5  18
BRANCH   3  22
ATOM     22  C   LIG d   1      -9.968  79.270 118.793  0.00  0.00     0.382 C 
ATOM     23  O   LIG d   1     -10.850  78.403 119.002  0.00  0.00    -0.241 OA
ATOM     24  O   LIG d   1     -10.234  80.473 118.977  0.00  0.00    -0.241 OA
ENDBRANCH   3  22
TORSDOF 7
ENDMDL
MODEL 5
REMARK VINA RESULT:      -4.7     13.700     15.313
REMARK  7 active torsions:
REMARK  status: ('A' for Active; 'I' for Inactive)
REMARK    1  A    between atoms: C_2  and  C_3 
REMARK    2  A    between atoms: C_3  and  O_6 
REMARK    3  A    between atoms: C_3  and  C_4 
REMARK    4  A    between atoms: C_7  and  O_6 
REMARK    5  A    between atoms: C_9  and  C_10 
REMARK    6  A    between atoms: N_15  and  C_14 
REMARK    7  A    between atoms: N_20  and  C_19 
REMARK       I    between atoms: C_22  and  N_20 
ROOT
ATOM      1  C   LIG d   1      -7.994  77.071 118.214  0.00  0.00     0.161 C 
ATOM      2  C   LIG d   1      -9.068  77.947 118.446  0.00  0.00     0.016 C 
ATOM      3  C   LIG d   1      -8.946  79.355 118.406  0.00  0.00     0.038 C 
ATOM      4  C   LIG d   1      -7.768  79.986 117.978  0.00  0.00     0.028 C 
ATOM      5  C   LIG d   1      -6.513  79.154 118.222  0.00  0.00    -0.047 C 
ATOM      6  C   LIG d   1      -6.728  77.739 117.637  0.00  0.00     0.091 C 
ENDROOT
BRANCH   1   7
ATOM      7  O   LIG d   1      -8.422  75.989 117.363  0.00  0.00    -0.368 OA
BRANCH   7   8
ATOM      8  C   LIG d   1      -8.675  74.723 118.020  0.00  0.00     0.119 C 
BRANCH   8   9
ATOM      9  C   LIG d   1      -8.028  74.790 119.418  0.00  0.00     0.028 C 
ATOM     10  C   LIG d   1      -8.950  74.237 120.518  0.00  0.00     0.006 C 
ENDBRANCH   8   9
BRANCH   8  11
ATOM     11  C   LIG d   1      -7.968  73.571 117.301  0.00  0.00     0.028 C 
ATOM     12  C   LIG d   1      -8.774  72.263 117.336  0.00  0.00     0.006 C 
ENDBRANCH   8  11
ENDBRANCH   7   8
ENDBRANCH   1   7
BRANCH   6  13
ATOM     13  N   LIG d   1      -5.580  76.834 117.906  0.00  0.00    -0.311 N 
ATOM     14  C   LIG d   1      -4.583  76.638 117.045  0.00  0.00     0.210 C 
ATOM     15  C   LIG d   1      -3.510  75.649 117.512  0.00  0.00     0.109 C 
ATOM     16  O   LIG d   1      -4.470  77.213 115.952  0.00  0.00    -0.276 OA
ATOM     17  H   LIG d   1      -5.576  76.351 118.783  0.00  0.00     0.149 HD
ENDBRANCH   6  13
BRANCH   5  18
ATOM     18  N   LIG d   1      -5.379  79.868 117.606  0.00  0.00     0.381 N 
ATOM     19  H   LIG d   1      -5.242  79.543 116.669  0.00  0.00    -0.090 HD
ATOM     20  H   LIG d   1      -4.546  79.670 118.132  0.00  0.00    -0.090 HD
ATOM     21  H   LIG d   1      -5.554  80.848 117.603  0.00  0.00    -0.090 HD
ENDBRANCH   5  18
BRANCH   3  22
ATOM     22  C   LIG d   1      -9.999  80.148 118.834  0.00  0.00     0.382 C 
ATOM     23  O   LIG d   1     -10.653  80.825 118.004  0.00  0.00    -0.241 OA
ATOM     24  O   LIG d   1     -10.276  80.231 120.046  0.00  0.00    -0.241 OA
ENDBRANCH   3  22
TORSDOF 7
ENDMDL
MODEL 6
REMARK VINA RESULT:      -4.6     14.005     15.598
REMARK  7 active torsions:
REMARK  status: ('A' for Active; 'I' for Inactive)
REMARK    1  A    between atoms: C_2  and  C_3 
REMARK    2  A    between atoms: C_3  and  O_6 
REMARK    3  A    between atoms: C_3  and  C_4 
REMARK    4  A    between atoms: C_7  and  O_6 
REMARK    5  A    between atoms: C_9  and  C_10 
REMARK    6  A    between atoms: N_15  and  C_14 
REMARK    7  A    between atoms: N_20  and  C_19 
REMARK       I    between atoms: C_22  and  N_20 
ROOT
ATOM      1  C   LIG d   1      -8.953  77.387 118.772  0.00  0.00     0.161 C 
ATOM      2  C   LIG d   1     -10.012  76.646 119.323  0.00  0.00     0.016 C 
ATOM      3  C   LIG d   1     -11.055  77.225 120.082  0.00  0.00     0.038 C 
ATOM      4  C   LIG d   1     -11.192  78.615 120.214  0.00  0.00     0.028 C 
ATOM      5  C   LIG d   1      -9.871  79.368 120.101  0.00  0.00    -0.047 C 
ATOM      6  C   LIG d   1      -9.146  78.918 118.811  0.00  0.00     0.091 C 
ENDROOT
BRANCH   1   7
ATOM      7  O   LIG d   1      -8.701  76.949 117.422  0.00  0.00    -0.368 OA
BRANCH   7   8
ATOM      8  C   LIG d   1      -7.821  75.807 117.277  0.00  0.00     0.119 C 
BRANCH   8   9
ATOM      9  C   LIG d   1      -7.029  75.996 115.968  0.00  0.00     0.028 C 
ATOM     10  C   LIG d   1      -5.908  74.956 115.806  0.00  0.00     0.006 C 
ENDBRANCH   8   9
BRANCH   8  11
ATOM     11  C   LIG d   1      -8.617  74.512 117.086  0.00  0.00     0.028 C 
ATOM     12  C   LIG d   1      -8.346  73.478 118.191  0.00  0.00     0.006 C 
ENDBRANCH   8  11
ENDBRANCH   7   8
ENDBRANCH   1   7
BRANCH   6  13
ATOM     13  N   LIG d   1      -7.806  79.544 118.667  0.00  0.00    -0.311 N 
ATOM     14  C   LIG d   1      -7.584  80.645 117.951  0.00  0.00     0.210 C 
ATOM     15  C   LIG d   1      -6.125  81.111 117.917  0.00  0.00     0.109 C 
ATOM     16  O   LIG d   1      -8.462  81.297 117.367  0.00  0.00    -0.276 OA
ATOM     17  H   LIG d   1      -7.041  79.097 119.134  0.00  0.00     0.149 HD
ENDBRANCH   6  13
BRANCH   5  18
ATOM     18  N   LIG d   1     -10.177  80.811 120.118  0.00  0.00     0.381 N 
ATOM     19  H   LIG d   1     -10.832  81.027 119.394  0.00  0.00    -0.090 HD
ATOM     20  H   LIG d   1      -9.331  81.324 119.942  0.00  0.00    -0.090 HD
ATOM     21  H   LIG d   1     -10.552  81.069 121.004  0.00  0.00    -0.090 HD
ENDBRANCH   5  18
BRANCH   3  22
ATOM     22  C   LIG d   1     -11.953  76.408 120.752  0.00  0.00     0.382 C 
ATOM     23  O   LIG d   1     -11.539  75.599 121.617  0.00  0.00    -0.241 OA
ATOM     24  O   LIG d   1     -13.165  76.438 120.470  0.00  0.00    -0.241 OA
ENDBRANCH   3  22
TORSDOF 7
ENDMDL
MODEL 7
REMARK VINA RESULT:      -4.5      2.282      3.989
REMARK  7 active torsions:
REMARK  status: ('A' for Active; 'I' for Inactive)
REMARK    1  A    between atoms: C_2  and  C_3 
REMARK    2  A    between atoms: C_3  and  O_6 
REMARK    3  A    between atoms: C_3  and  C_4 
REMARK    4  A    between atoms: C_7  and  O_6 
REMARK    5  A    between atoms: C_9  and  C_10 
REMARK    6  A    between atoms: N_15  and  C_14 
REMARK    7  A    between atoms: N_20  and  C_19 
REMARK       I    between atoms: C_22  and  N_20 
ROOT
ATOM      1  C   LIG d   1      -3.241  90.431 118.265  0.00  0.00     0.161 C 
ATOM      2  C   LIG d   1      -4.234  90.226 117.293  0.00  0.00     0.016 C 
ATOM      3  C   LIG d   1      -5.294  91.132 117.059  0.00  0.00     0.038 C 
ATOM      4  C   LIG d   1      -5.347  92.387 117.683  0.00  0.00     0.028 C 
ATOM      5  C   LIG d   1      -4.646  92.421 119.037  0.00  0.00    -0.047 C 
ATOM      6  C   LIG d   1      -3.219  91.847 118.878  0.00  0.00     0.091 C 
ENDROOT
BRANCH   1   7
ATOM      7  O   LIG d   1      -1.948  90.102 117.719  0.00  0.00    -0.368 OA
BRANCH   7   8
ATOM      8  C   LIG d   1      -1.465  88.763 117.988  0.00  0.00     0.119 C 
BRANCH   8   9
ATOM      9  C   LIG d   1      -1.836  88.420 119.443  0.00  0.00     0.028 C 
ATOM     10  C   LIG d   1      -1.562  86.946 119.787  0.00  0.00     0.006 C 
ENDBRANCH   8   9
BRANCH   8  11
ATOM     11  C   LIG d   1       0.065  88.701 117.933  0.00  0.00     0.028 C 
ATOM     12  C   LIG d   1       0.736  89.773 118.806  0.00  0.00     0.006 C 
ENDBRANCH   8  11
ENDBRANCH   7   8
ENDBRANCH   1   7
BRANCH   6  13
ATOM     13  N   LIG d   1      -2.494  91.766 120.172  0.00  0.00    -0.311 N 
ATOM     14  C   LIG d   1      -1.301  92.321 120.380  0.00  0.00     0.210 C 
ATOM     15  C   LIG d   1      -0.720  92.100 121.781  0.00  0.00     0.109 C 
ATOM     16  O   LIG d   1      -0.683  93.002 119.548  0.00  0.00    -0.276 OA
ATOM     17  H   LIG d   1      -2.937  91.258 120.913  0.00  0.00     0.149 HD
ENDBRANCH   6  13
BRANCH   5  18
ATOM     18  N   LIG d   1      -4.658  93.818 119.511  0.00  0.00     0.381 N 
ATOM     19  H   LIG d   1      -4.707  94.440 118.729  0.00  0.00    -0.090 HD
ATOM     20  H   LIG d   1      -3.803  94.000 120.006  0.00  0.00    -0.090 HD
ATOM     21  H   LIG d   1      -5.438  93.967 120.113  0.00  0.00    -0.090 HD
ENDBRANCH   5  18
BRANCH   3  22
ATOM     22  C   LIG d   1      -6.337  90.768 116.222  0.00  0.00     0.382 C 
ATOM     23  O   LIG d   1      -6.450  89.577 115.842  0.00  0.00    -0.241 OA
ATOM     24  O   LIG d   1      -7.141  91.623 115.805  0.00  0.00    -0.241 OA
ENDBRANCH   3  22
TORSDOF 7
ENDMDL
MODEL 8
REMARK VINA RESULT:      -4.5     12.734     14.737
REMARK  7 active torsions:
REMARK  status: ('A' for Active; 'I' for Inactive)
REMARK    1  A    between atoms: C_2  and  C_3 
REMARK    2  A    between atoms: C_3  and  O_6 
REMARK    3  A    between atoms: C_3  and  C_4 
REMARK    4  A    between atoms: C_7  and  O_6 
REMARK    5  A    between atoms: C_9  and  C_10 
REMARK    6  A    between atoms: N_15  and  C_14 
REMARK    7  A    between atoms: N_20  and  C_19 
REMARK       I    between atoms: C_22  and  N_20 
ROOT
ATOM      1  C   LIG d   1      -7.413  78.055 118.193  0.00  0.00     0.161 C 
ATOM      2  C   LIG d   1      -7.044  76.845 117.582  0.00  0.00     0.016 C 
ATOM      3  C   LIG d   1      -7.926  75.751 117.426  0.00  0.00     0.038 C 
ATOM      4  C   LIG d   1      -9.291  75.849 117.737  0.00  0.00     0.028 C 
ATOM      5  C   LIG d   1      -9.593  76.879 118.821  0.00  0.00    -0.047 C 
ATOM      6  C   LIG d   1      -8.927  78.221 118.437  0.00  0.00     0.091 C 
ENDROOT
BRANCH   1   7
ATOM      7  O   LIG d   1      -6.905  79.164 117.425  0.00  0.00    -0.368 OA
BRANCH   7   8
ATOM      8  C   LIG d   1      -5.996  80.056 118.116  0.00  0.00     0.119 C 
BRANCH   8   9
ATOM      9  C   LIG d   1      -6.490  81.496 117.879  0.00  0.00     0.028 C 
ATOM     10  C   LIG d   1      -6.444  82.350 119.157  0.00  0.00     0.006 C 
ENDBRANCH   8   9
BRANCH   8  11
ATOM     11  C   LIG d   1      -4.592  80.003 117.506  0.00  0.00     0.028 C 
ATOM     12  C   LIG d   1      -3.480  80.094 118.563  0.00  0.00     0.006 C 
ENDBRANCH   8  11
ENDBRANCH   7   8
ENDBRANCH   1   7
BRANCH   6  13
ATOM     13  N   LIG d   1      -9.103  79.260 119.485  0.00  0.00    -0.311 N 
ATOM     14  C   LIG d   1      -9.824  80.366 119.307  0.00  0.00     0.210 C 
ATOM     15  C   LIG d   1      -9.858  81.315 120.508  0.00  0.00     0.109 C 
ATOM     16  O   LIG d   1     -10.465  80.635 118.280  0.00  0.00    -0.276 OA
ATOM     17  H   LIG d   1      -8.643  79.107 120.361  0.00  0.00     0.149 HD
ENDBRANCH   6  13
BRANCH   5  18
ATOM     18  N   LIG d   1     -11.059  76.976 118.947  0.00  0.00     0.381 N 
ATOM     19  H   LIG d   1     -11.478  76.976 118.038  0.00  0.00    -0.090 HD
ATOM     20  H   LIG d   1     -11.290  77.842 119.401  0.00  0.00    -0.090 HD
ATOM     21  H   LIG d   1     -11.407  76.210 119.480  0.00  0.00    -0.090 HD
ENDBRANCH   5  18
BRANCH   3  22
ATOM     22  C   LIG d   1      -7.436  74.529 116.992  0.00  0.00     0.382 C 
ATOM     23  O   LIG d   1      -6.383  74.483 116.310  0.00  0.00    -0.241 OA
ATOM     24  O   LIG d   1      -8.056  73.477 117.235  0.00  0.00    -0.241 OA
ENDBRANCH   3  22
TORSDOF 7
ENDMDL
MODEL 9
REMARK VINA RESULT:      -4.5     32.306     34.818
REMARK  7 active torsions:
REMARK  status: ('A' for Active; 'I' for Inactive)
REMARK    1  A    between atoms: C_2  and  C_3 
REMARK    2  A    between atoms: C_3  and  O_6 
REMARK    3  A    between atoms: C_3  and  C_4 
REMARK    4  A    between atoms: C_7  and  O_6 
REMARK    5  A    between atoms: C_9  and  C_10 
REMARK    6  A    between atoms: N_15  and  C_14 
REMARK    7  A    between atoms: N_20  and  C_19 
REMARK       I    between atoms: C_22  and  N_20 
ROOT
ATOM      1  C   LIG d   1      -0.022  57.252 119.368  0.00  0.00     0.161 C 
ATOM      2  C   LIG d   1       1.283  56.795 119.614  0.00  0.00     0.016 C 
ATOM      3  C   LIG d   1       2.376  57.064 118.758  0.00  0.00     0.038 C 
ATOM      4  C   LIG d   1       2.266  57.941 117.669  0.00  0.00     0.028 C 
ATOM      5  C   LIG d   1       0.856  58.021 117.095  0.00  0.00    -0.047 C 
ATOM      6  C   LIG d   1      -0.139  58.303 118.244  0.00  0.00     0.091 C 
ENDROOT
BRANCH   1   7
ATOM      7  O   LIG d   1      -0.601  57.756 120.588  0.00  0.00    -0.368 OA
BRANCH   7   8
ATOM      8  C   LIG d   1      -1.595  56.911 121.218  0.00  0.00     0.119 C 
BRANCH   8   9
ATOM      9  C   LIG d   1      -1.837  55.707 120.287  0.00  0.00     0.028 C 
ATOM     10  C   LIG d   1      -1.605  54.362 120.996  0.00  0.00     0.006 C 
ENDBRANCH   8   9
BRANCH   8  11
ATOM     11  C   LIG d   1      -2.948  57.623 121.320  0.00  0.00     0.028 C 
ATOM     12  C   LIG d   1      -3.870  57.000 122.380  0.00  0.00     0.006 C 
ENDBRANCH   8  11
ENDBRANCH   7   8
ENDBRANCH   1   7
BRANCH   6  13
ATOM     13  N   LIG d   1      -1.551  58.312 117.782  0.00  0.00    -0.311 N 
ATOM     14  C   LIG d   1      -2.320  59.400 117.795  0.00  0.00     0.210 C 
ATOM     15  C   LIG d   1      -3.752  59.186 117.294  0.00  0.00     0.109 C 
ATOM     16  O   LIG d   1      -1.942  60.528 118.144  0.00  0.00    -0.276 OA
ATOM     17  H   LIG d   1      -1.929  57.445 117.453  0.00  0.00     0.149 HD
ENDBRANCH   6  13
BRANCH   5  18
ATOM     18  N   LIG d   1       0.855  59.070 116.059  0.00  0.00     0.381 N 
ATOM     19  H   LIG d   1       1.612  58.920 115.423  0.00  0.00    -0.090 HD
ATOM     20  H   LIG d   1       0.986  59.963 116.500  0.00  0.00    -0.090 HD
ATOM     21  H   LIG d   1      -0.010  59.061 115.564  0.00  0.00    -0.090 HD
ENDBRANCH   5  18
BRANCH   3  22
ATOM     22  C   LIG d   1       3.587  56.420 118.966  0.00  0.00     0.382 C 
ATOM     23  O   LIG d   1       4.657  56.964 118.601  0.00  0.00    -0.241 OA
ATOM     24  O   LIG d   1       3.618  55.283 119.473  0.00  0.00    -0.241 OA
ENDBRANCH   3  22
TORSDOF 7
ENDMDL
