MODEL 1
REMARK VINA RESULT:      -5.4      0.000      0.000
REMARK  7 active torsions:
REMARK  status: ('A' for Active; 'I' for Inactive)
REMARK    1  A    between atoms: C_2  and  C_3 
REMARK    2  A    between atoms: C_3  and  O_6 
REMARK    3  A    between atoms: C_3  and  C_4 
REMARK    4  A    between atoms: C_7  and  O_6 
REMARK    5  A    between atoms: C_9  and  C_10 
REMARK    6  A    between atoms: N_15  and  C_14 
REMARK    7  A    between atoms: N_20  and  C_19 
REMARK       I    between atoms: C_22  and  N_20 
ROOT
ATOM      1  C   LIG d   1      -5.734  91.839 119.223  0.00  0.00     0.161 C 
ATOM      2  C   LIG d   1      -6.999  92.437 119.345  0.00  0.00     0.016 C 
ATOM      3  C   LIG d   1      -7.190  93.828 119.510  0.00  0.00     0.038 C 
ATOM      4  C   LIG d   1      -6.127  94.739 119.411  0.00  0.00     0.028 C 
ATOM      5  C   LIG d   1      -4.778  94.139 119.793  0.00  0.00    -0.047 C 
ATOM      6  C   LIG d   1      -4.570  92.827 119.001  0.00  0.00     0.091 C 
ENDROOT
BRANCH   1   7
ATOM      7  O   LIG d   1      -5.760  90.852 118.173  0.00  0.00    -0.368 OA
BRANCH   7   8
ATOM      8  C   LIG d   1      -5.428  91.325 116.845  0.00  0.00     0.119 C 
BRANCH   8   9
ATOM      9  C   LIG d   1      -6.752  91.591 116.103  0.00  0.00     0.028 C 
ATOM     10  C   LIG d   1      -7.561  90.305 115.866  0.00  0.00     0.006 C 
ENDBRANCH   8   9
BRANCH   8  11
ATOM     11  C   LIG d   1      -4.717  90.242 116.028  0.00  0.00     0.028 C 
ATOM     12  C   LIG d   1      -3.493  89.657 116.752  0.00  0.00     0.006 C 
ENDBRANCH   8  11
ENDBRANCH   7   8
ENDBRANCH   1   7
BRANCH   6  13
ATOM     13  N   LIG d   1      -3.312  92.132 119.377  0.00  0.00    -0.311 N 
ATOM     14  C   LIG d   1      -2.158  92.307 118.736  0.00  0.00     0.210 C 
ATOM     15  C   LIG d   1      -0.987  91.478 119.274  0.00  0.00     0.109 C 
ATOM     16  O   LIG d   1      -1.985  93.093 117.793  0.00  0.00    -0.276 OA
ATOM     17  H   LIG d   1      -3.354  91.498 120.152  0.00  0.00     0.149 HD
ENDBRANCH   6  13
BRANCH   5  18
ATOM     18  N   LIG d   1      -3.744  95.153 119.513  0.00  0.00     0.381 N 
ATOM     19  H   LIG d   1      -3.655  95.770 120.295  0.00  0.00    -0.090 HD
ATOM     20  H   LIG d   1      -4.027  95.694 118.715  0.00  0.00    -0.090 HD
ATOM     21  H   LIG d   1      -2.872  94.709 119.329  0.00  0.00    -0.090 HD
ENDBRANCH   5  18
BRANCH   3  22
ATOM     22  C   LIG d   1      -8.450  94.318 119.816  0.00  0.00     0.382 C 
ATOM     23  O   LIG d   1      -8.573  95.275 120.617  0.00  0.00    -0.241 OA
ATOM     24  O   LIG d   1      -9.469  93.785 119.336  0.00  0.00    -0.241 OA
ENDBRANCH   3  22
TORSDOF 7
ENDMDL
MODEL 2
REMARK VINA RESULT:      -5.3     15.065     17.073
REMARK  7 active torsions:
REMARK  status: ('A' for Active; 'I' for Inactive)
REMARK    1  A    between atoms: C_2  and  C_3 
REMARK    2  A    between atoms: C_3  and  O_6 
REMARK    3  A    between atoms: C_3  and  C_4 
REMARK    4  A    between atoms: C_7  and  O_6 
REMARK    5  A    between atoms: C_9  and  C_10 
REMARK    6  A    between atoms: N_15  and  C_14 
REMARK    7  A    between atoms: N_20  and  C_19 
REMARK       I    between atoms: C_22  and  N_20 
ROOT
ATOM      1  C   LIG d   1      -7.734  75.606 117.549  0.00  0.00     0.161 C 
ATOM      2  C   LIG d   1      -8.906  76.367 117.692  0.00  0.00     0.016 C 
ATOM      3  C   LIG d   1      -8.907  77.773 117.848  0.00  0.00     0.038 C 
ATOM      4  C   LIG d   1      -7.736  78.534 117.718  0.00  0.00     0.028 C 
ATOM      5  C   LIG d   1      -6.470  77.763 118.077  0.00  0.00    -0.047 C 
ATOM      6  C   LIG d   1      -6.455  76.431 117.293  0.00  0.00     0.091 C 
ENDROOT
BRANCH   1   7
ATOM      7  O   LIG d   1      -7.913  74.625 116.509  0.00  0.00    -0.368 OA
BRANCH   7   8
ATOM      8  C   LIG d   1      -7.995  73.245 116.942  0.00  0.00     0.119 C 
BRANCH   8   9
ATOM      9  C   LIG d   1      -7.212  72.393 115.924  0.00  0.00     0.028 C 
ATOM     10  C   LIG d   1      -5.763  72.131 116.369  0.00  0.00     0.006 C 
ENDBRANCH   8   9
BRANCH   8  11
ATOM     11  C   LIG d   1      -9.435  72.726 116.883  0.00  0.00     0.028 C 
ATOM     12  C   LIG d   1      -9.514  71.192 116.846  0.00  0.00     0.006 C 
ENDBRANCH   8  11
ENDBRANCH   7   8
ENDBRANCH   1   7
BRANCH   6  13
ATOM     13  N   LIG d   1      -5.292  75.577 117.649  0.00  0.00    -0.311 N 
ATOM     14  C   LIG d   1      -4.158  75.555 116.951  0.00  0.00     0.210 C 
ATOM     15  C   LIG d   1      -3.092  74.590 117.478  0.00  0.00     0.109 C 
ATOM     16  O   LIG d   1      -3.922  76.267 115.963  0.00  0.00    -0.276 OA
ATOM     17  H   LIG d   1      -5.386  74.991 118.455  0.00  0.00     0.149 HD
ENDBRANCH   6  13
BRANCH   5  18
ATOM     18  N   LIG d   1      -5.318  78.630 117.765  0.00  0.00     0.381 N 
ATOM     19  H   LIG d   1      -4.474  78.200 118.087  0.00  0.00    -0.090 HD
ATOM     20  H   LIG d   1      -5.429  79.505 118.248  0.00  0.00    -0.090 HD
ATOM     21  H   LIG d   1      -5.266  78.788 116.783  0.00  0.00    -0.090 HD
ENDBRANCH   5  18
BRANCH   3  22
ATOM     22  C   LIG d   1     -10.085  78.427 118.176  0.00  0.00     0.382 C 
ATOM     23  O   LIG d   1     -10.223  79.644 117.904  0.00  0.00    -0.241 OA
ATOM     24  O   LIG d   1     -10.994  77.827 118.781  0.00  0.00    -0.241 OA
ENDBRANCH   3  22
TORSDOF 7
ENDMDL
MODEL 3
REMARK VINA RESULT:      -5.0     14.711     17.247
REMARK  7 active torsions:
REMARK  status: ('A' for Active; 'I' for Inactive)
REMARK    1  A    between atoms: C_2  and  C_3 
REMARK    2  A    between atoms: C_3  and  O_6 
REMARK    3  A    between atoms: C_3  and  C_4 
REMARK    4  A    between atoms: C_7  and  O_6 
REMARK    5  A    between atoms: C_9  and  C_10 
REMARK    6  A    between atoms: N_15  and  C_14 
REMARK    7  A    between atoms: N_20  and  C_19 
REMARK       I    between atoms: C_22  and  N_20 
ROOT
ATOM      1  C   LIG d   1      -8.178  76.140 117.207  0.00  0.00     0.161 C 
ATOM      2  C   LIG d   1      -8.623  74.825 116.991  0.00  0.00     0.016 C 
ATOM      3  C   LIG d   1      -7.763  73.761 116.633  0.00  0.00     0.038 C 
ATOM      4  C   LIG d   1      -6.368  73.909 116.616  0.00  0.00     0.028 C 
ATOM      5  C   LIG d   1      -5.914  75.338 116.334  0.00  0.00    -0.047 C 
ATOM      6  C   LIG d   1      -6.645  76.297 117.301  0.00  0.00     0.091 C 
ENDROOT
BRANCH   1   7
ATOM      7  O   LIG d   1      -8.810  76.682 118.384  0.00  0.00    -0.368 OA
BRANCH   7   8
ATOM      8  C   LIG d   1      -9.804  77.711 118.156  0.00  0.00     0.119 C 
BRANCH   8   9
ATOM      9  C   LIG d   1      -9.255  79.024 118.747  0.00  0.00     0.028 C 
ATOM     10  C   LIG d   1      -9.530  80.236 117.840  0.00  0.00     0.006 C 
ENDBRANCH   8   9
BRANCH   8  11
ATOM     11  C   LIG d   1     -11.092  77.424 118.933  0.00  0.00     0.028 C 
ATOM     12  C   LIG d   1     -11.058  77.976 120.367  0.00  0.00     0.006 C 
ENDBRANCH   8  11
ENDBRANCH   7   8
ENDBRANCH   1   7
BRANCH   6  13
ATOM     13  N   LIG d   1      -6.322  77.723 117.038  0.00  0.00    -0.311 N 
ATOM     14  C   LIG d   1      -5.774  78.530 117.945  0.00  0.00     0.210 C 
ATOM     15  C   LIG d   1      -5.542  79.969 117.473  0.00  0.00     0.109 C 
ATOM     16  O   LIG d   1      -5.429  78.183 119.084  0.00  0.00    -0.276 OA
ATOM     17  H   LIG d   1      -6.540  78.080 116.128  0.00  0.00     0.149 HD
ENDBRANCH   6  13
BRANCH   5  18
ATOM     18  N   LIG d   1      -4.447  75.376 116.482  0.00  0.00     0.381 N 
ATOM     19  H   LIG d   1      -4.015  75.332 115.580  0.00  0.00    -0.090 HD
ATOM     20  H   LIG d   1      -4.152  74.576 117.013  0.00  0.00    -0.090 HD
ATOM     21  H   LIG d   1      -4.173  76.213 116.948  0.00  0.00    -0.090 HD
ENDBRANCH   5  18
BRANCH   3  22
ATOM     22  C   LIG d   1      -8.300  72.542 116.250  0.00  0.00     0.382 C 
ATOM     23  O   LIG d   1      -9.528  72.327 116.390  0.00  0.00    -0.241 OA
ATOM     24  O   LIG d   1      -7.566  71.639 115.807  0.00  0.00    -0.241 OA
ENDBRANCH   3  22
TORSDOF 7
ENDMDL
MODEL 4
REMARK VINA RESULT:      -5.0     15.296     17.994
REMARK  7 active torsions:
REMARK  status: ('A' for Active; 'I' for Inactive)
REMARK    1  A    between atoms: C_2  and  C_3 
REMARK    2  A    between atoms: C_3  and  O_6 
REMARK    3  A    between atoms: C_3  and  C_4 
REMARK    4  A    between atoms: C_7  and  O_6 
REMARK    5  A    between atoms: C_9  and  C_10 
REMARK    6  A    between atoms: N_15  and  C_14 
REMARK    7  A    between atoms: N_20  and  C_19 
REMARK       I    between atoms: C_22  and  N_20 
ROOT
ATOM      1  C   LIG d   1      -6.063  75.875 116.275  0.00  0.00     0.161 C 
ATOM      2  C   LIG d   1      -4.804  75.263 116.164  0.00  0.00     0.016 C 
ATOM      3  C   LIG d   1      -3.816  75.326 117.173  0.00  0.00     0.038 C 
ATOM      4  C   LIG d   1      -4.079  75.881 118.435  0.00  0.00     0.028 C 
ATOM      5  C   LIG d   1      -5.164  76.953 118.410  0.00  0.00    -0.047 C 
ATOM      6  C   LIG d   1      -6.409  76.390 117.688  0.00  0.00     0.091 C 
ENDROOT
BRANCH   1   7
ATOM      7  O   LIG d   1      -7.087  74.975 115.806  0.00  0.00    -0.368 OA
BRANCH   7   8
ATOM      8  C   LIG d   1      -7.386  73.847 116.664  0.00  0.00     0.119 C 
BRANCH   8   9
ATOM      9  C   LIG d   1      -7.009  72.566 115.894  0.00  0.00     0.028 C 
ATOM     10  C   LIG d   1      -5.847  71.805 116.554  0.00  0.00     0.006 C 
ENDBRANCH   8   9
BRANCH   8  11
ATOM     11  C   LIG d   1      -8.890  73.732 116.930  0.00  0.00     0.028 C 
ATOM     12  C   LIG d   1      -9.455  72.350 116.566  0.00  0.00     0.006 C 
ENDBRANCH   8  11
ENDBRANCH   7   8
ENDBRANCH   1   7
BRANCH   6  13
ATOM     13  N   LIG d   1      -7.488  77.403 117.546  0.00  0.00    -0.311 N 
ATOM     14  C   LIG d   1      -8.507  77.512 118.396  0.00  0.00     0.210 C 
ATOM     15  C   LIG d   1      -9.519  78.610 118.054  0.00  0.00     0.109 C 
ATOM     16  O   LIG d   1      -8.652  76.826 119.418  0.00  0.00    -0.276 OA
ATOM     17  H   LIG d   1      -7.432  78.022 116.761  0.00  0.00     0.149 HD
ENDBRANCH   6  13
BRANCH   5  18
ATOM     18  N   LIG d   1      -5.433  77.347 119.806  0.00  0.00     0.381 N 
ATOM     19  H   LIG d   1      -5.074  76.651 120.429  0.00  0.00    -0.090 HD
ATOM     20  H   LIG d   1      -6.427  77.407 119.941  0.00  0.00    -0.090 HD
ATOM     21  H   LIG d   1      -5.009  78.227 120.000  0.00  0.00    -0.090 HD
ENDBRANCH   5  18
BRANCH   3  22
ATOM     22  C   LIG d   1      -2.535  74.864 116.911  0.00  0.00     0.382 C 
ATOM     23  O   LIG d   1      -1.936  75.233 115.872  0.00  0.00    -0.241 OA
ATOM     24  O   LIG d   1      -1.988  74.050 117.678  0.00  0.00    -0.241 OA
ENDBRANCH   3  22
TORSDOF 7
ENDMDL
MODEL 5
REMARK VINA RESULT:      -4.8      2.280      5.874
REMARK  7 active torsions:
REMARK  status: ('A' for Active; 'I' for Inactive)
REMARK    1  A    between atoms: C_2  and  C_3 
REMARK    2  A    between atoms: C_3  and  O_6 
REMARK    3  A    between atoms: C_3  and  C_4 
REMARK    4  A    between atoms: C_7  and  O_6 
REMARK    5  A    between atoms: C_9  and  C_10 
REMARK    6  A    between atoms: N_15  and  C_14 
REMARK    7  A    between atoms: N_20  and  C_19 
REMARK       I    between atoms: C_22  and  N_20 
ROOT
ATOM      1  C   LIG d   1      -5.457  91.860 119.451  0.00  0.00     0.161 C 
ATOM      2  C   LIG d   1      -4.518  91.140 118.695  0.00  0.00     0.016 C 
ATOM      3  C   LIG d   1      -4.609  90.974 117.293  0.00  0.00     0.038 C 
ATOM      4  C   LIG d   1      -5.572  91.649 116.528  0.00  0.00     0.028 C 
ATOM      5  C   LIG d   1      -6.841  91.980 117.306  0.00  0.00    -0.047 C 
ATOM      6  C   LIG d   1      -6.452  92.697 118.619  0.00  0.00     0.091 C 
ENDROOT
BRANCH   1   7
ATOM      7  O   LIG d   1      -4.777  92.696 120.407  0.00  0.00    -0.368 OA
BRANCH   7   8
ATOM      8  C   LIG d   1      -4.305  93.975 119.915  0.00  0.00     0.119 C 
BRANCH   8   9
ATOM      9  C   LIG d   1      -2.766  93.959 119.987  0.00  0.00     0.028 C 
ATOM     10  C   LIG d   1      -2.115  93.794 118.603  0.00  0.00     0.006 C 
ENDBRANCH   8   9
BRANCH   8  11
ATOM     11  C   LIG d   1      -4.743  95.121 120.831  0.00  0.00     0.028 C 
ATOM     12  C   LIG d   1      -5.631  94.649 121.993  0.00  0.00     0.006 C 
ENDBRANCH   8  11
ENDBRANCH   7   8
ENDBRANCH   1   7
BRANCH   6  13
ATOM     13  N   LIG d   1      -7.630  92.981 119.480  0.00  0.00    -0.311 N 
ATOM     14  C   LIG d   1      -8.256  94.157 119.502  0.00  0.00     0.210 C 
ATOM     15  C   LIG d   1      -9.435  94.244 120.475  0.00  0.00     0.109 C 
ATOM     16  O   LIG d   1      -7.966  95.125 118.783  0.00  0.00    -0.276 OA
ATOM     17  H   LIG d   1      -7.952  92.240 120.072  0.00  0.00     0.149 HD
ENDBRANCH   6  13
BRANCH   5  18
ATOM     18  N   LIG d   1      -7.698  92.802 116.431  0.00  0.00     0.381 N 
ATOM     19  H   LIG d   1      -8.016  92.254 115.657  0.00  0.00    -0.090 HD
ATOM     20  H   LIG d   1      -7.157  93.569 116.073  0.00  0.00    -0.090 HD
ATOM     21  H   LIG d   1      -8.479  93.147 116.945  0.00  0.00    -0.090 HD
ENDBRANCH   5  18
BRANCH   3  22
ATOM     22  C   LIG d   1      -3.755  90.092 116.649  0.00  0.00     0.382 C 
ATOM     23  O   LIG d   1      -4.210  89.282 115.805  0.00  0.00    -0.241 OA
ATOM     24  O   LIG d   1      -2.543  90.066 116.932  0.00  0.00    -0.241 OA
ENDBRANCH   3  22
TORSDOF 7
ENDMDL
MODEL 6
REMARK VINA RESULT:      -4.8     14.734     17.155
REMARK  7 active torsions:
REMARK  status: ('A' for Active; 'I' for Inactive)
REMARK    1  A    between atoms: C_2  and  C_3 
REMARK    2  A    between atoms: C_3  and  O_6 
REMARK    3  A    between atoms: C_3  and  C_4 
REMARK    4  A    between atoms: C_7  and  O_6 
REMARK    5  A    between atoms: C_9  and  C_10 
REMARK    6  A    between atoms: N_15  and  C_14 
REMARK    7  A    between atoms: N_20  and  C_19 
REMARK       I    between atoms: C_22  and  N_20 
ROOT
ATOM      1  C   LIG d   1      -7.312  76.569 116.767  0.00  0.00     0.161 C 
ATOM      2  C   LIG d   1      -8.215  75.497 116.854  0.00  0.00     0.016 C 
ATOM      3  C   LIG d   1      -7.811  74.148 116.979  0.00  0.00     0.038 C 
ATOM      4  C   LIG d   1      -6.469  73.791 117.179  0.00  0.00     0.028 C 
ATOM      5  C   LIG d   1      -5.482  74.795 116.593  0.00  0.00    -0.047 C 
ATOM      6  C   LIG d   1      -5.848  76.210 117.095  0.00  0.00     0.091 C 
ENDROOT
BRANCH   1   7
ATOM      7  O   LIG d   1      -7.761  77.655 117.602  0.00  0.00    -0.368 OA
BRANCH   7   8
ATOM      8  C   LIG d   1      -8.757  77.321 118.601  0.00  0.00     0.119 C 
BRANCH   8   9
ATOM      9  C   LIG d   1      -9.949  78.277 118.402  0.00  0.00     0.028 C 
ATOM     10  C   LIG d   1      -9.503  79.710 118.067  0.00  0.00     0.006 C 
ENDBRANCH   8   9
BRANCH   8  11
ATOM     11  C   LIG d   1      -8.243  77.602 120.016  0.00  0.00     0.028 C 
ATOM     12  C   LIG d   1      -7.272  76.524 120.522  0.00  0.00     0.006 C 
ENDBRANCH   8  11
ENDBRANCH   7   8
ENDBRANCH   1   7
BRANCH   6  13
ATOM     13  N   LIG d   1      -4.983  77.263 116.501  0.00  0.00    -0.311 N 
ATOM     14  C   LIG d   1      -3.875  77.717 117.085  0.00  0.00     0.210 C 
ATOM     15  C   LIG d   1      -3.142  78.818 116.313  0.00  0.00     0.109 C 
ATOM     16  O   LIG d   1      -3.413  77.290 118.154  0.00  0.00    -0.276 OA
ATOM     17  H   LIG d   1      -5.267  77.643 115.620  0.00  0.00     0.149 HD
ENDBRANCH   6  13
BRANCH   5  18
ATOM     18  N   LIG d   1      -4.127  74.372 116.992  0.00  0.00     0.381 N 
ATOM     19  H   LIG d   1      -4.124  74.112 117.958  0.00  0.00    -0.090 HD
ATOM     20  H   LIG d   1      -3.496  75.145 116.871  0.00  0.00    -0.090 HD
ATOM     21  H   LIG d   1      -3.831  73.602 116.433  0.00  0.00    -0.090 HD
ENDBRANCH   5  18
BRANCH   3  22
ATOM     22  C   LIG d   1      -8.752  73.135 116.865  0.00  0.00     0.382 C 
ATOM     23  O   LIG d   1      -8.513  72.135 116.146  0.00  0.00    -0.241 OA
ATOM     24  O   LIG d   1      -9.854  73.230 117.437  0.00  0.00    -0.241 OA
ENDBRANCH   3  22
TORSDOF 7
ENDMDL
MODEL 7
REMARK VINA RESULT:      -4.8      2.221      4.174
REMARK  7 active torsions:
REMARK  status: ('A' for Active; 'I' for Inactive)
REMARK    1  A    between atoms: C_2  and  C_3 
REMARK    2  A    between atoms: C_3  and  O_6 
REMARK    3  A    between atoms: C_3  and  C_4 
REMARK    4  A    between atoms: C_7  and  O_6 
REMARK    5  A    between atoms: C_9  and  C_10 
REMARK    6  A    between atoms: N_15  and  C_14 
REMARK    7  A    between atoms: N_20  and  C_19 
REMARK       I    between atoms: C_22  and  N_20 
ROOT
ATOM      1  C   LIG d   1      -5.075  92.591 119.077  0.00  0.00     0.161 C 
ATOM      2  C   LIG d   1      -6.223  93.349 118.792  0.00  0.00     0.016 C 
ATOM      3  C   LIG d   1      -7.018  93.154 117.639  0.00  0.00     0.038 C 
ATOM      4  C   LIG d   1      -6.803  92.079 116.764  0.00  0.00     0.028 C 
ATOM      5  C   LIG d   1      -5.356  91.598 116.740  0.00  0.00    -0.047 C 
ATOM      6  C   LIG d   1      -4.889  91.342 118.191  0.00  0.00     0.091 C 
ENDROOT
BRANCH   1   7
ATOM      7  O   LIG d   1      -5.067  92.222 120.471  0.00  0.00    -0.368 OA
BRANCH   7   8
ATOM      8  C   LIG d   1      -4.050  92.850 121.290  0.00  0.00     0.119 C 
BRANCH   8   9
ATOM      9  C   LIG d   1      -4.760  93.852 122.221  0.00  0.00     0.028 C 
ATOM     10  C   LIG d   1      -4.505  95.313 121.814  0.00  0.00     0.006 C 
ENDBRANCH   8   9
BRANCH   8  11
ATOM     11  C   LIG d   1      -3.093  93.693 120.442  0.00  0.00     0.028 C 
ATOM     12  C   LIG d   1      -1.641  93.192 120.507  0.00  0.00     0.006 C 
ENDBRANCH   8  11
ENDBRANCH   7   8
ENDBRANCH   1   7
BRANCH   6  13
ATOM     13  N   LIG d   1      -3.457  90.948 118.264  0.00  0.00    -0.311 N 
ATOM     14  C   LIG d   1      -3.026  89.872 118.920  0.00  0.00     0.210 C 
ATOM     15  C   LIG d   1      -1.509  89.660 118.887  0.00  0.00     0.109 C 
ATOM     16  O   LIG d   1      -3.758  89.056 119.500  0.00  0.00    -0.276 OA
ATOM     17  H   LIG d   1      -2.798  91.537 117.796  0.00  0.00     0.149 HD
ENDBRANCH   6  13
BRANCH   5  18
ATOM     18  N   LIG d   1      -5.302  90.390 115.894  0.00  0.00     0.381 N 
ATOM     19  H   LIG d   1      -4.455  89.890 116.072  0.00  0.00    -0.090 HD
ATOM     20  H   LIG d   1      -5.307  90.670 114.929  0.00  0.00    -0.090 HD
ATOM     21  H   LIG d   1      -6.087  89.806 116.083  0.00  0.00    -0.090 HD
ENDBRANCH   5  18
BRANCH   3  22
ATOM     22  C   LIG d   1      -8.017  94.064 117.332  0.00  0.00     0.382 C 
ATOM     23  O   LIG d   1      -8.175  95.087 118.042  0.00  0.00    -0.241 OA
ATOM     24  O   LIG d   1      -8.792  93.854 116.380  0.00  0.00    -0.241 OA
ENDBRANCH   3  22
TORSDOF 7
ENDMDL
MODEL 8
REMARK VINA RESULT:      -4.7      2.293      4.578
REMARK  7 active torsions:
REMARK  status: ('A' for Active; 'I' for Inactive)
REMARK    1  A    between atoms: C_2  and  C_3 
REMARK    2  A    between atoms: C_3  and  O_6 
REMARK    3  A    between atoms: C_3  and  C_4 
REMARK    4  A    between atoms: C_7  and  O_6 
REMARK    5  A    between atoms: C_9  and  C_10 
REMARK    6  A    between atoms: N_15  and  C_14 
REMARK    7  A    between atoms: N_20  and  C_19 
REMARK       I    between atoms: C_22  and  N_20 
ROOT
ATOM      1  C   LIG d   1      -5.656  92.222 119.295  0.00  0.00     0.161 C 
ATOM      2  C   LIG d   1      -5.880  91.321 118.241  0.00  0.00     0.016 C 
ATOM      3  C   LIG d   1      -6.717  91.607 117.138  0.00  0.00     0.038 C 
ATOM      4  C   LIG d   1      -7.273  92.879 116.939  0.00  0.00     0.028 C 
ATOM      5  C   LIG d   1      -7.483  93.658 118.233  0.00  0.00    -0.047 C 
ATOM      6  C   LIG d   1      -6.165  93.656 119.040  0.00  0.00     0.091 C 
ENDROOT
BRANCH   1   7
ATOM      7  O   LIG d   1      -4.255  92.240 119.633  0.00  0.00    -0.368 OA
BRANCH   7   8
ATOM      8  C   LIG d   1      -3.451  91.172 119.076  0.00  0.00     0.119 C 
BRANCH   8   9
ATOM      9  C   LIG d   1      -2.928  90.324 120.251  0.00  0.00     0.028 C 
ATOM     10  C   LIG d   1      -3.110  88.815 120.014  0.00  0.00     0.006 C 
ENDBRANCH   8   9
BRANCH   8  11
ATOM     11  C   LIG d   1      -2.199  91.720 118.383  0.00  0.00     0.028 C 
ATOM     12  C   LIG d   1      -2.173  93.255 118.326  0.00  0.00     0.006 C 
ENDBRANCH   8  11
ENDBRANCH   7   8
ENDBRANCH   1   7
BRANCH   6  13
ATOM     13  N   LIG d   1      -6.306  94.325 120.360  0.00  0.00    -0.311 N 
ATOM     14  C   LIG d   1      -6.007  95.606 120.568  0.00  0.00     0.210 C 
ATOM     15  C   LIG d   1      -6.207  96.090 122.008  0.00  0.00     0.109 C 
ATOM     16  O   LIG d   1      -5.626  96.395 119.691  0.00  0.00    -0.276 OA
ATOM     17  H   LIG d   1      -6.640  93.766 121.121  0.00  0.00     0.149 HD
ENDBRANCH   6  13
BRANCH   5  18
ATOM     18  N   LIG d   1      -7.937  95.014 117.869  0.00  0.00     0.381 N 
ATOM     19  H   LIG d   1      -8.540  94.967 117.072  0.00  0.00    -0.090 HD
ATOM     20  H   LIG d   1      -7.136  95.570 117.627  0.00  0.00    -0.090 HD
ATOM     21  H   LIG d   1      -8.419  95.429 118.636  0.00  0.00    -0.090 HD
ENDBRANCH   5  18
BRANCH   3  22
ATOM     22  C   LIG d   1      -7.039  90.600 116.241  0.00  0.00     0.382 C 
ATOM     23  O   LIG d   1      -8.212  90.498 115.807  0.00  0.00    -0.241 OA
ATOM     24  O   LIG d   1      -6.182  89.765 115.894  0.00  0.00    -0.241 OA
ENDBRANCH   3  22
TORSDOF 7
ENDMDL
MODEL 9
REMARK VINA RESULT:      -4.6     14.542     16.865
REMARK  7 active torsions:
REMARK  status: ('A' for Active; 'I' for Inactive)
REMARK    1  A    between atoms: C_2  and  C_3 
REMARK    2  A    between atoms: C_3  and  O_6 
REMARK    3  A    between atoms: C_3  and  C_4 
REMARK    4  A    between atoms: C_7  and  O_6 
REMARK    5  A    between atoms: C_9  and  C_10 
REMARK    6  A    between atoms: N_15  and  C_14 
REMARK    7  A    between atoms: N_20  and  C_19 
REMARK       I    between atoms: C_22  and  N_20 
ROOT
ATOM      1  C   LIG d   1      -6.869  76.633 117.606  0.00  0.00     0.161 C 
ATOM      2  C   LIG d   1      -7.238  77.945 117.945  0.00  0.00     0.016 C 
ATOM      3  C   LIG d   1      -8.579  78.392 117.976  0.00  0.00     0.038 C 
ATOM      4  C   LIG d   1      -9.659  77.511 117.815  0.00  0.00     0.028 C 
ATOM      5  C   LIG d   1      -9.320  76.286 116.973  0.00  0.00    -0.047 C 
ATOM      6  C   LIG d   1      -8.038  75.629 117.536  0.00  0.00     0.091 C 
ENDROOT
BRANCH   1   7
ATOM      7  O   LIG d   1      -5.856  76.160 118.516  0.00  0.00    -0.368 OA
BRANCH   7   8
ATOM      8  C   LIG d   1      -4.484  76.296 118.070  0.00  0.00     0.119 C 
BRANCH   8   9
ATOM      9  C   LIG d   1      -4.106  74.996 117.333  0.00  0.00     0.028 C 
ATOM     10  C   LIG d   1      -4.093  75.170 115.805  0.00  0.00     0.006 C 
ENDBRANCH   8   9
BRANCH   8  11
ATOM     11  C   LIG d   1      -3.519  76.385 119.255  0.00  0.00     0.028 C 
ATOM     12  C   LIG d   1      -2.108  76.832 118.842  0.00  0.00     0.006 C 
ENDBRANCH   8  11
ENDBRANCH   7   8
ENDBRANCH   1   7
BRANCH   6  13
ATOM     13  N   LIG d   1      -7.589  74.471 116.719  0.00  0.00    -0.311 N 
ATOM     14  C   LIG d   1      -7.928  73.211 116.986  0.00  0.00     0.210 C 
ATOM     15  C   LIG d   1      -7.341  72.168 116.030  0.00  0.00     0.109 C 
ATOM     16  O   LIG d   1      -8.685  72.861 117.903  0.00  0.00    -0.276 OA
ATOM     17  H   LIG d   1      -6.997  74.668 115.937  0.00  0.00     0.149 HD
ENDBRANCH   6  13
BRANCH   5  18
ATOM     18  N   LIG d   1     -10.490  75.388 117.002  0.00  0.00     0.381 N 
ATOM     19  H   LIG d   1     -11.320  75.919 117.175  0.00  0.00    -0.090 HD
ATOM     20  H   LIG d   1     -10.376  74.729 117.752  0.00  0.00    -0.090 HD
ATOM     21  H   LIG d   1     -10.570  74.904 116.135  0.00  0.00    -0.090 HD
ENDBRANCH   5  18
BRANCH   3  22
ATOM     22  C   LIG d   1      -8.849  79.744 118.130  0.00  0.00     0.382 C 
ATOM     23  O   LIG d   1      -8.062  80.598 117.656  0.00  0.00    -0.241 OA
ATOM     24  O   LIG d   1      -9.847  80.119 118.775  0.00  0.00    -0.241 OA
ENDBRANCH   3  22
TORSDOF 7
ENDMDL
