MODEL 1
REMARK VINA RESULT:      -5.6      0.000      0.000
REMARK  7 active torsions:
REMARK  status: ('A' for Active; 'I' for Inactive)
REMARK    1  A    between atoms: C_2  and  C_3 
REMARK    2  A    between atoms: C_3  and  O_6 
REMARK    3  A    between atoms: C_3  and  C_4 
REMARK    4  A    between atoms: C_7  and  O_6 
REMARK    5  A    between atoms: C_9  and  C_10 
REMARK    6  A    between atoms: N_15  and  C_14 
REMARK    7  A    between atoms: N_20  and  C_19 
REMARK       I    between atoms: C_22  and  N_20 
ROOT
ATOM      1  C   LIG d   1      -8.058  76.390 118.012  0.00  0.00     0.161 C 
ATOM      2  C   LIG d   1      -9.412  76.196 118.335  0.00  0.00     0.016 C 
ATOM      3  C   LIG d   1     -10.269  77.239 118.753  0.00  0.00     0.038 C 
ATOM      4  C   LIG d   1      -9.868  78.583 118.732  0.00  0.00     0.028 C 
ATOM      5  C   LIG d   1      -8.363  78.768 118.897  0.00  0.00    -0.047 C 
ATOM      6  C   LIG d   1      -7.632  77.867 117.876  0.00  0.00     0.091 C 
ENDROOT
BRANCH   1   7
ATOM      7  O   LIG d   1      -7.733  75.662 116.812  0.00  0.00    -0.368 OA
BRANCH   7   8
ATOM      8  C   LIG d   1      -7.170  74.340 117.001  0.00  0.00     0.119 C 
BRANCH   8   9
ATOM      9  C   LIG d   1      -6.241  74.057 115.805  0.00  0.00     0.028 C 
ATOM     10  C   LIG d   1      -4.755  74.240 116.159  0.00  0.00     0.006 C 
ENDBRANCH   8   9
BRANCH   8  11
ATOM     11  C   LIG d   1      -8.252  73.259 116.939  0.00  0.00     0.028 C 
ATOM     12  C   LIG d   1      -7.691  71.873 116.585  0.00  0.00     0.006 C 
ENDBRANCH   8  11
ENDBRANCH   7   8
ENDBRANCH   1   7
BRANCH   6  13
ATOM     13  N   LIG d   1      -6.154  77.923 118.026  0.00  0.00    -0.311 N 
ATOM     14  C   LIG d   1      -5.310  77.866 116.998  0.00  0.00     0.210 C 
ATOM     15  C   LIG d   1      -3.826  77.921 117.375  0.00  0.00     0.109 C 
ATOM     16  O   LIG d   1      -5.650  77.808 115.806  0.00  0.00    -0.276 OA
ATOM     17  H   LIG d   1      -5.793  78.002 118.957  0.00  0.00     0.149 HD
ENDBRANCH   6  13
BRANCH   5  18
ATOM     18  N   LIG d   1      -8.068  80.202 118.718  0.00  0.00     0.381 N 
ATOM     19  H   LIG d   1      -7.118  80.319 118.427  0.00  0.00    -0.090 HD
ATOM     20  H   LIG d   1      -8.188  80.671 119.598  0.00  0.00    -0.090 HD
ATOM     21  H   LIG d   1      -8.682  80.594 118.038  0.00  0.00    -0.090 HD
ENDBRANCH   5  18
BRANCH   3  22
ATOM     22  C   LIG d   1     -11.533  76.937 119.237  0.00  0.00     0.382 C 
ATOM     23  O   LIG d   1     -11.732  76.875 120.475  0.00  0.00    -0.241 OA
ATOM     24  O   LIG d   1     -12.466  76.683 118.452  0.00  0.00    -0.241 OA
ENDBRANCH   3  22
TORSDOF 7
ENDMDL
MODEL 2
REMARK VINA RESULT:      -5.4      2.500      5.518
REMARK  7 active torsions:
REMARK  status: ('A' for Active; 'I' for Inactive)
REMARK    1  A    between atoms: C_2  and  C_3 
REMARK    2  A    between atoms: C_3  and  O_6 
REMARK    3  A    between atoms: C_3  and  C_4 
REMARK    4  A    between atoms: C_7  and  O_6 
REMARK    5  A    between atoms: C_9  and  C_10 
REMARK    6  A    between atoms: N_15  and  C_14 
REMARK    7  A    between atoms: N_20  and  C_19 
REMARK       I    between atoms: C_22  and  N_20 
ROOT
ATOM      1  C   LIG d   1      -8.048  78.156 118.119  0.00  0.00     0.161 C 
ATOM      2  C   LIG d   1      -7.651  76.933 117.552  0.00  0.00     0.016 C 
ATOM      3  C   LIG d   1      -8.493  75.799 117.480  0.00  0.00     0.038 C 
ATOM      4  C   LIG d   1      -9.849  75.859 117.837  0.00  0.00     0.028 C 
ATOM      5  C   LIG d   1     -10.154  76.927 118.882  0.00  0.00    -0.047 C 
ATOM      6  C   LIG d   1      -9.558  78.273 118.412  0.00  0.00     0.091 C 
ENDROOT
BRANCH   1   7
ATOM      7  O   LIG d   1      -7.613  79.246 117.281  0.00  0.00    -0.368 OA
BRANCH   7   8
ATOM      8  C   LIG d   1      -6.552  80.075 117.815  0.00  0.00     0.119 C 
BRANCH   8   9
ATOM      9  C   LIG d   1      -6.896  81.539 117.481  0.00  0.00     0.028 C 
ATOM     10  C   LIG d   1      -6.869  82.446 118.723  0.00  0.00     0.006 C 
ENDBRANCH   8   9
BRANCH   8  11
ATOM     11  C   LIG d   1      -5.221  79.800 117.107  0.00  0.00     0.028 C 
ATOM     12  C   LIG d   1      -4.112  79.357 118.074  0.00  0.00     0.006 C 
ENDBRANCH   8  11
ENDBRANCH   7   8
ENDBRANCH   1   7
BRANCH   6  13
ATOM     13  N   LIG d   1      -9.738  79.354 119.416  0.00  0.00    -0.311 N 
ATOM     14  C   LIG d   1     -10.120  80.591 119.101  0.00  0.00     0.210 C 
ATOM     15  C   LIG d   1     -10.225  81.556 120.286  0.00  0.00     0.109 C 
ATOM     16  O   LIG d   1     -10.413  80.971 117.958  0.00  0.00    -0.276 OA
ATOM     17  H   LIG d   1      -9.552  79.124 120.372  0.00  0.00     0.149 HD
ENDBRANCH   6  13
BRANCH   5  18
ATOM     18  N   LIG d   1     -11.618  76.972 119.058  0.00  0.00     0.381 N 
ATOM     19  H   LIG d   1     -11.951  76.078 119.359  0.00  0.00    -0.090 HD
ATOM     20  H   LIG d   1     -12.045  77.187 118.174  0.00  0.00    -0.090 HD
ATOM     21  H   LIG d   1     -11.859  77.668 119.729  0.00  0.00    -0.090 HD
ENDBRANCH   5  18
BRANCH   3  22
ATOM     22  C   LIG d   1      -7.970  74.578 117.084  0.00  0.00     0.382 C 
ATOM     23  O   LIG d   1      -8.500  73.511 117.478  0.00  0.00    -0.241 OA
ATOM     24  O   LIG d   1      -6.947  74.529 116.375  0.00  0.00    -0.241 OA
ENDBRANCH   3  22
TORSDOF 7
ENDMDL
MODEL 3
REMARK VINA RESULT:      -5.3      2.147      5.039
REMARK  7 active torsions:
REMARK  status: ('A' for Active; 'I' for Inactive)
REMARK    1  A    between atoms: C_2  and  C_3 
REMARK    2  A    between atoms: C_3  and  O_6 
REMARK    3  A    between atoms: C_3  and  C_4 
REMARK    4  A    between atoms: C_7  and  O_6 
REMARK    5  A    between atoms: C_9  and  C_10 
REMARK    6  A    between atoms: N_15  and  C_14 
REMARK    7  A    between atoms: N_20  and  C_19 
REMARK       I    between atoms: C_22  and  N_20 
ROOT
ATOM      1  C   LIG d   1      -8.288  75.716 117.542  0.00  0.00     0.161 C 
ATOM      2  C   LIG d   1      -8.730  74.388 117.425  0.00  0.00     0.016 C 
ATOM      3  C   LIG d   1      -7.965  73.364 116.821  0.00  0.00     0.038 C 
ATOM      4  C   LIG d   1      -6.634  73.567 116.425  0.00  0.00     0.028 C 
ATOM      5  C   LIG d   1      -6.324  75.016 116.064  0.00  0.00    -0.047 C 
ATOM      6  C   LIG d   1      -6.795  75.932 117.217  0.00  0.00     0.091 C 
ENDROOT
BRANCH   1   7
ATOM      7  O   LIG d   1      -8.591  76.218 118.859  0.00  0.00    -0.368 OA
BRANCH   7   8
ATOM      8  C   LIG d   1      -9.775  77.046 118.968  0.00  0.00     0.119 C 
BRANCH   8   9
ATOM      9  C   LIG d   1      -9.314  78.516 118.952  0.00  0.00     0.028 C 
ATOM     10  C   LIG d   1     -10.320  79.455 119.639  0.00  0.00     0.006 C 
ENDBRANCH   8   9
BRANCH   8  11
ATOM     11  C   LIG d   1     -10.468  76.853 120.320  0.00  0.00     0.028 C 
ATOM     12  C   LIG d   1      -9.532  76.271 121.391  0.00  0.00     0.006 C 
ENDBRANCH   8  11
ENDBRANCH   7   8
ENDBRANCH   1   7
BRANCH   6  13
ATOM     13  N   LIG d   1      -6.606  77.373 116.908  0.00  0.00    -0.311 N 
ATOM     14  C   LIG d   1      -5.764  78.161 117.575  0.00  0.00     0.210 C 
ATOM     15  C   LIG d   1      -5.737  79.620 117.108  0.00  0.00     0.109 C 
ATOM     16  O   LIG d   1      -5.013  77.784 118.487  0.00  0.00    -0.276 OA
ATOM     17  H   LIG d   1      -7.153  77.756 116.162  0.00  0.00     0.149 HD
ENDBRANCH   6  13
BRANCH   5  18
ATOM     18  N   LIG d   1      -4.875  75.110 115.805  0.00  0.00     0.381 N 
ATOM     19  H   LIG d   1      -4.714  75.631 114.966  0.00  0.00    -0.090 HD
ATOM     20  H   LIG d   1      -4.507  74.184 115.677  0.00  0.00    -0.090 HD
ATOM     21  H   LIG d   1      -4.420  75.554 116.572  0.00  0.00    -0.090 HD
ENDBRANCH   5  18
BRANCH   3  22
ATOM     22  C   LIG d   1      -8.545  72.129 116.570  0.00  0.00     0.382 C 
ATOM     23  O   LIG d   1      -9.756  71.941 116.835  0.00  0.00    -0.241 OA
ATOM     24  O   LIG d   1      -7.861  71.189 116.124  0.00  0.00    -0.241 OA
ENDBRANCH   3  22
TORSDOF 7
ENDMDL
MODEL 4
REMARK VINA RESULT:      -5.1      2.443      4.976
REMARK  7 active torsions:
REMARK  status: ('A' for Active; 'I' for Inactive)
REMARK    1  A    between atoms: C_2  and  C_3 
REMARK    2  A    between atoms: C_3  and  O_6 
REMARK    3  A    between atoms: C_3  and  C_4 
REMARK    4  A    between atoms: C_7  and  O_6 
REMARK    5  A    between atoms: C_9  and  C_10 
REMARK    6  A    between atoms: N_15  and  C_14 
REMARK    7  A    between atoms: N_20  and  C_19 
REMARK       I    between atoms: C_22  and  N_20 
ROOT
ATOM      1  C   LIG d   1      -8.658  79.097 118.174  0.00  0.00     0.161 C 
ATOM      2  C   LIG d   1      -9.900  78.666 118.668  0.00  0.00     0.016 C 
ATOM      3  C   LIG d   1     -10.211  77.309 118.915  0.00  0.00     0.038 C 
ATOM      4  C   LIG d   1      -9.242  76.298 118.826  0.00  0.00     0.028 C 
ATOM      5  C   LIG d   1      -8.119  76.621 117.846  0.00  0.00    -0.047 C 
ATOM      6  C   LIG d   1      -7.552  78.021 118.175  0.00  0.00     0.091 C 
ENDROOT
BRANCH   1   7
ATOM      7  O   LIG d   1      -8.223  80.265 118.898  0.00  0.00    -0.368 OA
BRANCH   7   8
ATOM      8  C   LIG d   1      -8.242  81.514 118.164  0.00  0.00     0.119 C 
BRANCH   8   9
ATOM      9  C   LIG d   1      -6.991  82.313 118.578  0.00  0.00     0.028 C 
ATOM     10  C   LIG d   1      -6.101  81.541 119.566  0.00  0.00     0.006 C 
ENDBRANCH   8   9
BRANCH   8  11
ATOM     11  C   LIG d   1      -9.434  82.384 118.577  0.00  0.00     0.028 C 
ATOM     12  C   LIG d   1     -10.465  82.554 117.450  0.00  0.00     0.006 C 
ENDBRANCH   8  11
ENDBRANCH   7   8
ENDBRANCH   1   7
BRANCH   6  13
ATOM     13  N   LIG d   1      -6.506  78.450 117.212  0.00  0.00    -0.311 N 
ATOM     14  C   LIG d   1      -5.221  78.585 117.537  0.00  0.00     0.210 C 
ATOM     15  C   LIG d   1      -4.312  79.057 116.398  0.00  0.00     0.109 C 
ATOM     16  O   LIG d   1      -4.742  78.326 118.651  0.00  0.00    -0.276 OA
ATOM     17  H   LIG d   1      -6.801  78.651 116.276  0.00  0.00     0.149 HD
ENDBRANCH   6  13
BRANCH   5  18
ATOM     18  N   LIG d   1      -7.111  75.549 117.954  0.00  0.00     0.381 N 
ATOM     19  H   LIG d   1      -6.218  75.893 117.661  0.00  0.00    -0.090 HD
ATOM     20  H   LIG d   1      -7.373  74.794 117.346  0.00  0.00    -0.090 HD
ATOM     21  H   LIG d   1      -7.058  75.225 118.895  0.00  0.00    -0.090 HD
ENDBRANCH   5  18
BRANCH   3  22
ATOM     22  C   LIG d   1     -11.515  76.946 119.217  0.00  0.00     0.382 C 
ATOM     23  O   LIG d   1     -11.892  76.901 120.413  0.00  0.00    -0.241 OA
ATOM     24  O   LIG d   1     -12.306  76.621 118.312  0.00  0.00    -0.241 OA
ENDBRANCH   3  22
TORSDOF 7
ENDMDL
MODEL 5
REMARK VINA RESULT:      -5.1      2.953      4.435
REMARK  7 active torsions:
REMARK  status: ('A' for Active; 'I' for Inactive)
REMARK    1  A    between atoms: C_2  and  C_3 
REMARK    2  A    between atoms: C_3  and  O_6 
REMARK    3  A    between atoms: C_3  and  C_4 
REMARK    4  A    between atoms: C_7  and  O_6 
REMARK    5  A    between atoms: C_9  and  C_10 
REMARK    6  A    between atoms: N_15  and  C_14 
REMARK    7  A    between atoms: N_20  and  C_19 
REMARK       I    between atoms: C_22  and  N_20 
ROOT
ATOM      1  C   LIG d   1      -9.327  79.319 118.701  0.00  0.00     0.161 C 
ATOM      2  C   LIG d   1     -10.058  80.509 118.847  0.00  0.00     0.016 C 
ATOM      3  C   LIG d   1      -9.545  81.784 118.514  0.00  0.00     0.038 C 
ATOM      4  C   LIG d   1      -8.311  81.940 117.866  0.00  0.00     0.028 C 
ATOM      5  C   LIG d   1      -7.326  80.813 118.159  0.00  0.00    -0.047 C 
ATOM      6  C   LIG d   1      -8.020  79.458 117.892  0.00  0.00     0.091 C 
ENDROOT
BRANCH   1   7
ATOM      7  O   LIG d   1     -10.166  78.297 118.127  0.00  0.00    -0.368 OA
BRANCH   7   8
ATOM      8  C   LIG d   1     -10.245  77.051 118.861  0.00  0.00     0.119 C 
BRANCH   8   9
ATOM      9  C   LIG d   1     -10.401  75.916 117.831  0.00  0.00     0.028 C 
ATOM     10  C   LIG d   1      -9.094  75.134 117.616  0.00  0.00     0.006 C 
ENDBRANCH   8   9
BRANCH   8  11
ATOM     11  C   LIG d   1     -11.510  76.992 119.724  0.00  0.00     0.028 C 
ATOM     12  C   LIG d   1     -11.202  76.869 121.224  0.00  0.00     0.006 C 
ENDBRANCH   8  11
ENDBRANCH   7   8
ENDBRANCH   1   7
BRANCH   6  13
ATOM     13  N   LIG d   1      -7.154  78.300 118.235  0.00  0.00    -0.311 N 
ATOM     14  C   LIG d   1      -6.380  77.676 117.349  0.00  0.00     0.210 C 
ATOM     15  C   LIG d   1      -5.582  76.493 117.907  0.00  0.00     0.109 C 
ATOM     16  O   LIG d   1      -6.254  78.009 116.161  0.00  0.00    -0.276 OA
ATOM     17  H   LIG d   1      -7.171  77.983 119.185  0.00  0.00     0.149 HD
ENDBRANCH   6  13
BRANCH   5  18
ATOM     18  N   LIG d   1      -6.136  81.030 117.314  0.00  0.00     0.381 N 
ATOM     19  H   LIG d   1      -6.350  81.687 116.591  0.00  0.00    -0.090 HD
ATOM     20  H   LIG d   1      -5.881  80.159 116.883  0.00  0.00    -0.090 HD
ATOM     21  H   LIG d   1      -5.381  81.368 117.869  0.00  0.00    -0.090 HD
ENDBRANCH   5  18
BRANCH   3  22
ATOM     22  C   LIG d   1     -10.253  82.923 118.865  0.00  0.00     0.382 C 
ATOM     23  O   LIG d   1      -9.754  83.749 119.667  0.00  0.00    -0.241 OA
ATOM     24  O   LIG d   1     -11.402  83.114 118.426  0.00  0.00    -0.241 OA
ENDBRANCH   3  22
TORSDOF 7
ENDMDL
MODEL 6
REMARK VINA RESULT:      -4.9     15.683     17.604
REMARK  7 active torsions:
REMARK  status: ('A' for Active; 'I' for Inactive)
REMARK    1  A    between atoms: C_2  and  C_3 
REMARK    2  A    between atoms: C_3  and  O_6 
REMARK    3  A    between atoms: C_3  and  C_4 
REMARK    4  A    between atoms: C_7  and  O_6 
REMARK    5  A    between atoms: C_9  and  C_10 
REMARK    6  A    between atoms: N_15  and  C_14 
REMARK    7  A    between atoms: N_20  and  C_19 
REMARK       I    between atoms: C_22  and  N_20 
ROOT
ATOM      1  C   LIG d   1      -5.876  93.411 120.127  0.00  0.00     0.161 C 
ATOM      2  C   LIG d   1      -7.195  93.780 119.814  0.00  0.00     0.016 C 
ATOM      3  C   LIG d   1      -7.537  95.017 119.222  0.00  0.00     0.038 C 
ATOM      4  C   LIG d   1      -6.561  95.914 118.761  0.00  0.00     0.028 C 
ATOM      5  C   LIG d   1      -5.238  95.808 119.512  0.00  0.00    -0.047 C 
ATOM      6  C   LIG d   1      -4.788  94.329 119.530  0.00  0.00     0.091 C 
ENDROOT
BRANCH   1   7
ATOM      7  O   LIG d   1      -5.645  92.042 119.736  0.00  0.00    -0.368 OA
BRANCH   7   8
ATOM      8  C   LIG d   1      -5.134  91.840 118.396  0.00  0.00     0.119 C 
BRANCH   8   9
ATOM      9  C   LIG d   1      -6.238  91.140 117.580  0.00  0.00     0.028 C 
ATOM     10  C   LIG d   1      -6.557  91.879 116.270  0.00  0.00     0.006 C 
ENDBRANCH   8   9
BRANCH   8  11
ATOM     11  C   LIG d   1      -3.949  90.868 118.393  0.00  0.00     0.028 C 
ATOM     12  C   LIG d   1      -3.632  90.312 119.790  0.00  0.00     0.006 C 
ENDBRANCH   8  11
ENDBRANCH   7   8
ENDBRANCH   1   7
BRANCH   6  13
ATOM     13  N   LIG d   1      -3.545  94.124 120.317  0.00  0.00    -0.311 N 
ATOM     14  C   LIG d   1      -2.334  94.041 119.768  0.00  0.00     0.210 C 
ATOM     15  C   LIG d   1      -1.189  93.808 120.759  0.00  0.00     0.109 C 
ATOM     16  O   LIG d   1      -2.097  94.171 118.558  0.00  0.00    -0.276 OA
ATOM     17  H   LIG d   1      -3.642  94.040 121.310  0.00  0.00     0.149 HD
ENDBRANCH   6  13
BRANCH   5  18
ATOM     18  N   LIG d   1      -4.272  96.698 118.841  0.00  0.00     0.381 N 
ATOM     19  H   LIG d   1      -4.297  97.605 119.263  0.00  0.00    -0.090 HD
ATOM     20  H   LIG d   1      -4.533  96.792 117.876  0.00  0.00    -0.090 HD
ATOM     21  H   LIG d   1      -3.354  96.318 118.909  0.00  0.00    -0.090 HD
ENDBRANCH   5  18
BRANCH   3  22
ATOM     22  C   LIG d   1      -8.870  95.386 119.122  0.00  0.00     0.382 C 
ATOM     23  O   LIG d   1      -9.738  94.788 119.802  0.00  0.00    -0.241 OA
ATOM     24  O   LIG d   1      -9.220  96.279 118.328  0.00  0.00    -0.241 OA
ENDBRANCH   3  22
TORSDOF 7
ENDMDL
MODEL 7
REMARK VINA RESULT:      -4.8     16.365     18.333
REMARK  7 active torsions:
REMARK  status: ('A' for Active; 'I' for Inactive)
REMARK    1  A    between atoms: C_2  and  C_3 
REMARK    2  A    between atoms: C_3  and  O_6 
REMARK    3  A    between atoms: C_3  and  C_4 
REMARK    4  A    between atoms: C_7  and  O_6 
REMARK    5  A    between atoms: C_9  and  C_10 
REMARK    6  A    between atoms: N_15  and  C_14 
REMARK    7  A    between atoms: N_20  and  C_19 
REMARK       I    between atoms: C_22  and  N_20 
ROOT
ATOM      1  C   LIG d   1      -5.041  94.321 120.642  0.00  0.00     0.161 C 
ATOM      2  C   LIG d   1      -6.416  94.076 120.495  0.00  0.00     0.016 C 
ATOM      3  C   LIG d   1      -7.249  94.813 119.623  0.00  0.00     0.038 C 
ATOM      4  C   LIG d   1      -6.730  95.752 118.719  0.00  0.00     0.028 C 
ATOM      5  C   LIG d   1      -5.425  96.386 119.187  0.00  0.00    -0.047 C 
ATOM      6  C   LIG d   1      -4.436  95.266 119.583  0.00  0.00     0.091 C 
ENDROOT
BRANCH   1   7
ATOM      7  O   LIG d   1      -4.322  93.071 120.667  0.00  0.00    -0.368 OA
BRANCH   7   8
ATOM      8  C   LIG d   1      -3.999  92.496 119.377  0.00  0.00     0.119 C 
BRANCH   8   9
ATOM      9  C   LIG d   1      -4.774  91.170 119.253  0.00  0.00     0.028 C 
ATOM     10  C   LIG d   1      -5.846  91.217 118.151  0.00  0.00     0.006 C 
ENDBRANCH   8   9
BRANCH   8  11
ATOM     11  C   LIG d   1      -2.519  92.110 119.294  0.00  0.00     0.028 C 
ATOM     12  C   LIG d   1      -1.745  92.436 120.581  0.00  0.00     0.006 C 
ENDBRANCH   8  11
ENDBRANCH   7   8
ENDBRANCH   1   7
BRANCH   6  13
ATOM     13  N   LIG d   1      -3.163  95.801 120.132  0.00  0.00    -0.311 N 
ATOM     14  C   LIG d   1      -2.056  95.950 119.407  0.00  0.00     0.210 C 
ATOM     15  C   LIG d   1      -0.849  96.500 120.173  0.00  0.00     0.109 C 
ATOM     16  O   LIG d   1      -1.968  95.708 118.193  0.00  0.00    -0.276 OA
ATOM     17  H   LIG d   1      -3.154  96.052 121.102  0.00  0.00     0.149 HD
ENDBRANCH   6  13
BRANCH   5  18
ATOM     18  N   LIG d   1      -4.925  97.239 118.092  0.00  0.00     0.381 N 
ATOM     19  H   LIG d   1      -4.453  96.676 117.413  0.00  0.00    -0.090 HD
ATOM     20  H   LIG d   1      -4.266  97.898 118.468  0.00  0.00    -0.090 HD
ATOM     21  H   LIG d   1      -5.683  97.723 117.664  0.00  0.00    -0.090 HD
ENDBRANCH   5  18
BRANCH   3  22
ATOM     22  C   LIG d   1      -8.624  94.642 119.677  0.00  0.00     0.382 C 
ATOM     23  O   LIG d   1      -9.120  93.789 120.452  0.00  0.00    -0.241 OA
ATOM     24  O   LIG d   1      -9.373  95.299 118.929  0.00  0.00    -0.241 OA
ENDBRANCH   3  22
TORSDOF 7
ENDMDL
MODEL 8
REMARK VINA RESULT:      -4.8     14.932     17.672
REMARK  7 active torsions:
REMARK  status: ('A' for Active; 'I' for Inactive)
REMARK    1  A    between atoms: C_2  and  C_3 
REMARK    2  A    between atoms: C_3  and  O_6 
REMARK    3  A    between atoms: C_3  and  C_4 
REMARK    4  A    between atoms: C_7  and  O_6 
REMARK    5  A    between atoms: C_9  and  C_10 
REMARK    6  A    between atoms: N_15  and  C_14 
REMARK    7  A    between atoms: N_20  and  C_19 
REMARK       I    between atoms: C_22  and  N_20 
ROOT
ATOM      1  C   LIG d   1      -5.125  92.421 120.058  0.00  0.00     0.161 C 
ATOM      2  C   LIG d   1      -4.135  91.488 119.707  0.00  0.00     0.016 C 
ATOM      3  C   LIG d   1      -4.027  90.917 118.418  0.00  0.00     0.038 C 
ATOM      4  C   LIG d   1      -4.814  91.357 117.343  0.00  0.00     0.028 C 
ATOM      5  C   LIG d   1      -6.159  91.931 117.773  0.00  0.00    -0.047 C 
ATOM      6  C   LIG d   1      -5.923  92.996 118.869  0.00  0.00     0.091 C 
ENDROOT
BRANCH   1   7
ATOM      7  O   LIG d   1      -4.539  93.488 120.830  0.00  0.00    -0.368 OA
BRANCH   7   8
ATOM      8  C   LIG d   1      -3.938  94.567 120.073  0.00  0.00     0.119 C 
BRANCH   8   9
ATOM      9  C   LIG d   1      -2.409  94.429 120.204  0.00  0.00     0.028 C 
ATOM     10  C   LIG d   1      -1.726  94.159 118.852  0.00  0.00     0.006 C 
ENDBRANCH   8   9
BRANCH   8  11
ATOM     11  C   LIG d   1      -4.275  95.931 120.683  0.00  0.00     0.028 C 
ATOM     12  C   LIG d   1      -5.245  95.829 121.870  0.00  0.00     0.006 C 
ENDBRANCH   8  11
ENDBRANCH   7   8
ENDBRANCH   1   7
BRANCH   6  13
ATOM     13  N   LIG d   1      -7.194  93.549 119.405  0.00  0.00    -0.311 N 
ATOM     14  C   LIG d   1      -7.593  94.803 119.199  0.00  0.00     0.210 C 
ATOM     15  C   LIG d   1      -8.925  95.174 119.858  0.00  0.00     0.109 C 
ATOM     16  O   LIG d   1      -6.986  95.633 118.506  0.00  0.00    -0.276 OA
ATOM     17  H   LIG d   1      -7.763  92.934 119.953  0.00  0.00     0.149 HD
ENDBRANCH   6  13
BRANCH   5  18
ATOM     18  N   LIG d   1      -6.816  92.476 116.570  0.00  0.00     0.381 N 
ATOM     19  H   LIG d   1      -7.438  91.793 116.185  0.00  0.00    -0.090 HD
ATOM     20  H   LIG d   1      -6.114  92.686 115.883  0.00  0.00    -0.090 HD
ATOM     21  H   LIG d   1      -7.322  93.302 116.802  0.00  0.00    -0.090 HD
ENDBRANCH   5  18
BRANCH   3  22
ATOM     22  C   LIG d   1      -3.149  89.865 118.204  0.00  0.00     0.382 C 
ATOM     23  O   LIG d   1      -3.426  88.720 118.635  0.00  0.00    -0.241 OA
ATOM     24  O   LIG d   1      -2.063  90.056 117.625  0.00  0.00    -0.241 OA
ENDBRANCH   3  22
TORSDOF 7
ENDMDL
MODEL 9
REMARK VINA RESULT:      -4.8     14.387     16.927
REMARK  7 active torsions:
REMARK  status: ('A' for Active; 'I' for Inactive)
REMARK    1  A    between atoms: C_2  and  C_3 
REMARK    2  A    between atoms: C_3  and  O_6 
REMARK    3  A    between atoms: C_3  and  C_4 
REMARK    4  A    between atoms: C_7  and  O_6 
REMARK    5  A    between atoms: C_9  and  C_10 
REMARK    6  A    between atoms: N_15  and  C_14 
REMARK    7  A    between atoms: N_20  and  C_19 
REMARK       I    between atoms: C_22  and  N_20 
ROOT
ATOM      1  C   LIG d   1      -5.027  92.571 118.808  0.00  0.00     0.161 C 
ATOM      2  C   LIG d   1      -6.092  92.020 118.074  0.00  0.00     0.016 C 
ATOM      3  C   LIG d   1      -5.938  90.953 117.160  0.00  0.00     0.038 C 
ATOM      4  C   LIG d   1      -4.726  90.259 117.028  0.00  0.00     0.028 C 
ATOM      5  C   LIG d   1      -3.504  91.103 117.374  0.00  0.00    -0.047 C 
ATOM      6  C   LIG d   1      -3.719  91.754 118.760  0.00  0.00     0.091 C 
ENDROOT
BRANCH   1   7
ATOM      7  O   LIG d   1      -5.434  92.785 120.174  0.00  0.00    -0.368 OA
BRANCH   7   8
ATOM      8  C   LIG d   1      -5.779  94.147 120.529  0.00  0.00     0.119 C 
BRANCH   8   9
ATOM      9  C   LIG d   1      -7.294  94.315 120.303  0.00  0.00     0.028 C 
ATOM     10  C   LIG d   1      -7.611  95.257 119.130  0.00  0.00     0.006 C 
ENDBRANCH   8   9
BRANCH   8  11
ATOM     11  C   LIG d   1      -5.114  95.154 119.587  0.00  0.00     0.028 C 
ATOM     12  C   LIG d   1      -3.895  95.845 120.219  0.00  0.00     0.006 C 
ENDBRANCH   8  11
ENDBRANCH   7   8
ENDBRANCH   1   7
BRANCH   6  13
ATOM     13  N   LIG d   1      -2.607  92.664 119.138  0.00  0.00    -0.311 N 
ATOM     14  C   LIG d   1      -1.547  92.273 119.844  0.00  0.00     0.210 C 
ATOM     15  C   LIG d   1      -0.526  93.375 120.142  0.00  0.00     0.109 C 
ATOM     16  O   LIG d   1      -1.341  91.110 120.225  0.00  0.00    -0.276 OA
ATOM     17  H   LIG d   1      -2.678  93.618 118.843  0.00  0.00     0.149 HD
ENDBRANCH   6  13
BRANCH   5  18
ATOM     18  N   LIG d   1      -2.324  90.219 117.328  0.00  0.00     0.381 N 
ATOM     19  H   LIG d   1      -1.909  90.159 118.236  0.00  0.00    -0.090 HD
ATOM     20  H   LIG d   1      -1.647  90.613 116.698  0.00  0.00    -0.090 HD
ATOM     21  H   LIG d   1      -2.590  89.312 117.015  0.00  0.00    -0.090 HD
ENDBRANCH   5  18
BRANCH   3  22
ATOM     22  C   LIG d   1      -6.994  90.596 116.336  0.00  0.00     0.382 C 
ATOM     23  O   LIG d   1      -7.703  91.485 115.805  0.00  0.00    -0.241 OA
ATOM     24  O   LIG d   1      -7.274  89.397 116.151  0.00  0.00    -0.241 OA
ENDBRANCH   3  22
TORSDOF 7
ENDMDL
