MODEL 1
REMARK VINA RESULT:      -5.4      0.000      0.000
REMARK  7 active torsions:
REMARK  status: ('A' for Active; 'I' for Inactive)
REMARK    1  A    between atoms: C_2  and  C_3 
REMARK    2  A    between atoms: C_3  and  O_6 
REMARK    3  A    between atoms: C_3  and  C_4 
REMARK    4  A    between atoms: C_7  and  O_6 
REMARK    5  A    between atoms: C_9  and  C_10 
REMARK    6  A    between atoms: N_15  and  C_14 
REMARK    7  A    between atoms: N_20  and  C_19 
REMARK       I    between atoms: C_22  and  N_20 
ROOT
ATOM      1  C   LIG d   1       0.190  59.369 119.602  0.00  0.00     0.161 C 
ATOM      2  C   LIG d   1      -1.107  58.899 119.339  0.00  0.00     0.016 C 
ATOM      3  C   LIG d   1      -1.628  58.742 118.034  0.00  0.00     0.038 C 
ATOM      4  C   LIG d   1      -0.829  58.903 116.893  0.00  0.00     0.028 C 
ATOM      5  C   LIG d   1       0.337  59.863 117.100  0.00  0.00    -0.047 C 
ATOM      6  C   LIG d   1       1.114  59.444 118.368  0.00  0.00     0.091 C 
ENDROOT
BRANCH   1   7
ATOM      7  O   LIG d   1       0.799  58.571 120.636  0.00  0.00    -0.368 OA
BRANCH   7   8
ATOM      8  C   LIG d   1       1.596  57.447 120.188  0.00  0.00     0.119 C 
BRANCH   8   9
ATOM      9  C   LIG d   1       0.823  56.161 120.541  0.00  0.00     0.028 C 
ATOM     10  C   LIG d   1       0.308  55.424 119.293  0.00  0.00     0.006 C 
ENDBRANCH   8   9
BRANCH   8  11
ATOM     11  C   LIG d   1       2.914  57.353 120.962  0.00  0.00     0.028 C 
ATOM     12  C   LIG d   1       3.229  58.630 121.757  0.00  0.00     0.006 C 
ENDBRANCH   8  11
ENDBRANCH   7   8
ENDBRANCH   1   7
BRANCH   6  13
ATOM     13  N   LIG d   1       2.221  60.381 118.691  0.00  0.00    -0.311 N 
ATOM     14  C   LIG d   1       3.489  60.165 118.344  0.00  0.00     0.210 C 
ATOM     15  C   LIG d   1       4.475  61.248 118.793  0.00  0.00     0.109 C 
ATOM     16  O   LIG d   1       3.885  59.196 117.679  0.00  0.00    -0.276 OA
ATOM     17  H   LIG d   1       1.984  61.209 119.202  0.00  0.00     0.149 HD
ENDBRANCH   6  13
BRANCH   5  18
ATOM     18  N   LIG d   1       1.164  59.831 115.878  0.00  0.00     0.381 N 
ATOM     19  H   LIG d   1       0.955  60.625 115.307  0.00  0.00    -0.090 HD
ATOM     20  H   LIG d   1       0.942  59.001 115.358  0.00  0.00    -0.090 HD
ATOM     21  H   LIG d   1       2.130  59.832 116.120  0.00  0.00    -0.090 HD
ENDBRANCH   5  18
BRANCH   3  22
ATOM     22  C   LIG d   1      -2.974  58.459 117.861  0.00  0.00     0.382 C 
ATOM     23  O   LIG d   1      -3.757  59.355 117.461  0.00  0.00    -0.241 OA
ATOM     24  O   LIG d   1      -3.425  57.332 118.143  0.00  0.00    -0.241 OA
ENDBRANCH   3  22
TORSDOF 7
ENDMDL
MODEL 2
REMARK VINA RESULT:      -5.1     33.462     34.926
REMARK  7 active torsions:
REMARK  status: ('A' for Active; 'I' for Inactive)
REMARK    1  A    between atoms: C_2  and  C_3 
REMARK    2  A    between atoms: C_3  and  O_6 
REMARK    3  A    between atoms: C_3  and  C_4 
REMARK    4  A    between atoms: C_7  and  O_6 
REMARK    5  A    between atoms: C_9  and  C_10 
REMARK    6  A    between atoms: N_15  and  C_14 
REMARK    7  A    between atoms: N_20  and  C_19 
REMARK       I    between atoms: C_22  and  N_20 
ROOT
ATOM      1  C   LIG d   1      -5.927  92.283 119.209  0.00  0.00     0.161 C 
ATOM      2  C   LIG d   1      -5.860  91.168 118.357  0.00  0.00     0.016 C 
ATOM      3  C   LIG d   1      -6.373  91.163 117.040  0.00  0.00     0.038 C 
ATOM      4  C   LIG d   1      -6.858  92.328 116.428  0.00  0.00     0.028 C 
ATOM      5  C   LIG d   1      -7.407  93.349 117.419  0.00  0.00    -0.047 C 
ATOM      6  C   LIG d   1      -6.352  93.597 118.521  0.00  0.00     0.091 C 
ENDROOT
BRANCH   1   7
ATOM      7  O   LIG d   1      -4.667  92.457 119.886  0.00  0.00    -0.368 OA
BRANCH   7   8
ATOM      8  C   LIG d   1      -3.688  93.285 119.211  0.00  0.00     0.119 C 
BRANCH   8   9
ATOM      9  C   LIG d   1      -2.504  92.378 118.822  0.00  0.00     0.028 C 
ATOM     10  C   LIG d   1      -2.325  91.198 119.792  0.00  0.00     0.006 C 
ENDBRANCH   8   9
BRANCH   8  11
ATOM     11  C   LIG d   1      -3.101  94.337 120.156  0.00  0.00     0.028 C 
ATOM     12  C   LIG d   1      -3.750  94.316 121.549  0.00  0.00     0.006 C 
ENDBRANCH   8  11
ENDBRANCH   7   8
ENDBRANCH   1   7
BRANCH   6  13
ATOM     13  N   LIG d   1      -6.842  94.520 119.578  0.00  0.00    -0.311 N 
ATOM     14  C   LIG d   1      -6.571  95.824 119.595  0.00  0.00     0.210 C 
ATOM     15  C   LIG d   1      -7.157  96.590 120.786  0.00  0.00     0.109 C 
ATOM     16  O   LIG d   1      -5.929  96.425 118.721  0.00  0.00    -0.276 OA
ATOM     17  H   LIG d   1      -7.397  94.122 120.310  0.00  0.00     0.149 HD
ENDBRANCH   6  13
BRANCH   5  18
ATOM     18  N   LIG d   1      -7.750  94.567 116.661  0.00  0.00     0.381 N 
ATOM     19  H   LIG d   1      -8.574  94.984 117.045  0.00  0.00    -0.090 HD
ATOM     20  H   LIG d   1      -7.939  94.314 115.708  0.00  0.00    -0.090 HD
ATOM     21  H   LIG d   1      -6.993  95.215 116.697  0.00  0.00    -0.090 HD
ENDBRANCH   5  18
BRANCH   3  22
ATOM     22  C   LIG d   1      -6.443  89.971 116.334  0.00  0.00     0.382 C 
ATOM     23  O   LIG d   1      -7.529  89.349 116.260  0.00  0.00    -0.241 OA
ATOM     24  O   LIG d   1      -5.422  89.488 115.808  0.00  0.00    -0.241 OA
ENDBRANCH   3  22
TORSDOF 7
ENDMDL
MODEL 3
REMARK VINA RESULT:      -5.0     32.882     34.382
REMARK  7 active torsions:
REMARK  status: ('A' for Active; 'I' for Inactive)
REMARK    1  A    between atoms: C_2  and  C_3 
REMARK    2  A    between atoms: C_3  and  O_6 
REMARK    3  A    between atoms: C_3  and  C_4 
REMARK    4  A    between atoms: C_7  and  O_6 
REMARK    5  A    between atoms: C_9  and  C_10 
REMARK    6  A    between atoms: N_15  and  C_14 
REMARK    7  A    between atoms: N_20  and  C_19 
REMARK       I    between atoms: C_22  and  N_20 
ROOT
ATOM      1  C   LIG d   1      -4.538  92.723 117.957  0.00  0.00     0.161 C 
ATOM      2  C   LIG d   1      -5.451  93.787 118.055  0.00  0.00     0.016 C 
ATOM      3  C   LIG d   1      -6.823  93.666 117.739  0.00  0.00     0.038 C 
ATOM      4  C   LIG d   1      -7.410  92.427 117.445  0.00  0.00     0.028 C 
ATOM      5  C   LIG d   1      -6.434  91.421 116.843  0.00  0.00    -0.047 C 
ATOM      6  C   LIG d   1      -5.181  91.337 117.745  0.00  0.00     0.091 C 
ENDROOT
BRANCH   1   7
ATOM      7  O   LIG d   1      -3.681  92.706 119.116  0.00  0.00    -0.368 OA
BRANCH   7   8
ATOM      8  C   LIG d   1      -4.256  93.222 120.342  0.00  0.00     0.119 C 
BRANCH   8   9
ATOM      9  C   LIG d   1      -3.179  94.078 121.035  0.00  0.00     0.028 C 
ATOM     10  C   LIG d   1      -3.219  95.548 120.586  0.00  0.00     0.006 C 
ENDBRANCH   8   9
BRANCH   8  11
ATOM     11  C   LIG d   1      -4.573  92.092 121.327  0.00  0.00     0.028 C 
ATOM     12  C   LIG d   1      -6.050  91.671 121.296  0.00  0.00     0.006 C 
ENDBRANCH   8  11
ENDBRANCH   7   8
ENDBRANCH   1   7
BRANCH   6  13
ATOM     13  N   LIG d   1      -4.139  90.438 117.185  0.00  0.00    -0.311 N 
ATOM     14  C   LIG d   1      -3.497  89.520 117.906  0.00  0.00     0.210 C 
ATOM     15  C   LIG d   1      -2.446  88.714 117.138  0.00  0.00     0.109 C 
ATOM     16  O   LIG d   1      -3.722  89.275 119.101  0.00  0.00    -0.276 OA
ATOM     17  H   LIG d   1      -3.916  90.548 116.215  0.00  0.00     0.149 HD
ENDBRANCH   6  13
BRANCH   5  18
ATOM     18  N   LIG d   1      -7.142  90.134 116.715  0.00  0.00     0.381 N 
ATOM     19  H   LIG d   1      -6.528  89.447 116.325  0.00  0.00    -0.090 HD
ATOM     20  H   LIG d   1      -7.921  90.252 116.091  0.00  0.00    -0.090 HD
ATOM     21  H   LIG d   1      -7.466  89.832 117.608  0.00  0.00    -0.090 HD
ENDBRANCH   5  18
BRANCH   3  22
ATOM     22  C   LIG d   1      -7.616  94.802 117.675  0.00  0.00     0.382 C 
ATOM     23  O   LIG d   1      -7.176  95.899 118.097  0.00  0.00    -0.241 OA
ATOM     24  O   LIG d   1      -8.782  94.735 117.242  0.00  0.00    -0.241 OA
ENDBRANCH   3  22
TORSDOF 7
ENDMDL
MODEL 4
REMARK VINA RESULT:      -5.0     32.981     34.425
REMARK  7 active torsions:
REMARK  status: ('A' for Active; 'I' for Inactive)
REMARK    1  A    between atoms: C_2  and  C_3 
REMARK    2  A    between atoms: C_3  and  O_6 
REMARK    3  A    between atoms: C_3  and  C_4 
REMARK    4  A    between atoms: C_7  and  O_6 
REMARK    5  A    between atoms: C_9  and  C_10 
REMARK    6  A    between atoms: N_15  and  C_14 
REMARK    7  A    between atoms: N_20  and  C_19 
REMARK       I    between atoms: C_22  and  N_20 
ROOT
ATOM      1  C   LIG d   1      -5.681  92.415 119.069  0.00  0.00     0.161 C 
ATOM      2  C   LIG d   1      -5.705  91.254 118.278  0.00  0.00     0.016 C 
ATOM      3  C   LIG d   1      -6.350  91.181 117.022  0.00  0.00     0.038 C 
ATOM      4  C   LIG d   1      -6.891  92.316 116.400  0.00  0.00     0.028 C 
ATOM      5  C   LIG d   1      -7.334  93.394 117.383  0.00  0.00    -0.047 C 
ATOM      6  C   LIG d   1      -6.170  93.693 118.356  0.00  0.00     0.091 C 
ENDROOT
BRANCH   1   7
ATOM      7  O   LIG d   1      -4.358  92.615 119.604  0.00  0.00    -0.368 OA
BRANCH   7   8
ATOM      8  C   LIG d   1      -3.370  91.615 119.252  0.00  0.00     0.119 C 
BRANCH   8   9
ATOM      9  C   LIG d   1      -2.584  91.270 120.532  0.00  0.00     0.028 C 
ATOM     10  C   LIG d   1      -3.020  89.928 121.144  0.00  0.00     0.006 C 
ENDBRANCH   8   9
BRANCH   8  11
ATOM     11  C   LIG d   1      -2.331  92.178 118.277  0.00  0.00     0.028 C 
ATOM     12  C   LIG d   1      -0.960  91.495 118.409  0.00  0.00     0.006 C 
ENDBRANCH   8  11
ENDBRANCH   7   8
ENDBRANCH   1   7
BRANCH   6  13
ATOM     13  N   LIG d   1      -6.547  94.677 119.405  0.00  0.00    -0.311 N 
ATOM     14  C   LIG d   1      -5.860  95.792 119.645  0.00  0.00     0.210 C 
ATOM     15  C   LIG d   1      -6.409  96.657 120.784  0.00  0.00     0.109 C 
ATOM     16  O   LIG d   1      -4.866  96.163 119.002  0.00  0.00    -0.276 OA
ATOM     17  H   LIG d   1      -7.359  94.470 119.954  0.00  0.00     0.149 HD
ENDBRANCH   6  13
BRANCH   5  18
ATOM     18  N   LIG d   1      -7.748  94.571 116.598  0.00  0.00     0.381 N 
ATOM     19  H   LIG d   1      -7.062  94.770 115.897  0.00  0.00    -0.090 HD
ATOM     20  H   LIG d   1      -7.811  95.365 117.211  0.00  0.00    -0.090 HD
ATOM     21  H   LIG d   1      -8.632  94.402 116.170  0.00  0.00    -0.090 HD
ENDBRANCH   5  18
BRANCH   3  22
ATOM     22  C   LIG d   1      -6.494  89.954 116.394  0.00  0.00     0.382 C 
ATOM     23  O   LIG d   1      -7.589  89.343 116.454  0.00  0.00    -0.241 OA
ATOM     24  O   LIG d   1      -5.531  89.428 115.805  0.00  0.00    -0.241 OA
ENDBRANCH   3  22
TORSDOF 7
ENDMDL
MODEL 5
REMARK VINA RESULT:      -5.0     19.676     21.108
REMARK  7 active torsions:
REMARK  status: ('A' for Active; 'I' for Inactive)
REMARK    1  A    between atoms: C_2  and  C_3 
REMARK    2  A    between atoms: C_3  and  O_6 
REMARK    3  A    between atoms: C_3  and  C_4 
REMARK    4  A    between atoms: C_7  and  O_6 
REMARK    5  A    between atoms: C_9  and  C_10 
REMARK    6  A    between atoms: N_15  and  C_14 
REMARK    7  A    between atoms: N_20  and  C_19 
REMARK       I    between atoms: C_22  and  N_20 
ROOT
ATOM      1  C   LIG d   1      -6.677  77.960 117.393  0.00  0.00     0.161 C 
ATOM      2  C   LIG d   1      -6.654  76.607 117.015  0.00  0.00     0.016 C 
ATOM      3  C   LIG d   1      -7.784  75.761 117.084  0.00  0.00     0.038 C 
ATOM      4  C   LIG d   1      -9.061  76.252 117.395  0.00  0.00     0.028 C 
ATOM      5  C   LIG d   1      -9.033  77.501 118.270  0.00  0.00    -0.047 C 
ATOM      6  C   LIG d   1      -8.087  78.542 117.629  0.00  0.00     0.091 C 
ENDROOT
BRANCH   1   7
ATOM      7  O   LIG d   1      -5.965  78.751 116.421  0.00  0.00    -0.368 OA
BRANCH   7   8
ATOM      8  C   LIG d   1      -4.665  79.244 116.829  0.00  0.00     0.119 C 
BRANCH   8   9
ATOM      9  C   LIG d   1      -3.601  78.408 116.091  0.00  0.00     0.028 C 
ATOM     10  C   LIG d   1      -2.848  77.454 117.032  0.00  0.00     0.006 C 
ENDBRANCH   8   9
BRANCH   8  11
ATOM     11  C   LIG d   1      -4.416  78.992 118.319  0.00  0.00     0.028 C 
ATOM     12  C   LIG d   1      -4.356  80.290 119.140  0.00  0.00     0.006 C 
ENDBRANCH   8  11
ENDBRANCH   7   8
ENDBRANCH   1   7
BRANCH   6  13
ATOM     13  N   LIG d   1      -7.936  79.761 118.465  0.00  0.00    -0.311 N 
ATOM     14  C   LIG d   1      -7.936  80.996 117.967  0.00  0.00     0.210 C 
ATOM     15  C   LIG d   1      -7.747  82.111 119.001  0.00  0.00     0.109 C 
ATOM     16  O   LIG d   1      -8.107  81.276 116.771  0.00  0.00    -0.276 OA
ATOM     17  H   LIG d   1      -7.823  79.627 119.451  0.00  0.00     0.149 HD
ENDBRANCH   6  13
BRANCH   5  18
ATOM     18  N   LIG d   1     -10.420  77.984 118.402  0.00  0.00     0.381 N 
ATOM     19  H   LIG d   1     -11.055  77.285 118.071  0.00  0.00    -0.090 HD
ATOM     20  H   LIG d   1     -10.533  78.806 117.836  0.00  0.00    -0.090 HD
ATOM     21  H   LIG d   1     -10.618  78.198 119.355  0.00  0.00    -0.090 HD
ENDBRANCH   5  18
BRANCH   3  22
ATOM     22  C   LIG d   1      -7.635  74.398 116.878  0.00  0.00     0.382 C 
ATOM     23  O   LIG d   1      -8.429  73.591 117.421  0.00  0.00    -0.241 OA
ATOM     24  O   LIG d   1      -6.691  73.962 116.193  0.00  0.00    -0.241 OA
ENDBRANCH   3  22
TORSDOF 7
ENDMDL
MODEL 6
REMARK VINA RESULT:      -4.9     32.527     34.084
REMARK  7 active torsions:
REMARK  status: ('A' for Active; 'I' for Inactive)
REMARK    1  A    between atoms: C_2  and  C_3 
REMARK    2  A    between atoms: C_3  and  O_6 
REMARK    3  A    between atoms: C_3  and  C_4 
REMARK    4  A    between atoms: C_7  and  O_6 
REMARK    5  A    between atoms: C_9  and  C_10 
REMARK    6  A    between atoms: N_15  and  C_14 
REMARK    7  A    between atoms: N_20  and  C_19 
REMARK       I    between atoms: C_22  and  N_20 
ROOT
ATOM      1  C   LIG d   1      -4.310  92.680 118.202  0.00  0.00     0.161 C 
ATOM      2  C   LIG d   1      -5.309  93.666 118.260  0.00  0.00     0.016 C 
ATOM      3  C   LIG d   1      -6.586  93.516 117.671  0.00  0.00     0.038 C 
ATOM      4  C   LIG d   1      -7.005  92.301 117.110  0.00  0.00     0.028 C 
ATOM      5  C   LIG d   1      -5.856  91.448 116.583  0.00  0.00    -0.047 C 
ATOM      6  C   LIG d   1      -4.788  91.305 117.691  0.00  0.00     0.091 C 
ENDROOT
BRANCH   1   7
ATOM      7  O   LIG d   1      -3.682  92.544 119.492  0.00  0.00    -0.368 OA
BRANCH   7   8
ATOM      8  C   LIG d   1      -2.326  93.043 119.596  0.00  0.00     0.119 C 
BRANCH   8   9
ATOM      9  C   LIG d   1      -1.437  91.873 120.061  0.00  0.00     0.028 C 
ATOM     10  C   LIG d   1      -0.290  91.581 119.080  0.00  0.00     0.006 C 
ENDBRANCH   8   9
BRANCH   8  11
ATOM     11  C   LIG d   1      -2.205  94.105 120.693  0.00  0.00     0.028 C 
ATOM     12  C   LIG d   1      -0.903  94.915 120.597  0.00  0.00     0.006 C 
ENDBRANCH   8  11
ENDBRANCH   7   8
ENDBRANCH   1   7
BRANCH   6  13
ATOM     13  N   LIG d   1      -3.591  90.555 117.230  0.00  0.00    -0.311 N 
ATOM     14  C   LIG d   1      -3.134  89.459 117.835  0.00  0.00     0.210 C 
ATOM     15  C   LIG d   1      -1.874  88.853 117.209  0.00  0.00     0.109 C 
ATOM     16  O   LIG d   1      -3.672  88.913 118.810  0.00  0.00    -0.276 OA
ATOM     17  H   LIG d   1      -3.111  90.910 116.426  0.00  0.00     0.149 HD
ENDBRANCH   6  13
BRANCH   5  18
ATOM     18  N   LIG d   1      -6.422  90.155 116.154  0.00  0.00     0.381 N 
ATOM     19  H   LIG d   1      -7.024  90.293 115.367  0.00  0.00    -0.090 HD
ATOM     20  H   LIG d   1      -6.968  89.773 116.906  0.00  0.00    -0.090 HD
ATOM     21  H   LIG d   1      -5.688  89.525 115.914  0.00  0.00    -0.090 HD
ENDBRANCH   5  18
BRANCH   3  22
ATOM     22  C   LIG d   1      -7.443  94.604 117.604  0.00  0.00     0.382 C 
ATOM     23  O   LIG d   1      -8.589  94.469 117.111  0.00  0.00    -0.241 OA
ATOM     24  O   LIG d   1      -7.070  95.728 117.988  0.00  0.00    -0.241 OA
ENDBRANCH   3  22
TORSDOF 7
ENDMDL
MODEL 7
REMARK VINA RESULT:      -4.8     21.140     22.582
REMARK  7 active torsions:
REMARK  status: ('A' for Active; 'I' for Inactive)
REMARK    1  A    between atoms: C_2  and  C_3 
REMARK    2  A    between atoms: C_3  and  O_6 
REMARK    3  A    between atoms: C_3  and  C_4 
REMARK    4  A    between atoms: C_7  and  O_6 
REMARK    5  A    between atoms: C_9  and  C_10 
REMARK    6  A    between atoms: N_15  and  C_14 
REMARK    7  A    between atoms: N_20  and  C_19 
REMARK       I    between atoms: C_22  and  N_20 
ROOT
ATOM      1  C   LIG d   1      -7.825  79.355 117.430  0.00  0.00     0.161 C 
ATOM      2  C   LIG d   1      -8.195  80.687 117.679  0.00  0.00     0.016 C 
ATOM      3  C   LIG d   1      -9.349  81.051 118.409  0.00  0.00     0.038 C 
ATOM      4  C   LIG d   1     -10.137  80.099 119.074  0.00  0.00     0.028 C 
ATOM      5  C   LIG d   1     -10.088  78.717 118.431  0.00  0.00    -0.047 C 
ATOM      6  C   LIG d   1      -8.610  78.304 118.241  0.00  0.00     0.091 C 
ENDROOT
BRANCH   1   7
ATOM      7  O   LIG d   1      -6.408  79.194 117.640  0.00  0.00    -0.368 OA
BRANCH   7   8
ATOM      8  C   LIG d   1      -5.970  79.141 119.020  0.00  0.00     0.119 C 
BRANCH   8   9
ATOM      9  C   LIG d   1      -4.896  80.230 119.208  0.00  0.00     0.028 C 
ATOM     10  C   LIG d   1      -5.441  81.473 119.931  0.00  0.00     0.006 C 
ENDBRANCH   8   9
BRANCH   8  11
ATOM     11  C   LIG d   1      -5.264  77.817 119.330  0.00  0.00     0.028 C 
ATOM     12  C   LIG d   1      -4.828  77.064 118.064  0.00  0.00     0.006 C 
ENDBRANCH   8  11
ENDBRANCH   7   8
ENDBRANCH   1   7
BRANCH   6  13
ATOM     13  N   LIG d   1      -8.472  77.000 117.541  0.00  0.00    -0.311 N 
ATOM     14  C   LIG d   1      -8.328  75.838 118.177  0.00  0.00     0.210 C 
ATOM     15  C   LIG d   1      -8.182  74.616 117.265  0.00  0.00     0.109 C 
ATOM     16  O   LIG d   1      -8.340  75.700 119.409  0.00  0.00    -0.276 OA
ATOM     17  H   LIG d   1      -8.483  77.016 116.540  0.00  0.00     0.149 HD
ENDBRANCH   6  13
BRANCH   5  18
ATOM     18  N   LIG d   1     -10.840  77.794 119.301  0.00  0.00     0.381 N 
ATOM     19  H   LIG d   1     -11.612  77.406 118.797  0.00  0.00    -0.090 HD
ATOM     20  H   LIG d   1     -11.201  78.308 120.085  0.00  0.00    -0.090 HD
ATOM     21  H   LIG d   1     -10.242  77.063 119.620  0.00  0.00    -0.090 HD
ENDBRANCH   5  18
BRANCH   3  22
ATOM     22  C   LIG d   1      -9.749  82.378 118.447  0.00  0.00     0.382 C 
ATOM     23  O   LIG d   1      -9.301  83.143 119.335  0.00  0.00    -0.241 OA
ATOM     24  O   LIG d   1     -10.586  82.809 117.631  0.00  0.00    -0.241 OA
ENDBRANCH   3  22
TORSDOF 7
ENDMDL
MODEL 8
REMARK VINA RESULT:      -4.7     18.141     19.736
REMARK  7 active torsions:
REMARK  status: ('A' for Active; 'I' for Inactive)
REMARK    1  A    between atoms: C_2  and  C_3 
REMARK    2  A    between atoms: C_3  and  O_6 
REMARK    3  A    between atoms: C_3  and  C_4 
REMARK    4  A    between atoms: C_7  and  O_6 
REMARK    5  A    between atoms: C_9  and  C_10 
REMARK    6  A    between atoms: N_15  and  C_14 
REMARK    7  A    between atoms: N_20  and  C_19 
REMARK       I    between atoms: C_22  and  N_20 
ROOT
ATOM      1  C   LIG d   1      -5.341  76.917 116.047  0.00  0.00     0.161 C 
ATOM      2  C   LIG d   1      -4.334  75.937 116.038  0.00  0.00     0.016 C 
ATOM      3  C   LIG d   1      -3.272  75.904 116.971  0.00  0.00     0.038 C 
ATOM      4  C   LIG d   1      -3.228  76.768 118.075  0.00  0.00     0.028 C 
ATOM      5  C   LIG d   1      -3.947  78.091 117.838  0.00  0.00    -0.047 C 
ATOM      6  C   LIG d   1      -5.371  77.801 117.312  0.00  0.00     0.091 C 
ENDROOT
BRANCH   1   7
ATOM      7  O   LIG d   1      -6.626  76.299 115.837  0.00  0.00    -0.368 OA
BRANCH   7   8
ATOM      8  C   LIG d   1      -7.171  75.563 116.960  0.00  0.00     0.119 C 
BRANCH   8   9
ATOM      9  C   LIG d   1      -7.221  74.076 116.557  0.00  0.00     0.028 C 
ATOM     10  C   LIG d   1      -8.319  73.303 117.306  0.00  0.00     0.006 C 
ENDBRANCH   8   9
BRANCH   8  11
ATOM     11  C   LIG d   1      -8.625  75.959 117.233  0.00  0.00     0.028 C 
ATOM     12  C   LIG d   1      -8.800  76.700 118.568  0.00  0.00     0.006 C 
ENDBRANCH   8  11
ENDBRANCH   7   8
ENDBRANCH   1   7
BRANCH   6  13
ATOM     13  N   LIG d   1      -6.114  79.043 116.974  0.00  0.00    -0.311 N 
ATOM     14  C   LIG d   1      -6.802  79.752 117.868  0.00  0.00     0.210 C 
ATOM     15  C   LIG d   1      -7.512  80.987 117.305  0.00  0.00     0.109 C 
ATOM     16  O   LIG d   1      -6.865  79.492 119.079  0.00  0.00    -0.276 OA
ATOM     17  H   LIG d   1      -6.090  79.344 116.019  0.00  0.00     0.149 HD
ENDBRANCH   6  13
BRANCH   5  18
ATOM     18  N   LIG d   1      -3.942  78.835 119.112  0.00  0.00     0.381 N 
ATOM     19  H   LIG d   1      -4.869  79.142 119.328  0.00  0.00    -0.090 HD
ATOM     20  H   LIG d   1      -3.356  79.646 119.013  0.00  0.00    -0.090 HD
ATOM     21  H   LIG d   1      -3.597  78.255 119.845  0.00  0.00    -0.090 HD
ENDBRANCH   5  18
BRANCH   3  22
ATOM     22  C   LIG d   1      -2.217  75.025 116.780  0.00  0.00     0.382 C 
ATOM     23  O   LIG d   1      -1.437  75.182 115.809  0.00  0.00    -0.241 OA
ATOM     24  O   LIG d   1      -2.061  74.050 117.539  0.00  0.00    -0.241 OA
ENDBRANCH   3  22
TORSDOF 7
ENDMDL
MODEL 9
REMARK VINA RESULT:      -4.7     20.612     22.039
REMARK  7 active torsions:
REMARK  status: ('A' for Active; 'I' for Inactive)
REMARK    1  A    between atoms: C_2  and  C_3 
REMARK    2  A    between atoms: C_3  and  O_6 
REMARK    3  A    between atoms: C_3  and  C_4 
REMARK    4  A    between atoms: C_7  and  O_6 
REMARK    5  A    between atoms: C_9  and  C_10 
REMARK    6  A    between atoms: N_15  and  C_14 
REMARK    7  A    between atoms: N_20  and  C_19 
REMARK       I    between atoms: C_22  and  N_20 
ROOT
ATOM      1  C   LIG d   1      -9.851  78.014 118.037  0.00  0.00     0.161 C 
ATOM      2  C   LIG d   1      -9.373  76.726 117.742  0.00  0.00     0.016 C 
ATOM      3  C   LIG d   1      -8.003  76.427 117.562  0.00  0.00     0.038 C 
ATOM      4  C   LIG d   1      -6.998  77.373 117.815  0.00  0.00     0.028 C 
ATOM      5  C   LIG d   1      -7.460  78.814 117.623  0.00  0.00    -0.047 C 
ATOM      6  C   LIG d   1      -8.762  79.035 118.426  0.00  0.00     0.091 C 
ENDROOT
BRANCH   1   7
ATOM      7  O   LIG d   1     -10.857  77.938 119.066  0.00  0.00    -0.368 OA
BRANCH   7   8
ATOM      8  C   LIG d   1     -10.386  78.074 120.429  0.00  0.00     0.119 C 
BRANCH   8   9
ATOM      9  C   LIG d   1     -10.622  76.726 121.137  0.00  0.00     0.028 C 
ATOM     10  C   LIG d   1      -9.316  75.947 121.366  0.00  0.00     0.006 C 
ENDBRANCH   8   9
BRANCH   8  11
ATOM     11  C   LIG d   1     -11.222  79.093 121.209  0.00  0.00     0.028 C 
ATOM     12  C   LIG d   1     -10.404  79.852 122.265  0.00  0.00     0.006 C 
ENDBRANCH   8  11
ENDBRANCH   7   8
ENDBRANCH   1   7
BRANCH   6  13
ATOM     13  N   LIG d   1      -9.327  80.395 118.225  0.00  0.00    -0.311 N 
ATOM     14  C   LIG d   1      -9.051  81.428 119.019  0.00  0.00     0.210 C 
ATOM     15  C   LIG d   1      -9.755  82.736 118.646  0.00  0.00     0.109 C 
ATOM     16  O   LIG d   1      -8.264  81.394 119.977  0.00  0.00    -0.276 OA
ATOM     17  H   LIG d   1      -9.951  80.520 117.452  0.00  0.00     0.149 HD
ENDBRANCH   6  13
BRANCH   5  18
ATOM     18  N   LIG d   1      -6.358  79.696 118.052  0.00  0.00     0.381 N 
ATOM     19  H   LIG d   1      -5.820  79.244 118.764  0.00  0.00    -0.090 HD
ATOM     20  H   LIG d   1      -6.747  80.538 118.438  0.00  0.00    -0.090 HD
ATOM     21  H   LIG d   1      -5.775  79.916 117.275  0.00  0.00    -0.090 HD
ENDBRANCH   5  18
BRANCH   3  22
ATOM     22  C   LIG d   1      -7.629  75.180 117.086  0.00  0.00     0.382 C 
ATOM     23  O   LIG d   1      -6.686  75.080 116.264  0.00  0.00    -0.241 OA
ATOM     24  O   LIG d   1      -8.251  74.158 117.433  0.00  0.00    -0.241 OA
ENDBRANCH   3  22
TORSDOF 7
ENDMDL
