MODEL 1
REMARK VINA RESULT:      -5.4      0.000      0.000
REMARK  7 active torsions:
REMARK  status: ('A' for Active; 'I' for Inactive)
REMARK    1  A    between atoms: C_2  and  C_3 
REMARK    2  A    between atoms: C_3  and  O_6 
REMARK    3  A    between atoms: C_3  and  C_4 
REMARK    4  A    between atoms: C_7  and  O_6 
REMARK    5  A    between atoms: C_9  and  C_10 
REMARK    6  A    between atoms: N_15  and  C_14 
REMARK    7  A    between atoms: N_20  and  C_19 
REMARK       I    between atoms: C_22  and  N_20 
ROOT
ATOM      1  C   LIG d   1      -6.806  77.066 116.628  0.00  0.00     0.161 C 
ATOM      2  C   LIG d   1      -7.802  76.082 116.507  0.00  0.00     0.016 C 
ATOM      3  C   LIG d   1      -7.521  74.712 116.295  0.00  0.00     0.038 C 
ATOM      4  C   LIG d   1      -6.212  74.208 116.340  0.00  0.00     0.028 C 
ATOM      5  C   LIG d   1      -5.153  75.236 115.956  0.00  0.00    -0.047 C 
ATOM      6  C   LIG d   1      -5.373  76.518 116.791  0.00  0.00     0.091 C 
ENDROOT
BRANCH   1   7
ATOM      7  O   LIG d   1      -7.129  77.957 117.714  0.00  0.00    -0.368 OA
BRANCH   7   8
ATOM      8  C   LIG d   1      -7.724  79.224 117.342  0.00  0.00     0.119 C 
BRANCH   8   9
ATOM      9  C   LIG d   1      -6.730  80.335 117.736  0.00  0.00     0.028 C 
ATOM     10  C   LIG d   1      -5.857  79.942 118.939  0.00  0.00     0.006 C 
ENDBRANCH   8   9
BRANCH   8  11
ATOM     11  C   LIG d   1      -8.990  79.506 118.157  0.00  0.00     0.028 C 
ATOM     12  C   LIG d   1      -9.726  80.773 117.695  0.00  0.00     0.006 C 
ENDBRANCH   8  11
ENDBRANCH   7   8
ENDBRANCH   1   7
BRANCH   6  13
ATOM     13  N   LIG d   1      -4.431  77.606 116.418  0.00  0.00    -0.311 N 
ATOM     14  C   LIG d   1      -3.289  77.840 117.062  0.00  0.00     0.210 C 
ATOM     15  C   LIG d   1      -2.475  79.022 116.526  0.00  0.00     0.109 C 
ATOM     16  O   LIG d   1      -2.856  77.160 118.005  0.00  0.00    -0.276 OA
ATOM     17  H   LIG d   1      -4.688  78.186 115.644  0.00  0.00     0.149 HD
ENDBRANCH   6  13
BRANCH   5  18
ATOM     18  N   LIG d   1      -3.832  74.620 116.180  0.00  0.00     0.381 N 
ATOM     19  H   LIG d   1      -3.374  75.068 116.948  0.00  0.00    -0.090 HD
ATOM     20  H   LIG d   1      -3.269  74.750 115.357  0.00  0.00    -0.090 HD
ATOM     21  H   LIG d   1      -3.937  73.647 116.368  0.00  0.00    -0.090 HD
ENDBRANCH   5  18
BRANCH   3  22
ATOM     22  C   LIG d   1      -8.553  73.837 115.994  0.00  0.00     0.382 C 
ATOM     23  O   LIG d   1      -8.314  72.616 115.835  0.00  0.00    -0.241 OA
ATOM     24  O   LIG d   1      -9.714  74.261 115.836  0.00  0.00    -0.241 OA
ENDBRANCH   3  22
TORSDOF 7
ENDMDL
MODEL 2
REMARK VINA RESULT:      -5.2      1.350      1.452
REMARK  7 active torsions:
REMARK  status: ('A' for Active; 'I' for Inactive)
REMARK    1  A    between atoms: C_2  and  C_3 
REMARK    2  A    between atoms: C_3  and  O_6 
REMARK    3  A    between atoms: C_3  and  C_4 
REMARK    4  A    between atoms: C_7  and  O_6 
REMARK    5  A    between atoms: C_9  and  C_10 
REMARK    6  A    between atoms: N_15  and  C_14 
REMARK    7  A    between atoms: N_20  and  C_19 
REMARK       I    between atoms: C_22  and  N_20 
ROOT
ATOM      1  C   LIG d   1      -7.268  78.077 117.029  0.00  0.00     0.161 C 
ATOM      2  C   LIG d   1      -8.017  76.915 116.783  0.00  0.00     0.016 C 
ATOM      3  C   LIG d   1      -7.435  75.640 116.593  0.00  0.00     0.038 C 
ATOM      4  C   LIG d   1      -6.064  75.414 116.787  0.00  0.00     0.028 C 
ATOM      5  C   LIG d   1      -5.206  76.650 116.540  0.00  0.00    -0.047 C 
ATOM      6  C   LIG d   1      -5.780  77.831 117.355  0.00  0.00     0.091 C 
ENDROOT
BRANCH   1   7
ATOM      7  O   LIG d   1      -7.890  78.846 118.078  0.00  0.00    -0.368 OA
BRANCH   7   8
ATOM      8  C   LIG d   1      -8.489  80.103 117.677  0.00  0.00     0.119 C 
BRANCH   8   9
ATOM      9  C   LIG d   1      -7.671  81.235 118.328  0.00  0.00     0.028 C 
ATOM     10  C   LIG d   1      -7.040  80.809 119.664  0.00  0.00     0.006 C 
ENDBRANCH   8   9
BRANCH   8  11
ATOM     11  C   LIG d   1      -9.906  80.250 118.241  0.00  0.00     0.028 C 
ATOM     12  C   LIG d   1     -10.535  81.616 117.924  0.00  0.00     0.006 C 
ENDBRANCH   8  11
ENDBRANCH   7   8
ENDBRANCH   1   7
BRANCH   6  13
ATOM     13  N   LIG d   1      -5.049  79.101 117.105  0.00  0.00    -0.311 N 
ATOM     14  C   LIG d   1      -4.044  79.531 117.866  0.00  0.00     0.210 C 
ATOM     15  C   LIG d   1      -3.442  80.875 117.444  0.00  0.00     0.109 C 
ATOM     16  O   LIG d   1      -3.573  78.911 118.832  0.00  0.00    -0.276 OA
ATOM     17  H   LIG d   1      -5.345  79.651 116.322  0.00  0.00     0.149 HD
ENDBRANCH   6  13
BRANCH   5  18
ATOM     18  N   LIG d   1      -3.819  76.311 116.911  0.00  0.00     0.381 N 
ATOM     19  H   LIG d   1      -3.264  76.204 116.086  0.00  0.00    -0.090 HD
ATOM     20  H   LIG d   1      -3.819  75.437 117.406  0.00  0.00    -0.090 HD
ATOM     21  H   LIG d   1      -3.436  77.027 117.488  0.00  0.00    -0.090 HD
ENDBRANCH   5  18
BRANCH   3  22
ATOM     22  C   LIG d   1      -8.222  74.582 116.165  0.00  0.00     0.382 C 
ATOM     23  O   LIG d   1      -7.686  73.506 115.806  0.00  0.00    -0.241 OA
ATOM     24  O   LIG d   1      -9.460  74.705 116.091  0.00  0.00    -0.241 OA
ENDBRANCH   3  22
TORSDOF 7
ENDMDL
MODEL 3
REMARK VINA RESULT:      -5.2      1.851      5.111
REMARK  7 active torsions:
REMARK  status: ('A' for Active; 'I' for Inactive)
REMARK    1  A    between atoms: C_2  and  C_3 
REMARK    2  A    between atoms: C_3  and  O_6 
REMARK    3  A    between atoms: C_3  and  C_4 
REMARK    4  A    between atoms: C_7  and  O_6 
REMARK    5  A    between atoms: C_9  and  C_10 
REMARK    6  A    between atoms: N_15  and  C_14 
REMARK    7  A    between atoms: N_20  and  C_19 
REMARK       I    between atoms: C_22  and  N_20 
ROOT
ATOM      1  C   LIG d   1      -7.055  77.122 117.098  0.00  0.00     0.161 C 
ATOM      2  C   LIG d   1      -8.169  77.922 117.398  0.00  0.00     0.016 C 
ATOM      3  C   LIG d   1      -8.069  79.214 117.964  0.00  0.00     0.038 C 
ATOM      4  C   LIG d   1      -6.833  79.858 118.128  0.00  0.00     0.028 C 
ATOM      5  C   LIG d   1      -5.667  78.893 118.308  0.00  0.00    -0.047 C 
ATOM      6  C   LIG d   1      -5.697  77.851 117.166  0.00  0.00     0.091 C 
ENDROOT
BRANCH   1   7
ATOM      7  O   LIG d   1      -7.229  76.508 115.805  0.00  0.00    -0.368 OA
BRANCH   7   8
ATOM      8  C   LIG d   1      -7.489  75.082 115.806  0.00  0.00     0.119 C 
BRANCH   8   9
ATOM      9  C   LIG d   1      -9.000  74.888 116.038  0.00  0.00     0.028 C 
ATOM     10  C   LIG d   1      -9.445  73.433 115.817  0.00  0.00     0.006 C 
ENDBRANCH   8   9
BRANCH   8  11
ATOM     11  C   LIG d   1      -6.805  74.392 116.990  0.00  0.00     0.028 C 
ATOM     12  C   LIG d   1      -5.800  73.315 116.552  0.00  0.00     0.006 C 
ENDBRANCH   8  11
ENDBRANCH   7   8
ENDBRANCH   1   7
BRANCH   6  13
ATOM     13  N   LIG d   1      -4.638  76.818 117.314  0.00  0.00    -0.311 N 
ATOM     14  C   LIG d   1      -3.494  76.838 116.633  0.00  0.00     0.210 C 
ATOM     15  C   LIG d   1      -2.549  75.667 116.920  0.00  0.00     0.109 C 
ATOM     16  O   LIG d   1      -3.158  77.732 115.841  0.00  0.00    -0.276 OA
ATOM     17  H   LIG d   1      -4.815  76.073 117.959  0.00  0.00     0.149 HD
ENDBRANCH   6  13
BRANCH   5  18
ATOM     18  N   LIG d   1      -4.427  79.692 118.329  0.00  0.00     0.381 N 
ATOM     19  H   LIG d   1      -4.173  79.898 119.275  0.00  0.00    -0.090 HD
ATOM     20  H   LIG d   1      -4.591  80.560 117.850  0.00  0.00    -0.090 HD
ATOM     21  H   LIG d   1      -3.691  79.191 117.882  0.00  0.00    -0.090 HD
ENDBRANCH   5  18
BRANCH   3  22
ATOM     22  C   LIG d   1      -9.212  79.860 118.408  0.00  0.00     0.382 C 
ATOM     23  O   LIG d   1      -9.141  81.037 118.837  0.00  0.00    -0.241 OA
ATOM     24  O   LIG d   1     -10.307  79.266 118.428  0.00  0.00    -0.241 OA
ENDBRANCH   3  22
TORSDOF 7
ENDMDL
MODEL 4
REMARK VINA RESULT:      -5.0     13.538     16.065
REMARK  7 active torsions:
REMARK  status: ('A' for Active; 'I' for Inactive)
REMARK    1  A    between atoms: C_2  and  C_3 
REMARK    2  A    between atoms: C_3  and  O_6 
REMARK    3  A    between atoms: C_3  and  C_4 
REMARK    4  A    between atoms: C_7  and  O_6 
REMARK    5  A    between atoms: C_9  and  C_10 
REMARK    6  A    between atoms: N_15  and  C_14 
REMARK    7  A    between atoms: N_20  and  C_19 
REMARK       I    between atoms: C_22  and  N_20 
ROOT
ATOM      1  C   LIG d   1      -5.722  92.865 118.539  0.00  0.00     0.161 C 
ATOM      2  C   LIG d   1      -6.327  91.818 117.824  0.00  0.00     0.016 C 
ATOM      3  C   LIG d   1      -5.597  90.825 117.132  0.00  0.00     0.038 C 
ATOM      4  C   LIG d   1      -4.201  90.723 117.235  0.00  0.00     0.028 C 
ATOM      5  C   LIG d   1      -3.518  92.053 117.533  0.00  0.00    -0.047 C 
ATOM      6  C   LIG d   1      -4.202  92.707 118.755  0.00  0.00     0.091 C 
ENDROOT
BRANCH   1   7
ATOM      7  O   LIG d   1      -6.391  93.045 119.803  0.00  0.00    -0.368 OA
BRANCH   7   8
ATOM      8  C   LIG d   1      -6.822  94.393 120.109  0.00  0.00     0.119 C 
BRANCH   8   9
ATOM      9  C   LIG d   1      -8.143  94.289 120.896  0.00  0.00     0.028 C 
ATOM     10  C   LIG d   1      -8.382  92.878 121.458  0.00  0.00     0.006 C 
ENDBRANCH   8   9
BRANCH   8  11
ATOM     11  C   LIG d   1      -7.169  95.171 118.836  0.00  0.00     0.028 C 
ATOM     12  C   LIG d   1      -8.563  95.816 118.893  0.00  0.00     0.006 C 
ENDBRANCH   8  11
ENDBRANCH   7   8
ENDBRANCH   1   7
BRANCH   6  13
ATOM     13  N   LIG d   1      -3.649  94.052 119.062  0.00  0.00    -0.311 N 
ATOM     14  C   LIG d   1      -2.690  94.262 119.963  0.00  0.00     0.210 C 
ATOM     15  C   LIG d   1      -2.279  95.727 120.139  0.00  0.00     0.109 C 
ATOM     16  O   LIG d   1      -2.119  93.371 120.609  0.00  0.00    -0.276 OA
ATOM     17  H   LIG d   1      -4.034  94.829 118.561  0.00  0.00     0.149 HD
ENDBRANCH   6  13
BRANCH   5  18
ATOM     18  N   LIG d   1      -2.085  91.779 117.750  0.00  0.00     0.381 N 
ATOM     19  H   LIG d   1      -1.804  92.134 118.643  0.00  0.00    -0.090 HD
ATOM     20  H   LIG d   1      -1.552  92.251 117.042  0.00  0.00    -0.090 HD
ATOM     21  H   LIG d   1      -1.915  90.798 117.706  0.00  0.00    -0.090 HD
ENDBRANCH   5  18
BRANCH   3  22
ATOM     22  C   LIG d   1      -6.261  89.942 116.294  0.00  0.00     0.382 C 
ATOM     23  O   LIG d   1      -7.445  90.175 115.951  0.00  0.00    -0.241 OA
ATOM     24  O   LIG d   1      -5.706  88.894 115.913  0.00  0.00    -0.241 OA
ENDBRANCH   3  22
TORSDOF 7
ENDMDL
MODEL 5
REMARK VINA RESULT:      -4.9      2.258      4.445
REMARK  7 active torsions:
REMARK  status: ('A' for Active; 'I' for Inactive)
REMARK    1  A    between atoms: C_2  and  C_3 
REMARK    2  A    between atoms: C_3  and  O_6 
REMARK    3  A    between atoms: C_3  and  C_4 
REMARK    4  A    between atoms: C_7  and  O_6 
REMARK    5  A    between atoms: C_9  and  C_10 
REMARK    6  A    between atoms: N_15  and  C_14 
REMARK    7  A    between atoms: N_20  and  C_19 
REMARK       I    between atoms: C_22  and  N_20 
ROOT
ATOM      1  C   LIG d   1      -4.824  76.501 116.710  0.00  0.00     0.161 C 
ATOM      2  C   LIG d   1      -5.474  75.341 116.257  0.00  0.00     0.016 C 
ATOM      3  C   LIG d   1      -6.880  75.191 116.245  0.00  0.00     0.038 C 
ATOM      4  C   LIG d   1      -7.741  76.257 116.545  0.00  0.00     0.028 C 
ATOM      5  C   LIG d   1      -7.128  77.285 117.489  0.00  0.00    -0.047 C 
ATOM      6  C   LIG d   1      -5.750  77.715 116.936  0.00  0.00     0.091 C 
ENDROOT
BRANCH   1   7
ATOM      7  O   LIG d   1      -3.756  76.848 115.805  0.00  0.00    -0.368 OA
BRANCH   7   8
ATOM      8  C   LIG d   1      -2.414  76.546 116.258  0.00  0.00     0.119 C 
BRANCH   8   9
ATOM      9  C   LIG d   1      -2.126  75.074 115.905  0.00  0.00     0.028 C 
ATOM     10  C   LIG d   1      -1.167  74.407 116.906  0.00  0.00     0.006 C 
ENDBRANCH   8   9
BRANCH   8  11
ATOM     11  C   LIG d   1      -2.310  76.625 117.784  0.00  0.00     0.028 C 
ATOM     12  C   LIG d   1      -1.344  77.722 118.260  0.00  0.00     0.006 C 
ENDBRANCH   8  11
ENDBRANCH   7   8
ENDBRANCH   1   7
BRANCH   6  13
ATOM     13  N   LIG d   1      -5.043  78.657 117.843  0.00  0.00    -0.311 N 
ATOM     14  C   LIG d   1      -4.430  79.760 117.420  0.00  0.00     0.210 C 
ATOM     15  C   LIG d   1      -3.746  80.581 118.519  0.00  0.00     0.109 C 
ATOM     16  O   LIG d   1      -4.414  80.155 116.245  0.00  0.00    -0.276 OA
ATOM     17  H   LIG d   1      -5.034  78.430 118.818  0.00  0.00     0.149 HD
ENDBRANCH   6  13
BRANCH   5  18
ATOM     18  N   LIG d   1      -8.079  78.406 117.607  0.00  0.00     0.381 N 
ATOM     19  H   LIG d   1      -7.872  79.100 116.917  0.00  0.00    -0.090 HD
ATOM     20  H   LIG d   1      -7.978  78.824 118.515  0.00  0.00    -0.090 HD
ATOM     21  H   LIG d   1      -9.011  78.076 117.487  0.00  0.00    -0.090 HD
ENDBRANCH   5  18
BRANCH   3  22
ATOM     22  C   LIG d   1      -7.436  73.952 115.968  0.00  0.00     0.382 C 
ATOM     23  O   LIG d   1      -6.696  72.948 115.835  0.00  0.00    -0.241 OA
ATOM     24  O   LIG d   1      -8.665  73.834 115.805  0.00  0.00    -0.241 OA
ENDBRANCH   3  22
TORSDOF 7
ENDMDL
MODEL 6
REMARK VINA RESULT:      -4.9     13.386     15.903
REMARK  7 active torsions:
REMARK  status: ('A' for Active; 'I' for Inactive)
REMARK    1  A    between atoms: C_2  and  C_3 
REMARK    2  A    between atoms: C_3  and  O_6 
REMARK    3  A    between atoms: C_3  and  C_4 
REMARK    4  A    between atoms: C_7  and  O_6 
REMARK    5  A    between atoms: C_9  and  C_10 
REMARK    6  A    between atoms: N_15  and  C_14 
REMARK    7  A    between atoms: N_20  and  C_19 
REMARK       I    between atoms: C_22  and  N_20 
ROOT
ATOM      1  C   LIG d   1      -3.534  91.443 118.494  0.00  0.00     0.161 C 
ATOM      2  C   LIG d   1      -3.982  90.496 117.558  0.00  0.00     0.016 C 
ATOM      3  C   LIG d   1      -5.231  90.583 116.900  0.00  0.00     0.038 C 
ATOM      4  C   LIG d   1      -6.057  91.710 117.023  0.00  0.00     0.028 C 
ATOM      5  C   LIG d   1      -5.877  92.452 118.343  0.00  0.00    -0.047 C 
ATOM      6  C   LIG d   1      -4.373  92.736 118.558  0.00  0.00     0.091 C 
ENDROOT
BRANCH   1   7
ATOM      7  O   LIG d   1      -2.149  91.755 118.249  0.00  0.00    -0.368 OA
BRANCH   7   8
ATOM      8  C   LIG d   1      -1.196  91.216 119.197  0.00  0.00     0.119 C 
BRANCH   8   9
ATOM      9  C   LIG d   1      -0.564  92.406 119.946  0.00  0.00     0.028 C 
ATOM     10  C   LIG d   1       0.191  93.358 119.003  0.00  0.00     0.006 C 
ENDBRANCH   8   9
BRANCH   8  11
ATOM     11  C   LIG d   1      -0.032  90.522 118.485  0.00  0.00     0.028 C 
ATOM     12  C   LIG d   1      -0.435  89.926 117.127  0.00  0.00     0.006 C 
ENDBRANCH   8  11
ENDBRANCH   7   8
ENDBRANCH   1   7
BRANCH   6  13
ATOM     13  N   LIG d   1      -4.100  93.386 119.867  0.00  0.00    -0.311 N 
ATOM     14  C   LIG d   1      -3.404  94.514 119.994  0.00  0.00     0.210 C 
ATOM     15  C   LIG d   1      -3.222  95.002 121.435  0.00  0.00     0.109 C 
ATOM     16  O   LIG d   1      -2.949  95.175 119.049  0.00  0.00    -0.276 OA
ATOM     17  H   LIG d   1      -4.460  92.933 120.684  0.00  0.00     0.149 HD
ENDBRANCH   6  13
BRANCH   5  18
ATOM     18  N   LIG d   1      -6.694  93.678 118.280  0.00  0.00     0.381 N 
ATOM     19  H   LIG d   1      -7.492  93.584 118.876  0.00  0.00    -0.090 HD
ATOM     20  H   LIG d   1      -7.018  93.805 117.337  0.00  0.00    -0.090 HD
ATOM     21  H   LIG d   1      -6.151  94.465 118.561  0.00  0.00    -0.090 HD
ENDBRANCH   5  18
BRANCH   3  22
ATOM     22  C   LIG d   1      -5.682  89.515 116.140  0.00  0.00     0.382 C 
ATOM     23  O   LIG d   1      -6.894  89.439 115.822  0.00  0.00    -0.241 OA
ATOM     24  O   LIG d   1      -4.903  88.603 115.805  0.00  0.00    -0.241 OA
ENDBRANCH   3  22
TORSDOF 7
ENDMDL
MODEL 7
REMARK VINA RESULT:      -4.7      2.851      4.340
REMARK  7 active torsions:
REMARK  status: ('A' for Active; 'I' for Inactive)
REMARK    1  A    between atoms: C_2  and  C_3 
REMARK    2  A    between atoms: C_3  and  O_6 
REMARK    3  A    between atoms: C_3  and  C_4 
REMARK    4  A    between atoms: C_7  and  O_6 
REMARK    5  A    between atoms: C_9  and  C_10 
REMARK    6  A    between atoms: N_15  and  C_14 
REMARK    7  A    between atoms: N_20  and  C_19 
REMARK       I    between atoms: C_22  and  N_20 
ROOT
ATOM      1  C   LIG d   1      -5.787  80.162 117.549  0.00  0.00     0.161 C 
ATOM      2  C   LIG d   1      -7.155  80.377 117.783  0.00  0.00     0.016 C 
ATOM      3  C   LIG d   1      -8.130  79.357 117.693  0.00  0.00     0.038 C 
ATOM      4  C   LIG d   1      -7.779  78.011 117.508  0.00  0.00     0.028 C 
ATOM      5  C   LIG d   1      -6.460  77.825 116.767  0.00  0.00    -0.047 C 
ATOM      6  C   LIG d   1      -5.372  78.679 117.456  0.00  0.00     0.091 C 
ENDROOT
BRANCH   1   7
ATOM      7  O   LIG d   1      -5.007  80.839 118.555  0.00  0.00    -0.368 OA
BRANCH   7   8
ATOM      8  C   LIG d   1      -4.724  80.082 119.757  0.00  0.00     0.119 C 
BRANCH   8   9
ATOM      9  C   LIG d   1      -5.695  80.568 120.850  0.00  0.00     0.028 C 
ATOM     10  C   LIG d   1      -5.079  80.497 122.257  0.00  0.00     0.006 C 
ENDBRANCH   8   9
BRANCH   8  11
ATOM     11  C   LIG d   1      -3.323  80.392 120.293  0.00  0.00     0.028 C 
ATOM     12  C   LIG d   1      -2.406  81.026 119.235  0.00  0.00     0.006 C 
ENDBRANCH   8  11
ENDBRANCH   7   8
ENDBRANCH   1   7
BRANCH   6  13
ATOM     13  N   LIG d   1      -4.069  78.621 116.743  0.00  0.00    -0.311 N 
ATOM     14  C   LIG d   1      -2.993  78.007 117.232  0.00  0.00     0.210 C 
ATOM     15  C   LIG d   1      -1.746  78.083 116.344  0.00  0.00     0.109 C 
ATOM     16  O   LIG d   1      -2.961  77.380 118.301  0.00  0.00    -0.276 OA
ATOM     17  H   LIG d   1      -4.015  79.077 115.854  0.00  0.00     0.149 HD
ENDBRANCH   6  13
BRANCH   5  18
ATOM     18  N   LIG d   1      -6.149  76.383 116.766  0.00  0.00     0.381 N 
ATOM     19  H   LIG d   1      -6.856  75.884 116.265  0.00  0.00    -0.090 HD
ATOM     20  H   LIG d   1      -6.140  76.052 117.714  0.00  0.00    -0.090 HD
ATOM     21  H   LIG d   1      -5.260  76.226 116.344  0.00  0.00    -0.090 HD
ENDBRANCH   5  18
BRANCH   3  22
ATOM     22  C   LIG d   1      -9.476  79.685 117.747  0.00  0.00     0.382 C 
ATOM     23  O   LIG d   1     -10.321  78.814 118.063  0.00  0.00    -0.241 OA
ATOM     24  O   LIG d   1      -9.860  80.830 117.442  0.00  0.00    -0.241 OA
ENDBRANCH   3  22
TORSDOF 7
ENDMDL
MODEL 8
REMARK VINA RESULT:      -4.7     13.905     16.733
REMARK  7 active torsions:
REMARK  status: ('A' for Active; 'I' for Inactive)
REMARK    1  A    between atoms: C_2  and  C_3 
REMARK    2  A    between atoms: C_3  and  O_6 
REMARK    3  A    between atoms: C_3  and  C_4 
REMARK    4  A    between atoms: C_7  and  O_6 
REMARK    5  A    between atoms: C_9  and  C_10 
REMARK    6  A    between atoms: N_15  and  C_14 
REMARK    7  A    between atoms: N_20  and  C_19 
REMARK       I    between atoms: C_22  and  N_20 
ROOT
ATOM      1  C   LIG d   1      -4.685  92.311 119.676  0.00  0.00     0.161 C 
ATOM      2  C   LIG d   1      -3.789  91.400 119.092  0.00  0.00     0.016 C 
ATOM      3  C   LIG d   1      -3.933  90.901 117.776  0.00  0.00     0.038 C 
ATOM      4  C   LIG d   1      -4.906  91.400 116.897  0.00  0.00     0.028 C 
ATOM      5  C   LIG d   1      -6.139  91.949 117.606  0.00  0.00    -0.047 C 
ATOM      6  C   LIG d   1      -5.688  92.950 118.694  0.00  0.00     0.091 C 
ENDROOT
BRANCH   1   7
ATOM      7  O   LIG d   1      -3.952  93.333 120.380  0.00  0.00    -0.368 OA
BRANCH   7   8
ATOM      8  C   LIG d   1      -3.519  94.466 119.588  0.00  0.00     0.119 C 
BRANCH   8   9
ATOM      9  C   LIG d   1      -1.994  94.344 119.399  0.00  0.00     0.028 C 
ATOM     10  C   LIG d   1      -1.598  94.175 117.923  0.00  0.00     0.006 C 
ENDBRANCH   8   9
BRANCH   8  11
ATOM     11  C   LIG d   1      -3.729  95.784 120.340  0.00  0.00     0.028 C 
ATOM     12  C   LIG d   1      -4.461  95.596 121.678  0.00  0.00     0.006 C 
ENDBRANCH   8  11
ENDBRANCH   7   8
ENDBRANCH   1   7
BRANCH   6  13
ATOM     13  N   LIG d   1      -6.829  93.471 119.492  0.00  0.00    -0.311 N 
ATOM     14  C   LIG d   1      -7.264  94.728 119.415  0.00  0.00     0.210 C 
ATOM     15  C   LIG d   1      -8.439  95.063 120.339  0.00  0.00     0.109 C 
ATOM     16  O   LIG d   1      -6.810  95.588 118.646  0.00  0.00    -0.276 OA
ATOM     17  H   LIG d   1      -7.276  92.832 120.119  0.00  0.00     0.149 HD
ENDBRANCH   6  13
BRANCH   5  18
ATOM     18  N   LIG d   1      -7.008  92.559 116.582  0.00  0.00     0.381 N 
ATOM     19  H   LIG d   1      -7.528  91.846 116.111  0.00  0.00    -0.090 HD
ATOM     20  H   LIG d   1      -6.432  93.029 115.906  0.00  0.00    -0.090 HD
ATOM     21  H   LIG d   1      -7.631  93.209 117.007  0.00  0.00    -0.090 HD
ENDBRANCH   5  18
BRANCH   3  22
ATOM     22  C   LIG d   1      -3.122  89.863 117.342  0.00  0.00     0.382 C 
ATOM     23  O   LIG d   1      -3.618  88.734 117.114  0.00  0.00    -0.241 OA
ATOM     24  O   LIG d   1      -1.894  90.031 117.218  0.00  0.00    -0.241 OA
ENDBRANCH   3  22
TORSDOF 7
ENDMDL
MODEL 9
REMARK VINA RESULT:      -4.6      2.677      4.377
REMARK  7 active torsions:
REMARK  status: ('A' for Active; 'I' for Inactive)
REMARK    1  A    between atoms: C_2  and  C_3 
REMARK    2  A    between atoms: C_3  and  O_6 
REMARK    3  A    between atoms: C_3  and  C_4 
REMARK    4  A    between atoms: C_7  and  O_6 
REMARK    5  A    between atoms: C_9  and  C_10 
REMARK    6  A    between atoms: N_15  and  C_14 
REMARK    7  A    between atoms: N_20  and  C_19 
REMARK       I    between atoms: C_22  and  N_20 
ROOT
ATOM      1  C   LIG d   1      -5.431  79.419 117.463  0.00  0.00     0.161 C 
ATOM      2  C   LIG d   1      -6.746  79.841 117.722  0.00  0.00     0.016 C 
ATOM      3  C   LIG d   1      -7.874  79.000 117.588  0.00  0.00     0.038 C 
ATOM      4  C   LIG d   1      -7.749  77.627 117.331  0.00  0.00     0.028 C 
ATOM      5  C   LIG d   1      -6.479  77.267 116.568  0.00  0.00    -0.047 C 
ATOM      6  C   LIG d   1      -5.265  77.894 117.289  0.00  0.00     0.091 C 
ENDROOT
BRANCH   1   7
ATOM      7  O   LIG d   1      -4.550  79.905 118.495  0.00  0.00    -0.368 OA
BRANCH   7   8
ATOM      8  C   LIG d   1      -3.729  81.046 118.146  0.00  0.00     0.119 C 
BRANCH   8   9
ATOM      9  C   LIG d   1      -3.658  81.112 116.608  0.00  0.00     0.028 C 
ATOM     10  C   LIG d   1      -2.218  80.991 116.081  0.00  0.00     0.006 C 
ENDBRANCH   8   9
BRANCH   8  11
ATOM     11  C   LIG d   1      -2.282  80.855 118.611  0.00  0.00     0.028 C 
ATOM     12  C   LIG d   1      -2.159  80.726 120.137  0.00  0.00     0.006 C 
ENDBRANCH   8  11
ENDBRANCH   7   8
ENDBRANCH   1   7
BRANCH   6  13
ATOM     13  N   LIG d   1      -3.990  77.661 116.561  0.00  0.00    -0.311 N 
ATOM     14  C   LIG d   1      -2.840  77.378 117.170  0.00  0.00     0.210 C 
ATOM     15  C   LIG d   1      -1.641  77.194 116.234  0.00  0.00     0.109 C 
ATOM     16  O   LIG d   1      -2.705  77.229 118.394  0.00  0.00    -0.276 OA
ATOM     17  H   LIG d   1      -4.016  77.732 115.563  0.00  0.00     0.149 HD
ENDBRANCH   6  13
BRANCH   5  18
ATOM     18  N   LIG d   1      -6.408  75.796 116.489  0.00  0.00     0.381 N 
ATOM     19  H   LIG d   1      -5.688  75.458 117.096  0.00  0.00    -0.090 HD
ATOM     20  H   LIG d   1      -6.177  75.531 115.548  0.00  0.00    -0.090 HD
ATOM     21  H   LIG d   1      -7.284  75.398 116.748  0.00  0.00    -0.090 HD
ENDBRANCH   5  18
BRANCH   3  22
ATOM     22  C   LIG d   1      -9.148  79.541 117.673  0.00  0.00     0.382 C 
ATOM     23  O   LIG d   1     -10.120  78.810 117.983  0.00  0.00    -0.241 OA
ATOM     24  O   LIG d   1      -9.345  80.740 117.401  0.00  0.00    -0.241 OA
ENDBRANCH   3  22
TORSDOF 7
ENDMDL
