MODEL 1
REMARK VINA RESULT:      -5.4      0.000      0.000
REMARK  7 active torsions:
REMARK  status: ('A' for Active; 'I' for Inactive)
REMARK    1  A    between atoms: C_2  and  C_3 
REMARK    2  A    between atoms: C_3  and  O_6 
REMARK    3  A    between atoms: C_3  and  C_4 
REMARK    4  A    between atoms: C_7  and  O_6 
REMARK    5  A    between atoms: C_9  and  C_10 
REMARK    6  A    between atoms: N_15  and  C_14 
REMARK    7  A    between atoms: N_20  and  C_19 
REMARK       I    between atoms: C_22  and  N_20 
ROOT
ATOM      1  C   LIG d   1      -7.917  75.676 117.130  0.00  0.00     0.161 C 
ATOM      2  C   LIG d   1      -8.517  74.408 117.045  0.00  0.00     0.016 C 
ATOM      3  C   LIG d   1      -7.810  73.235 116.696  0.00  0.00     0.038 C 
ATOM      4  C   LIG d   1      -6.414  73.224 116.554  0.00  0.00     0.028 C 
ATOM      5  C   LIG d   1      -5.838  74.573 116.135  0.00  0.00    -0.047 C 
ATOM      6  C   LIG d   1      -6.374  75.665 117.088  0.00  0.00     0.091 C 
ENDROOT
BRANCH   1   7
ATOM      7  O   LIG d   1      -8.381  76.358 118.312  0.00  0.00    -0.368 OA
BRANCH   7   8
ATOM      8  C   LIG d   1      -9.292  77.463 118.094  0.00  0.00     0.119 C 
BRANCH   8   9
ATOM      9  C   LIG d   1      -8.685  78.705 118.775  0.00  0.00     0.028 C 
ATOM     10  C   LIG d   1      -8.376  79.831 117.774  0.00  0.00     0.006 C 
ENDBRANCH   8   9
BRANCH   8  11
ATOM     11  C   LIG d   1     -10.632  77.228 118.799  0.00  0.00     0.028 C 
ATOM     12  C   LIG d   1     -10.879  78.214 119.951  0.00  0.00     0.006 C 
ENDBRANCH   8  11
ENDBRANCH   7   8
ENDBRANCH   1   7
BRANCH   6  13
ATOM     13  N   LIG d   1      -5.926  77.028 116.697  0.00  0.00    -0.311 N 
ATOM     14  C   LIG d   1      -5.207  77.819 117.492  0.00  0.00     0.210 C 
ATOM     15  C   LIG d   1      -4.868  79.191 116.902  0.00  0.00     0.109 C 
ATOM     16  O   LIG d   1      -4.791  77.502 118.616  0.00  0.00    -0.276 OA
ATOM     17  H   LIG d   1      -6.193  77.353 115.789  0.00  0.00     0.149 HD
ENDBRANCH   6  13
BRANCH   5  18
ATOM     18  N   LIG d   1      -4.367  74.456 116.159  0.00  0.00     0.381 N 
ATOM     19  H   LIG d   1      -4.097  73.709 116.768  0.00  0.00    -0.090 HD
ATOM     20  H   LIG d   1      -3.979  75.311 116.517  0.00  0.00    -0.090 HD
ATOM     21  H   LIG d   1      -4.024  74.286 115.240  0.00  0.00    -0.090 HD
ENDBRANCH   5  18
BRANCH   3  22
ATOM     22  C   LIG d   1      -8.506  72.062 116.445  0.00  0.00     0.382 C 
ATOM     23  O   LIG d   1      -7.918  70.956 116.518  0.00  0.00    -0.241 OA
ATOM     24  O   LIG d   1      -9.703  72.099 116.104  0.00  0.00    -0.241 OA
ENDBRANCH   3  22
TORSDOF 7
ENDMDL
MODEL 2
REMARK VINA RESULT:      -5.2      2.153      4.452
REMARK  7 active torsions:
REMARK  status: ('A' for Active; 'I' for Inactive)
REMARK    1  A    between atoms: C_2  and  C_3 
REMARK    2  A    between atoms: C_3  and  O_6 
REMARK    3  A    between atoms: C_3  and  C_4 
REMARK    4  A    between atoms: C_7  and  O_6 
REMARK    5  A    between atoms: C_9  and  C_10 
REMARK    6  A    between atoms: N_15  and  C_14 
REMARK    7  A    between atoms: N_20  and  C_19 
REMARK       I    between atoms: C_22  and  N_20 
ROOT
ATOM      1  C   LIG d   1      -6.230  74.861 117.315  0.00  0.00     0.161 C 
ATOM      2  C   LIG d   1      -6.755  73.639 116.861  0.00  0.00     0.016 C 
ATOM      3  C   LIG d   1      -8.141  73.368 116.784  0.00  0.00     0.038 C 
ATOM      4  C   LIG d   1      -9.104  74.362 117.015  0.00  0.00     0.028 C 
ATOM      5  C   LIG d   1      -8.629  75.458 117.962  0.00  0.00    -0.047 C 
ATOM      6  C   LIG d   1      -7.267  75.994 117.466  0.00  0.00     0.091 C 
ENDROOT
BRANCH   1   7
ATOM      7  O   LIG d   1      -5.152  75.279 116.455  0.00  0.00    -0.368 OA
BRANCH   7   8
ATOM      8  C   LIG d   1      -3.818  75.186 117.014  0.00  0.00     0.119 C 
BRANCH   8   9
ATOM      9  C   LIG d   1      -3.251  76.616 117.098  0.00  0.00     0.028 C 
ATOM     10  C   LIG d   1      -3.875  77.557 116.054  0.00  0.00     0.006 C 
ENDBRANCH   8   9
BRANCH   8  11
ATOM     11  C   LIG d   1      -2.873  74.429 116.076  0.00  0.00     0.028 C 
ATOM     12  C   LIG d   1      -1.521  74.102 116.730  0.00  0.00     0.006 C 
ENDBRANCH   8  11
ENDBRANCH   7   8
ENDBRANCH   1   7
BRANCH   6  13
ATOM     13  N   LIG d   1      -6.690  77.012 118.382  0.00  0.00    -0.311 N 
ATOM     14  C   LIG d   1      -6.823  78.324 118.198  0.00  0.00     0.210 C 
ATOM     15  C   LIG d   1      -6.134  79.199 119.250  0.00  0.00     0.109 C 
ATOM     16  O   LIG d   1      -7.474  78.847 117.280  0.00  0.00    -0.276 OA
ATOM     17  H   LIG d   1      -6.172  76.675 119.170  0.00  0.00     0.149 HD
ENDBRANCH   6  13
BRANCH   5  18
ATOM     18  N   LIG d   1      -9.677  76.495 118.005  0.00  0.00     0.381 N 
ATOM     19  H   LIG d   1     -10.441  76.229 117.416  0.00  0.00    -0.090 HD
ATOM     20  H   LIG d   1      -9.296  77.357 117.657  0.00  0.00    -0.090 HD
ATOM     21  H   LIG d   1      -9.997  76.618 118.940  0.00  0.00    -0.090 HD
ENDBRANCH   5  18
BRANCH   3  22
ATOM     22  C   LIG d   1      -8.575  72.080 116.511  0.00  0.00     0.382 C 
ATOM     23  O   LIG d   1      -7.816  71.104 116.725  0.00  0.00    -0.241 OA
ATOM     24  O   LIG d   1      -9.700  71.885 116.013  0.00  0.00    -0.241 OA
ENDBRANCH   3  22
TORSDOF 7
ENDMDL
MODEL 3
REMARK VINA RESULT:      -5.0      2.389      4.859
REMARK  7 active torsions:
REMARK  status: ('A' for Active; 'I' for Inactive)
REMARK    1  A    between atoms: C_2  and  C_3 
REMARK    2  A    between atoms: C_3  and  O_6 
REMARK    3  A    between atoms: C_3  and  C_4 
REMARK    4  A    between atoms: C_7  and  O_6 
REMARK    5  A    between atoms: C_9  and  C_10 
REMARK    6  A    between atoms: N_15  and  C_14 
REMARK    7  A    between atoms: N_20  and  C_19 
REMARK       I    between atoms: C_22  and  N_20 
ROOT
ATOM      1  C   LIG d   1      -5.841  76.207 116.095  0.00  0.00     0.161 C 
ATOM      2  C   LIG d   1      -4.694  75.410 115.947  0.00  0.00     0.016 C 
ATOM      3  C   LIG d   1      -3.584  75.472 116.821  0.00  0.00     0.038 C 
ATOM      4  C   LIG d   1      -3.610  76.233 117.999  0.00  0.00     0.028 C 
ATOM      5  C   LIG d   1      -4.544  77.437 117.922  0.00  0.00    -0.047 C 
ATOM      6  C   LIG d   1      -5.933  76.963 117.437  0.00  0.00     0.091 C 
ENDROOT
BRANCH   1   7
ATOM      7  O   LIG d   1      -7.022  75.408 115.888  0.00  0.00    -0.368 OA
BRANCH   7   8
ATOM      8  C   LIG d   1      -7.138  74.218 116.707  0.00  0.00     0.119 C 
BRANCH   8   9
ATOM      9  C   LIG d   1      -6.840  73.005 115.805  0.00  0.00     0.028 C 
ATOM     10  C   LIG d   1      -7.807  71.836 116.056  0.00  0.00     0.006 C 
ENDBRANCH   8   9
BRANCH   8  11
ATOM     11  C   LIG d   1      -8.575  74.017 117.196  0.00  0.00     0.028 C 
ATOM     12  C   LIG d   1      -9.378  75.327 117.244  0.00  0.00     0.006 C 
ENDBRANCH   8  11
ENDBRANCH   7   8
ENDBRANCH   1   7
BRANCH   6  13
ATOM     13  N   LIG d   1      -6.884  78.091 117.253  0.00  0.00    -0.311 N 
ATOM     14  C   LIG d   1      -7.774  78.457 118.174  0.00  0.00     0.210 C 
ATOM     15  C   LIG d   1      -8.672  79.632 117.774  0.00  0.00     0.109 C 
ATOM     16  O   LIG d   1      -7.885  77.940 119.296  0.00  0.00    -0.276 OA
ATOM     17  H   LIG d   1      -6.842  78.585 116.384  0.00  0.00     0.149 HD
ENDBRANCH   6  13
BRANCH   5  18
ATOM     18  N   LIG d   1      -4.579  78.060 119.258  0.00  0.00     0.381 N 
ATOM     19  H   LIG d   1      -4.015  78.886 119.262  0.00  0.00    -0.090 HD
ATOM     20  H   LIG d   1      -4.199  77.415 119.928  0.00  0.00    -0.090 HD
ATOM     21  H   LIG d   1      -5.517  78.289 119.503  0.00  0.00    -0.090 HD
ENDBRANCH   5  18
BRANCH   3  22
ATOM     22  C   LIG d   1      -2.417  74.797 116.499  0.00  0.00     0.382 C 
ATOM     23  O   LIG d   1      -2.337  73.559 116.686  0.00  0.00    -0.241 OA
ATOM     24  O   LIG d   1      -1.428  75.417 116.066  0.00  0.00    -0.241 OA
ENDBRANCH   3  22
TORSDOF 7
ENDMDL
MODEL 4
REMARK VINA RESULT:      -5.0      2.351      5.537
REMARK  7 active torsions:
REMARK  status: ('A' for Active; 'I' for Inactive)
REMARK    1  A    between atoms: C_2  and  C_3 
REMARK    2  A    between atoms: C_3  and  O_6 
REMARK    3  A    between atoms: C_3  and  C_4 
REMARK    4  A    between atoms: C_7  and  O_6 
REMARK    5  A    between atoms: C_9  and  C_10 
REMARK    6  A    between atoms: N_15  and  C_14 
REMARK    7  A    between atoms: N_20  and  C_19 
REMARK       I    between atoms: C_22  and  N_20 
ROOT
ATOM      1  C   LIG d   1      -7.450  77.572 117.955  0.00  0.00     0.161 C 
ATOM      2  C   LIG d   1      -8.537  78.462 117.940  0.00  0.00     0.016 C 
ATOM      3  C   LIG d   1      -8.390  79.868 117.906  0.00  0.00     0.038 C 
ATOM      4  C   LIG d   1      -7.139  80.479 117.731  0.00  0.00     0.028 C 
ATOM      5  C   LIG d   1      -5.977  79.638 118.249  0.00  0.00    -0.047 C 
ATOM      6  C   LIG d   1      -6.081  78.216 117.652  0.00  0.00     0.091 C 
ENDROOT
BRANCH   1   7
ATOM      7  O   LIG d   1      -7.702  76.480 117.048  0.00  0.00    -0.368 OA
BRANCH   7   8
ATOM      8  C   LIG d   1      -7.926  75.184 117.658  0.00  0.00     0.119 C 
BRANCH   8   9
ATOM      9  C   LIG d   1      -6.913  74.201 117.041  0.00  0.00     0.028 C 
ATOM     10  C   LIG d   1      -6.202  74.786 115.809  0.00  0.00     0.006 C 
ENDBRANCH   8   9
BRANCH   8  11
ATOM     11  C   LIG d   1      -9.305  74.628 117.292  0.00  0.00     0.028 C 
ATOM     12  C   LIG d   1      -9.266  73.138 116.916  0.00  0.00     0.006 C 
ENDBRANCH   8  11
ENDBRANCH   7   8
ENDBRANCH   1   7
BRANCH   6  13
ATOM     13  N   LIG d   1      -5.030  77.304 118.174  0.00  0.00    -0.311 N 
ATOM     14  C   LIG d   1      -3.873  77.087 117.551  0.00  0.00     0.210 C 
ATOM     15  C   LIG d   1      -2.938  76.095 118.250  0.00  0.00     0.109 C 
ATOM     16  O   LIG d   1      -3.518  77.647 116.503  0.00  0.00    -0.276 OA
ATOM     17  H   LIG d   1      -5.222  76.832 119.036  0.00  0.00     0.149 HD
ENDBRANCH   6  13
BRANCH   5  18
ATOM     18  N   LIG d   1      -4.727  80.330 117.879  0.00  0.00     0.381 N 
ATOM     19  H   LIG d   1      -4.349  79.924 117.046  0.00  0.00    -0.090 HD
ATOM     20  H   LIG d   1      -4.058  80.211 118.619  0.00  0.00    -0.090 HD
ATOM     21  H   LIG d   1      -4.904  81.299 117.734  0.00  0.00    -0.090 HD
ENDBRANCH   5  18
BRANCH   3  22
ATOM     22  C   LIG d   1      -9.499  80.680 118.088  0.00  0.00     0.382 C 
ATOM     23  O   LIG d   1      -9.615  81.356 119.138  0.00  0.00    -0.241 OA
ATOM     24  O   LIG d   1     -10.406  80.710 117.235  0.00  0.00    -0.241 OA
ENDBRANCH   3  22
TORSDOF 7
ENDMDL
MODEL 5
REMARK VINA RESULT:      -4.9      2.157      4.270
REMARK  7 active torsions:
REMARK  status: ('A' for Active; 'I' for Inactive)
REMARK    1  A    between atoms: C_2  and  C_3 
REMARK    2  A    between atoms: C_3  and  O_6 
REMARK    3  A    between atoms: C_3  and  C_4 
REMARK    4  A    between atoms: C_7  and  O_6 
REMARK    5  A    between atoms: C_9  and  C_10 
REMARK    6  A    between atoms: N_15  and  C_14 
REMARK    7  A    between atoms: N_20  and  C_19 
REMARK       I    between atoms: C_22  and  N_20 
ROOT
ATOM      1  C   LIG d   1      -6.715  76.733 117.248  0.00  0.00     0.161 C 
ATOM      2  C   LIG d   1      -6.957  75.413 116.834  0.00  0.00     0.016 C 
ATOM      3  C   LIG d   1      -8.206  74.768 116.980  0.00  0.00     0.038 C 
ATOM      4  C   LIG d   1      -9.349  75.455 117.417  0.00  0.00     0.028 C 
ATOM      5  C   LIG d   1      -9.033  76.643 118.318  0.00  0.00    -0.047 C 
ATOM      6  C   LIG d   1      -7.979  77.535 117.623  0.00  0.00     0.091 C 
ENDROOT
BRANCH   1   7
ATOM      7  O   LIG d   1      -5.961  77.432 116.237  0.00  0.00    -0.368 OA
BRANCH   7   8
ATOM      8  C   LIG d   1      -4.560  77.659 116.531  0.00  0.00     0.119 C 
BRANCH   8   9
ATOM      9  C   LIG d   1      -4.298  77.150 117.961  0.00  0.00     0.028 C 
ATOM     10  C   LIG d   1      -3.209  76.066 118.008  0.00  0.00     0.006 C 
ENDBRANCH   8   9
BRANCH   8  11
ATOM     11  C   LIG d   1      -4.235  79.155 116.567  0.00  0.00     0.028 C 
ATOM     12  C   LIG d   1      -3.961  79.671 117.989  0.00  0.00     0.006 C 
ENDBRANCH   8  11
ENDBRANCH   7   8
ENDBRANCH   1   7
BRANCH   6  13
ATOM     13  N   LIG d   1      -7.551  78.676 118.475  0.00  0.00    -0.311 N 
ATOM     14  C   LIG d   1      -7.752  79.951 118.146  0.00  0.00     0.210 C 
ATOM     15  C   LIG d   1      -7.215  80.970 119.156  0.00  0.00     0.109 C 
ATOM     16  O   LIG d   1      -8.352  80.334 117.131  0.00  0.00    -0.276 OA
ATOM     17  H   LIG d   1      -7.084  78.455 119.332  0.00  0.00     0.149 HD
ENDBRANCH   6  13
BRANCH   5  18
ATOM     18  N   LIG d   1     -10.301  77.349 118.586  0.00  0.00     0.381 N 
ATOM     19  H   LIG d   1     -10.609  77.818 117.758  0.00  0.00    -0.090 HD
ATOM     20  H   LIG d   1     -10.145  78.039 119.300  0.00  0.00    -0.090 HD
ATOM     21  H   LIG d   1     -10.995  76.701 118.886  0.00  0.00    -0.090 HD
ENDBRANCH   5  18
BRANCH   3  22
ATOM     22  C   LIG d   1      -8.312  73.409 116.727  0.00  0.00     0.382 C 
ATOM     23  O   LIG d   1      -7.363  72.797 116.179  0.00  0.00    -0.241 OA
ATOM     24  O   LIG d   1      -9.361  72.795 116.998  0.00  0.00    -0.241 OA
ENDBRANCH   3  22
TORSDOF 7
ENDMDL
MODEL 6
REMARK VINA RESULT:      -4.6     15.745     18.207
REMARK  7 active torsions:
REMARK  status: ('A' for Active; 'I' for Inactive)
REMARK    1  A    between atoms: C_2  and  C_3 
REMARK    2  A    between atoms: C_3  and  O_6 
REMARK    3  A    between atoms: C_3  and  C_4 
REMARK    4  A    between atoms: C_7  and  O_6 
REMARK    5  A    between atoms: C_9  and  C_10 
REMARK    6  A    between atoms: N_15  and  C_14 
REMARK    7  A    between atoms: N_20  and  C_19 
REMARK       I    between atoms: C_22  and  N_20 
ROOT
ATOM      1  C   LIG d   1      -5.398  93.231 119.246  0.00  0.00     0.161 C 
ATOM      2  C   LIG d   1      -4.315  92.399 118.915  0.00  0.00     0.016 C 
ATOM      3  C   LIG d   1      -4.272  91.606 117.745  0.00  0.00     0.038 C 
ATOM      4  C   LIG d   1      -5.250  91.707 116.745  0.00  0.00     0.028 C 
ATOM      5  C   LIG d   1      -6.610  92.156 117.270  0.00  0.00    -0.047 C 
ATOM      6  C   LIG d   1      -6.424  93.438 118.112  0.00  0.00     0.091 C 
ENDROOT
BRANCH   1   7
ATOM      7  O   LIG d   1      -4.911  94.502 119.719  0.00  0.00    -0.368 OA
BRANCH   7   8
ATOM      8  C   LIG d   1      -5.050  94.748 121.140  0.00  0.00     0.119 C 
BRANCH   8   9
ATOM      9  C   LIG d   1      -5.928  93.624 121.722  0.00  0.00     0.028 C 
ATOM     10  C   LIG d   1      -7.217  94.160 122.369  0.00  0.00     0.006 C 
ENDBRANCH   8   9
BRANCH   8  11
ATOM     11  C   LIG d   1      -5.821  96.044 121.409  0.00  0.00     0.028 C 
ATOM     12  C   LIG d   1      -5.330  97.219 120.547  0.00  0.00     0.006 C 
ENDBRANCH   8  11
ENDBRANCH   7   8
ENDBRANCH   1   7
BRANCH   6  13
ATOM     13  N   LIG d   1      -7.694  93.897 118.733  0.00  0.00    -0.311 N 
ATOM     14  C   LIG d   1      -8.128  95.155 118.670  0.00  0.00     0.210 C 
ATOM     15  C   LIG d   1      -9.452  95.419 119.395  0.00  0.00     0.109 C 
ATOM     16  O   LIG d   1      -7.559  96.070 118.056  0.00  0.00    -0.276 OA
ATOM     17  H   LIG d   1      -8.235  93.213 119.225  0.00  0.00     0.149 HD
ENDBRANCH   6  13
BRANCH   5  18
ATOM     18  N   LIG d   1      -7.495  92.351 116.106  0.00  0.00     0.381 N 
ATOM     19  H   LIG d   1      -6.970  92.726 115.341  0.00  0.00    -0.090 HD
ATOM     20  H   LIG d   1      -8.212  93.012 116.350  0.00  0.00    -0.090 HD
ATOM     21  H   LIG d   1      -7.908  91.484 115.841  0.00  0.00    -0.090 HD
ENDBRANCH   5  18
BRANCH   3  22
ATOM     22  C   LIG d   1      -3.262  90.671 117.586  0.00  0.00     0.382 C 
ATOM     23  O   LIG d   1      -3.521  89.446 117.674  0.00  0.00    -0.241 OA
ATOM     24  O   LIG d   1      -2.085  91.036 117.400  0.00  0.00    -0.241 OA
ENDBRANCH   3  22
TORSDOF 7
ENDMDL
MODEL 7
REMARK VINA RESULT:      -4.6     15.751     18.412
REMARK  7 active torsions:
REMARK  status: ('A' for Active; 'I' for Inactive)
REMARK    1  A    between atoms: C_2  and  C_3 
REMARK    2  A    between atoms: C_3  and  O_6 
REMARK    3  A    between atoms: C_3  and  C_4 
REMARK    4  A    between atoms: C_7  and  O_6 
REMARK    5  A    between atoms: C_9  and  C_10 
REMARK    6  A    between atoms: N_15  and  C_14 
REMARK    7  A    between atoms: N_20  and  C_19 
REMARK       I    between atoms: C_22  and  N_20 
ROOT
ATOM      1  C   LIG d   1      -5.348  93.279 119.285  0.00  0.00     0.161 C 
ATOM      2  C   LIG d   1      -4.278  92.432 118.951  0.00  0.00     0.016 C 
ATOM      3  C   LIG d   1      -4.259  91.621 117.793  0.00  0.00     0.038 C 
ATOM      4  C   LIG d   1      -5.251  91.716 116.805  0.00  0.00     0.028 C 
ATOM      5  C   LIG d   1      -6.598  92.186 117.343  0.00  0.00    -0.047 C 
ATOM      6  C   LIG d   1      -6.388  93.479 118.163  0.00  0.00     0.091 C 
ENDROOT
BRANCH   1   7
ATOM      7  O   LIG d   1      -4.842  94.552 119.732  0.00  0.00    -0.368 OA
BRANCH   7   8
ATOM      8  C   LIG d   1      -3.424  94.608 120.022  0.00  0.00     0.119 C 
BRANCH   8   9
ATOM      9  C   LIG d   1      -3.268  95.059 121.487  0.00  0.00     0.028 C 
ATOM     10  C   LIG d   1      -1.821  94.927 121.992  0.00  0.00     0.006 C 
ENDBRANCH   8   9
BRANCH   8  11
ATOM     11  C   LIG d   1      -2.727  95.688 119.189  0.00  0.00     0.028 C 
ATOM     12  C   LIG d   1      -1.769  95.105 118.138  0.00  0.00     0.006 C 
ENDBRANCH   8  11
ENDBRANCH   7   8
ENDBRANCH   1   7
BRANCH   6  13
ATOM     13  N   LIG d   1      -7.644  93.960 118.795  0.00  0.00    -0.311 N 
ATOM     14  C   LIG d   1      -8.055  95.226 118.739  0.00  0.00     0.210 C 
ATOM     15  C   LIG d   1      -9.368  95.513 119.475  0.00  0.00     0.109 C 
ATOM     16  O   LIG d   1      -7.474  96.132 118.123  0.00  0.00    -0.276 OA
ATOM     17  H   LIG d   1      -8.194  93.285 119.289  0.00  0.00     0.149 HD
ENDBRANCH   6  13
BRANCH   5  18
ATOM     18  N   LIG d   1      -7.498  92.373 116.189  0.00  0.00     0.381 N 
ATOM     19  H   LIG d   1      -7.437  91.581 115.580  0.00  0.00    -0.090 HD
ATOM     20  H   LIG d   1      -7.206  93.187 115.677  0.00  0.00    -0.090 HD
ATOM     21  H   LIG d   1      -8.436  92.488 116.503  0.00  0.00    -0.090 HD
ENDBRANCH   5  18
BRANCH   3  22
ATOM     22  C   LIG d   1      -3.260  90.673 117.634  0.00  0.00     0.382 C 
ATOM     23  O   LIG d   1      -2.076  91.037 117.435  0.00  0.00    -0.241 OA
ATOM     24  O   LIG d   1      -3.535  89.458 117.643  0.00  0.00    -0.241 OA
ENDBRANCH   3  22
TORSDOF 7
ENDMDL
MODEL 8
REMARK VINA RESULT:      -4.5     17.473     20.202
REMARK  7 active torsions:
REMARK  status: ('A' for Active; 'I' for Inactive)
REMARK    1  A    between atoms: C_2  and  C_3 
REMARK    2  A    between atoms: C_3  and  O_6 
REMARK    3  A    between atoms: C_3  and  C_4 
REMARK    4  A    between atoms: C_7  and  O_6 
REMARK    5  A    between atoms: C_9  and  C_10 
REMARK    6  A    between atoms: N_15  and  C_14 
REMARK    7  A    between atoms: N_20  and  C_19 
REMARK       I    between atoms: C_22  and  N_20 
ROOT
ATOM      1  C   LIG d   1       0.922  59.176 120.564  0.00  0.00     0.161 C 
ATOM      2  C   LIG d   1      -0.472  59.324 120.658  0.00  0.00     0.016 C 
ATOM      3  C   LIG d   1      -1.343  59.199 119.552  0.00  0.00     0.038 C 
ATOM      4  C   LIG d   1      -0.891  58.764 118.297  0.00  0.00     0.028 C 
ATOM      5  C   LIG d   1       0.575  59.092 118.034  0.00  0.00    -0.047 C 
ATOM      6  C   LIG d   1       1.422  58.592 119.226  0.00  0.00     0.091 C 
ENDROOT
BRANCH   1   7
ATOM      7  O   LIG d   1       1.404  58.383 121.668  0.00  0.00    -0.368 OA
BRANCH   7   8
ATOM      8  C   LIG d   1       1.799  57.025 121.353  0.00  0.00     0.119 C 
BRANCH   8   9
ATOM      9  C   LIG d   1       0.685  56.090 121.862  0.00  0.00     0.028 C 
ATOM     10  C   LIG d   1      -0.099  55.432 120.714  0.00  0.00     0.006 C 
ENDBRANCH   8   9
BRANCH   8  11
ATOM     11  C   LIG d   1       3.056  56.617 122.127  0.00  0.00     0.028 C 
ATOM     12  C   LIG d   1       3.891  55.558 121.390  0.00  0.00     0.006 C 
ENDBRANCH   8  11
ENDBRANCH   7   8
ENDBRANCH   1   7
BRANCH   6  13
ATOM     13  N   LIG d   1       2.859  58.947 119.089  0.00  0.00    -0.311 N 
ATOM     14  C   LIG d   1       3.764  58.140 118.539  0.00  0.00     0.210 C 
ATOM     15  C   LIG d   1       5.193  58.692 118.515  0.00  0.00     0.109 C 
ATOM     16  O   LIG d   1       3.514  57.033 118.039  0.00  0.00    -0.276 OA
ATOM     17  H   LIG d   1       3.143  59.840 119.440  0.00  0.00     0.149 HD
ENDBRANCH   6  13
BRANCH   5  18
ATOM     18  N   LIG d   1       0.950  58.462 116.754  0.00  0.00     0.381 N 
ATOM     19  H   LIG d   1       0.644  57.510 116.743  0.00  0.00    -0.090 HD
ATOM     20  H   LIG d   1       1.951  58.473 116.667  0.00  0.00    -0.090 HD
ATOM     21  H   LIG d   1       0.537  58.960 115.996  0.00  0.00    -0.090 HD
ENDBRANCH   5  18
BRANCH   3  22
ATOM     22  C   LIG d   1      -2.678  59.549 119.686  0.00  0.00     0.382 C 
ATOM     23  O   LIG d   1      -3.224  59.520 120.815  0.00  0.00    -0.241 OA
ATOM     24  O   LIG d   1      -3.356  59.851 118.685  0.00  0.00    -0.241 OA
ENDBRANCH   3  22
TORSDOF 7
ENDMDL
MODEL 9
REMARK VINA RESULT:      -4.4     15.947     18.664
REMARK  7 active torsions:
REMARK  status: ('A' for Active; 'I' for Inactive)
REMARK    1  A    between atoms: C_2  and  C_3 
REMARK    2  A    between atoms: C_3  and  O_6 
REMARK    3  A    between atoms: C_3  and  C_4 
REMARK    4  A    between atoms: C_7  and  O_6 
REMARK    5  A    between atoms: C_9  and  C_10 
REMARK    6  A    between atoms: N_15  and  C_14 
REMARK    7  A    between atoms: N_20  and  C_19 
REMARK       I    between atoms: C_22  and  N_20 
ROOT
ATOM      1  C   LIG d   1      -5.574  93.453 119.301  0.00  0.00     0.161 C 
ATOM      2  C   LIG d   1      -5.174  92.457 118.394  0.00  0.00     0.016 C 
ATOM      3  C   LIG d   1      -5.938  92.081 117.266  0.00  0.00     0.038 C 
ATOM      4  C   LIG d   1      -7.089  92.785 116.881  0.00  0.00     0.028 C 
ATOM      5  C   LIG d   1      -7.799  93.467 118.046  0.00  0.00    -0.047 C 
ATOM      6  C   LIG d   1      -6.771  94.308 118.837  0.00  0.00     0.091 C 
ENDROOT
BRANCH   1   7
ATOM      7  O   LIG d   1      -4.451  94.297 119.626  0.00  0.00    -0.368 OA
BRANCH   7   8
ATOM      8  C   LIG d   1      -3.139  93.709 119.449  0.00  0.00     0.119 C 
BRANCH   8   9
ATOM      9  C   LIG d   1      -2.572  93.412 120.851  0.00  0.00     0.028 C 
ATOM     10  C   LIG d   1      -1.772  94.594 121.423  0.00  0.00     0.006 C 
ENDBRANCH   8   9
BRANCH   8  11
ATOM     11  C   LIG d   1      -2.162  94.705 118.819  0.00  0.00     0.028 C 
ATOM     12  C   LIG d   1      -1.398  94.116 117.622  0.00  0.00     0.006 C 
ENDBRANCH   8  11
ENDBRANCH   7   8
ENDBRANCH   1   7
BRANCH   6  13
ATOM     13  N   LIG d   1      -7.366  94.942 120.043  0.00  0.00    -0.311 N 
ATOM     14  C   LIG d   1      -7.576  96.252 120.154  0.00  0.00     0.210 C 
ATOM     15  C   LIG d   1      -8.180  96.700 121.488  0.00  0.00     0.109 C 
ATOM     16  O   LIG d   1      -7.350  97.083 119.261  0.00  0.00    -0.276 OA
ATOM     17  H   LIG d   1      -7.608  94.337 120.803  0.00  0.00     0.149 HD
ENDBRANCH   6  13
BRANCH   5  18
ATOM     18  N   LIG d   1      -8.899  94.275 117.486  0.00  0.00     0.381 N 
ATOM     19  H   LIG d   1      -9.003  95.118 118.014  0.00  0.00    -0.090 HD
ATOM     20  H   LIG d   1      -9.754  93.752 117.555  0.00  0.00    -0.090 HD
ATOM     21  H   LIG d   1      -8.710  94.493 116.532  0.00  0.00    -0.090 HD
ENDBRANCH   5  18
BRANCH   3  22
ATOM     22  C   LIG d   1      -5.574  90.963 116.531  0.00  0.00     0.382 C 
ATOM     23  O   LIG d   1      -6.420  90.385 115.808  0.00  0.00    -0.241 OA
ATOM     24  O   LIG d   1      -4.421  90.500 116.616  0.00  0.00    -0.241 OA
ENDBRANCH   3  22
TORSDOF 7
ENDMDL
