MODEL 1
REMARK VINA RESULT:      -5.1      0.000      0.000
REMARK  7 active torsions:
REMARK  status: ('A' for Active; 'I' for Inactive)
REMARK    1  A    between atoms: C_2  and  C_3 
REMARK    2  A    between atoms: C_3  and  O_6 
REMARK    3  A    between atoms: C_3  and  C_4 
REMARK    4  A    between atoms: C_7  and  O_6 
REMARK    5  A    between atoms: C_9  and  C_10 
REMARK    6  A    between atoms: N_15  and  C_14 
REMARK    7  A    between atoms: N_20  and  C_19 
REMARK       I    between atoms: C_22  and  N_20 
ROOT
ATOM      1  C   LIG d   1      -4.507  93.211 117.647  0.00  0.00     0.161 C 
ATOM      2  C   LIG d   1      -5.881  93.491 117.573  0.00  0.00     0.016 C 
ATOM      3  C   LIG d   1      -6.824  92.613 116.990  0.00  0.00     0.038 C 
ATOM      4  C   LIG d   1      -6.474  91.319 116.574  0.00  0.00     0.028 C 
ATOM      5  C   LIG d   1      -5.010  91.189 116.168  0.00  0.00    -0.047 C 
ATOM      6  C   LIG d   1      -4.123  91.757 117.299  0.00  0.00     0.091 C 
ENDROOT
BRANCH   1   7
ATOM      7  O   LIG d   1      -4.006  93.562 118.952  0.00  0.00    -0.368 OA
BRANCH   7   8
ATOM      8  C   LIG d   1      -3.140  94.722 119.011  0.00  0.00     0.119 C 
BRANCH   8   9
ATOM      9  C   LIG d   1      -1.741  94.234 119.436  0.00  0.00     0.028 C 
ATOM     10  C   LIG d   1      -0.667  94.535 118.377  0.00  0.00     0.006 C 
ENDBRANCH   8   9
BRANCH   8  11
ATOM     11  C   LIG d   1      -3.582  95.692 120.111  0.00  0.00     0.028 C 
ATOM     12  C   LIG d   1      -4.210  96.979 119.552  0.00  0.00     0.006 C 
ENDBRANCH   8  11
ENDBRANCH   7   8
ENDBRANCH   1   7
BRANCH   6  13
ATOM     13  N   LIG d   1      -2.679  91.745 116.947  0.00  0.00    -0.311 N 
ATOM     14  C   LIG d   1      -1.841  90.782 117.325  0.00  0.00     0.210 C 
ATOM     15  C   LIG d   1      -0.390  90.973 116.872  0.00  0.00     0.109 C 
ATOM     16  O   LIG d   1      -2.167  89.771 117.966  0.00  0.00    -0.276 OA
ATOM     17  H   LIG d   1      -2.336  92.512 116.402  0.00  0.00     0.149 HD
ENDBRANCH   6  13
BRANCH   5  18
ATOM     18  N   LIG d   1      -4.751  89.764 115.890  0.00  0.00     0.381 N 
ATOM     19  H   LIG d   1      -5.589  89.234 116.023  0.00  0.00    -0.090 HD
ATOM     20  H   LIG d   1      -4.059  89.427 116.537  0.00  0.00    -0.090 HD
ATOM     21  H   LIG d   1      -4.424  89.652 114.955  0.00  0.00    -0.090 HD
ENDBRANCH   5  18
BRANCH   3  22
ATOM     22  C   LIG d   1      -8.126  93.042 116.782  0.00  0.00     0.382 C 
ATOM     23  O   LIG d   1      -8.669  93.818 117.605  0.00  0.00    -0.241 OA
ATOM     24  O   LIG d   1      -8.779  92.629 115.805  0.00  0.00    -0.241 OA
ENDBRANCH   3  22
TORSDOF 7
ENDMDL
MODEL 2
REMARK VINA RESULT:      -5.1      1.979      3.115
REMARK  7 active torsions:
REMARK  status: ('A' for Active; 'I' for Inactive)
REMARK    1  A    between atoms: C_2  and  C_3 
REMARK    2  A    between atoms: C_3  and  O_6 
REMARK    3  A    between atoms: C_3  and  C_4 
REMARK    4  A    between atoms: C_7  and  O_6 
REMARK    5  A    between atoms: C_9  and  C_10 
REMARK    6  A    between atoms: N_15  and  C_14 
REMARK    7  A    between atoms: N_20  and  C_19 
REMARK       I    between atoms: C_22  and  N_20 
ROOT
ATOM      1  C   LIG d   1      -4.989  93.108 117.224  0.00  0.00     0.161 C 
ATOM      2  C   LIG d   1      -6.132  92.355 116.907  0.00  0.00     0.016 C 
ATOM      3  C   LIG d   1      -6.110  90.956 116.703  0.00  0.00     0.038 C 
ATOM      4  C   LIG d   1      -4.963  90.188 116.954  0.00  0.00     0.028 C 
ATOM      5  C   LIG d   1      -3.663  90.968 116.785  0.00  0.00    -0.047 C 
ATOM      6  C   LIG d   1      -3.750  92.272 117.610  0.00  0.00     0.091 C 
ENDROOT
BRANCH   1   7
ATOM      7  O   LIG d   1      -5.300  94.053 118.266  0.00  0.00    -0.368 OA
BRANCH   7   8
ATOM      8  C   LIG d   1      -6.360  93.671 119.178  0.00  0.00     0.119 C 
BRANCH   8   9
ATOM      9  C   LIG d   1      -7.298  94.884 119.331  0.00  0.00     0.028 C 
ATOM     10  C   LIG d   1      -7.262  95.813 118.106  0.00  0.00     0.006 C 
ENDBRANCH   8   9
BRANCH   8  11
ATOM     11  C   LIG d   1      -5.815  93.399 120.583  0.00  0.00     0.028 C 
ATOM     12  C   LIG d   1      -4.431  94.026 120.817  0.00  0.00     0.006 C 
ENDBRANCH   8  11
ENDBRANCH   7   8
ENDBRANCH   1   7
BRANCH   6  13
ATOM     13  N   LIG d   1      -2.553  93.135 117.434  0.00  0.00    -0.311 N 
ATOM     14  C   LIG d   1      -1.530  93.152 118.287  0.00  0.00     0.210 C 
ATOM     15  C   LIG d   1      -0.406  94.129 117.929  0.00  0.00     0.109 C 
ATOM     16  O   LIG d   1      -1.433  92.428 119.289  0.00  0.00    -0.276 OA
ATOM     17  H   LIG d   1      -2.535  93.732 116.631  0.00  0.00     0.149 HD
ENDBRANCH   6  13
BRANCH   5  18
ATOM     18  N   LIG d   1      -2.558  90.088 117.209  0.00  0.00     0.381 N 
ATOM     19  H   LIG d   1      -2.047  90.521 117.953  0.00  0.00    -0.090 HD
ATOM     20  H   LIG d   1      -1.934  89.954 116.434  0.00  0.00    -0.090 HD
ATOM     21  H   LIG d   1      -2.918  89.210 117.512  0.00  0.00    -0.090 HD
ENDBRANCH   5  18
BRANCH   3  22
ATOM     22  C   LIG d   1      -7.235  90.317 116.206  0.00  0.00     0.382 C 
ATOM     23  O   LIG d   1      -8.214  90.992 115.805  0.00  0.00    -0.241 OA
ATOM     24  O   LIG d   1      -7.302  89.073 116.194  0.00  0.00    -0.241 OA
ENDBRANCH   3  22
TORSDOF 7
ENDMDL
MODEL 3
REMARK VINA RESULT:      -5.1      2.165      3.978
REMARK  7 active torsions:
REMARK  status: ('A' for Active; 'I' for Inactive)
REMARK    1  A    between atoms: C_2  and  C_3 
REMARK    2  A    between atoms: C_3  and  O_6 
REMARK    3  A    between atoms: C_3  and  C_4 
REMARK    4  A    between atoms: C_7  and  O_6 
REMARK    5  A    between atoms: C_9  and  C_10 
REMARK    6  A    between atoms: N_15  and  C_14 
REMARK    7  A    between atoms: N_20  and  C_19 
REMARK       I    between atoms: C_22  and  N_20 
ROOT
ATOM      1  C   LIG d   1      -6.043  93.504 117.656  0.00  0.00     0.161 C 
ATOM      2  C   LIG d   1      -6.851  92.447 117.204  0.00  0.00     0.016 C 
ATOM      3  C   LIG d   1      -6.341  91.181 116.836  0.00  0.00     0.038 C 
ATOM      4  C   LIG d   1      -4.997  90.835 117.040  0.00  0.00     0.028 C 
ATOM      5  C   LIG d   1      -4.053  92.033 117.020  0.00  0.00    -0.047 C 
ATOM      6  C   LIG d   1      -4.589  93.110 117.990  0.00  0.00     0.091 C 
ENDROOT
BRANCH   1   7
ATOM      7  O   LIG d   1      -6.663  94.142 118.790  0.00  0.00    -0.368 OA
BRANCH   7   8
ATOM      8  C   LIG d   1      -7.798  94.994 118.500  0.00  0.00     0.119 C 
BRANCH   8   9
ATOM      9  C   LIG d   1      -7.252  96.397 118.171  0.00  0.00     0.028 C 
ATOM     10  C   LIG d   1      -6.194  96.867 119.184  0.00  0.00     0.006 C 
ENDBRANCH   8   9
BRANCH   8  11
ATOM     11  C   LIG d   1      -8.683  95.183 119.736  0.00  0.00     0.028 C 
ATOM     12  C   LIG d   1      -9.171  93.851 120.328  0.00  0.00     0.006 C 
ENDBRANCH   8  11
ENDBRANCH   7   8
ENDBRANCH   1   7
BRANCH   6  13
ATOM     13  N   LIG d   1      -3.771  94.350 117.969  0.00  0.00    -0.311 N 
ATOM     14  C   LIG d   1      -3.106  94.808 119.028  0.00  0.00     0.210 C 
ATOM     15  C   LIG d   1      -2.340  96.115 118.795  0.00  0.00     0.109 C 
ATOM     16  O   LIG d   1      -3.051  94.240 120.129  0.00  0.00    -0.276 OA
ATOM     17  H   LIG d   1      -3.734  94.857 117.106  0.00  0.00     0.149 HD
ENDBRANCH   6  13
BRANCH   5  18
ATOM     18  N   LIG d   1      -2.708  91.547 117.381  0.00  0.00     0.381 N 
ATOM     19  H   LIG d   1      -2.718  91.187 118.315  0.00  0.00    -0.090 HD
ATOM     20  H   LIG d   1      -2.064  92.317 117.346  0.00  0.00    -0.090 HD
ATOM     21  H   LIG d   1      -2.421  90.834 116.747  0.00  0.00    -0.090 HD
ENDBRANCH   5  18
BRANCH   3  22
ATOM     22  C   LIG d   1      -7.172  90.258 116.220  0.00  0.00     0.382 C 
ATOM     23  O   LIG d   1      -8.303  90.611 115.805  0.00  0.00    -0.241 OA
ATOM     24  O   LIG d   1      -6.824  89.067 116.112  0.00  0.00    -0.241 OA
ENDBRANCH   3  22
TORSDOF 7
ENDMDL
MODEL 4
REMARK VINA RESULT:      -5.1      2.430      4.571
REMARK  7 active torsions:
REMARK  status: ('A' for Active; 'I' for Inactive)
REMARK    1  A    between atoms: C_2  and  C_3 
REMARK    2  A    between atoms: C_3  and  O_6 
REMARK    3  A    between atoms: C_3  and  C_4 
REMARK    4  A    between atoms: C_7  and  O_6 
REMARK    5  A    between atoms: C_9  and  C_10 
REMARK    6  A    between atoms: N_15  and  C_14 
REMARK    7  A    between atoms: N_20  and  C_19 
REMARK       I    between atoms: C_22  and  N_20 
ROOT
ATOM      1  C   LIG d   1      -4.713  92.882 117.839  0.00  0.00     0.161 C 
ATOM      2  C   LIG d   1      -4.791  91.645 117.177  0.00  0.00     0.016 C 
ATOM      3  C   LIG d   1      -5.986  91.134 116.620  0.00  0.00     0.038 C 
ATOM      4  C   LIG d   1      -7.159  91.900 116.554  0.00  0.00     0.028 C 
ATOM      5  C   LIG d   1      -7.261  92.949 117.656  0.00  0.00    -0.047 C 
ATOM      6  C   LIG d   1      -5.958  93.780 117.679  0.00  0.00     0.091 C 
ENDROOT
BRANCH   1   7
ATOM      7  O   LIG d   1      -3.529  93.587 117.418  0.00  0.00    -0.368 OA
BRANCH   7   8
ATOM      8  C   LIG d   1      -2.505  93.772 118.427  0.00  0.00     0.119 C 
BRANCH   8   9
ATOM      9  C   LIG d   1      -2.433  95.278 118.744  0.00  0.00     0.028 C 
ATOM     10  C   LIG d   1      -2.704  95.579 120.228  0.00  0.00     0.006 C 
ENDBRANCH   8   9
BRANCH   8  11
ATOM     11  C   LIG d   1      -1.119  93.405 117.887  0.00  0.00     0.028 C 
ATOM     12  C   LIG d   1      -0.940  91.892 117.685  0.00  0.00     0.006 C 
ENDBRANCH   8  11
ENDBRANCH   7   8
ENDBRANCH   1   7
BRANCH   6  13
ATOM     13  N   LIG d   1      -5.939  94.775 118.783  0.00  0.00    -0.311 N 
ATOM     14  C   LIG d   1      -6.460  95.996 118.678  0.00  0.00     0.210 C 
ATOM     15  C   LIG d   1      -6.316  96.870 119.928  0.00  0.00     0.109 C 
ATOM     16  O   LIG d   1      -7.055  96.428 117.680  0.00  0.00    -0.276 OA
ATOM     17  H   LIG d   1      -5.503  94.497 119.640  0.00  0.00     0.149 HD
ENDBRANCH   6  13
BRANCH   5  18
ATOM     18  N   LIG d   1      -8.461  93.764 117.387  0.00  0.00     0.381 N 
ATOM     19  H   LIG d   1      -9.052  93.290 116.733  0.00  0.00    -0.090 HD
ATOM     20  H   LIG d   1      -8.176  94.637 116.980  0.00  0.00    -0.090 HD
ATOM     21  H   LIG d   1      -8.958  93.930 118.234  0.00  0.00    -0.090 HD
ENDBRANCH   5  18
BRANCH   3  22
ATOM     22  C   LIG d   1      -6.024  89.828 116.157  0.00  0.00     0.382 C 
ATOM     23  O   LIG d   1      -7.112  89.203 116.133  0.00  0.00    -0.241 OA
ATOM     24  O   LIG d   1      -4.978  89.251 115.805  0.00  0.00    -0.241 OA
ENDBRANCH   3  22
TORSDOF 7
ENDMDL
MODEL 5
REMARK VINA RESULT:      -4.9      2.621      4.395
REMARK  7 active torsions:
REMARK  status: ('A' for Active; 'I' for Inactive)
REMARK    1  A    between atoms: C_2  and  C_3 
REMARK    2  A    between atoms: C_3  and  O_6 
REMARK    3  A    between atoms: C_3  and  C_4 
REMARK    4  A    between atoms: C_7  and  O_6 
REMARK    5  A    between atoms: C_9  and  C_10 
REMARK    6  A    between atoms: N_15  and  C_14 
REMARK    7  A    between atoms: N_20  and  C_19 
REMARK       I    between atoms: C_22  and  N_20 
ROOT
ATOM      1  C   LIG d   1      -5.324  92.302 119.013  0.00  0.00     0.161 C 
ATOM      2  C   LIG d   1      -5.567  91.212 118.161  0.00  0.00     0.016 C 
ATOM      3  C   LIG d   1      -6.556  91.218 117.151  0.00  0.00     0.038 C 
ATOM      4  C   LIG d   1      -7.274  92.378 116.824  0.00  0.00     0.028 C 
ATOM      5  C   LIG d   1      -7.418  93.351 117.989  0.00  0.00    -0.047 C 
ATOM      6  C   LIG d   1      -6.021  93.615 118.598  0.00  0.00     0.091 C 
ENDROOT
BRANCH   1   7
ATOM      7  O   LIG d   1      -3.904  92.510 119.149  0.00  0.00    -0.368 OA
BRANCH   7   8
ATOM      8  C   LIG d   1      -3.146  92.557 117.915  0.00  0.00     0.119 C 
BRANCH   8   9
ATOM      9  C   LIG d   1      -1.960  91.584 118.063  0.00  0.00     0.028 C 
ATOM     10  C   LIG d   1      -1.884  90.962 119.467  0.00  0.00     0.006 C 
ENDBRANCH   8   9
BRANCH   8  11
ATOM     11  C   LIG d   1      -2.515  93.936 117.700  0.00  0.00     0.028 C 
ATOM     12  C   LIG d   1      -2.449  94.768 118.991  0.00  0.00     0.006 C 
ENDBRANCH   8  11
ENDBRANCH   7   8
ENDBRANCH   1   7
BRANCH   6  13
ATOM     13  N   LIG d   1      -6.082  94.491 119.797  0.00  0.00    -0.311 N 
ATOM     14  C   LIG d   1      -5.950  95.815 119.744  0.00  0.00     0.210 C 
ATOM     15  C   LIG d   1      -6.024  96.526 121.099  0.00  0.00     0.109 C 
ATOM     16  O   LIG d   1      -5.812  96.471 118.701  0.00  0.00    -0.276 OA
ATOM     17  H   LIG d   1      -6.222  94.044 120.681  0.00  0.00     0.149 HD
ENDBRANCH   6  13
BRANCH   5  18
ATOM     18  N   LIG d   1      -8.064  94.572 117.473  0.00  0.00     0.381 N 
ATOM     19  H   LIG d   1      -8.377  94.419 116.536  0.00  0.00    -0.090 HD
ATOM     20  H   LIG d   1      -7.390  95.317 117.463  0.00  0.00    -0.090 HD
ATOM     21  H   LIG d   1      -8.835  94.821 118.053  0.00  0.00    -0.090 HD
ENDBRANCH   5  18
BRANCH   3  22
ATOM     22  C   LIG d   1      -6.865  90.042 116.484  0.00  0.00     0.382 C 
ATOM     23  O   LIG d   1      -5.945  89.316 116.036  0.00  0.00    -0.241 OA
ATOM     24  O   LIG d   1      -8.052  89.721 116.285  0.00  0.00    -0.241 OA
ENDBRANCH   3  22
TORSDOF 7
ENDMDL
MODEL 6
REMARK VINA RESULT:      -4.7     10.749     12.788
REMARK  7 active torsions:
REMARK  status: ('A' for Active; 'I' for Inactive)
REMARK    1  A    between atoms: C_2  and  C_3 
REMARK    2  A    between atoms: C_3  and  O_6 
REMARK    3  A    between atoms: C_3  and  C_4 
REMARK    4  A    between atoms: C_7  and  O_6 
REMARK    5  A    between atoms: C_9  and  C_10 
REMARK    6  A    between atoms: N_15  and  C_14 
REMARK    7  A    between atoms: N_20  and  C_19 
REMARK       I    between atoms: C_22  and  N_20 
ROOT
ATOM      1  C   LIG d   1      -8.036  80.921 121.023  0.00  0.00     0.161 C 
ATOM      2  C   LIG d   1      -7.261  80.055 120.234  0.00  0.00     0.016 C 
ATOM      3  C   LIG d   1      -7.521  79.806 118.866  0.00  0.00     0.038 C 
ATOM      4  C   LIG d   1      -8.489  80.528 118.152  0.00  0.00     0.028 C 
ATOM      5  C   LIG d   1      -9.627  81.044 119.027  0.00  0.00    -0.047 C 
ATOM      6  C   LIG d   1      -9.028  81.801 120.234  0.00  0.00     0.091 C 
ENDROOT
BRANCH   1   7
ATOM      7  O   LIG d   1      -7.176  81.742 121.837  0.00  0.00    -0.368 OA
BRANCH   7   8
ATOM      8  C   LIG d   1      -6.105  82.427 121.143  0.00  0.00     0.119 C 
BRANCH   8   9
ATOM      9  C   LIG d   1      -4.783  82.040 121.833  0.00  0.00     0.028 C 
ATOM     10  C   LIG d   1      -3.872  81.197 120.924  0.00  0.00     0.006 C 
ENDBRANCH   8   9
BRANCH   8  11
ATOM     11  C   LIG d   1      -6.217  83.946 121.306  0.00  0.00     0.028 C 
ATOM     12  C   LIG d   1      -4.943  84.579 121.887  0.00  0.00     0.006 C 
ENDBRANCH   8  11
ENDBRANCH   7   8
ENDBRANCH   1   7
BRANCH   6  13
ATOM     13  N   LIG d   1     -10.071  82.267 121.185  0.00  0.00    -0.311 N 
ATOM     14  C   LIG d   1     -10.216  83.540 121.548  0.00  0.00     0.210 C 
ATOM     15  C   LIG d   1     -11.341  83.802 122.555  0.00  0.00     0.109 C 
ATOM     16  O   LIG d   1      -9.541  84.483 121.107  0.00  0.00    -0.276 OA
ATOM     17  H   LIG d   1     -10.682  81.573 121.568  0.00  0.00     0.149 HD
ENDBRANCH   6  13
BRANCH   5  18
ATOM     18  N   LIG d   1     -10.489  81.893 118.182  0.00  0.00     0.381 N 
ATOM     19  H   LIG d   1     -11.419  81.524 118.170  0.00  0.00    -0.090 HD
ATOM     20  H   LIG d   1     -10.133  81.883 117.243  0.00  0.00    -0.090 HD
ATOM     21  H   LIG d   1     -10.498  82.825 118.533  0.00  0.00    -0.090 HD
ENDBRANCH   5  18
BRANCH   3  22
ATOM     22  C   LIG d   1      -6.834  78.797 118.209  0.00  0.00     0.382 C 
ATOM     23  O   LIG d   1      -6.606  77.711 118.793  0.00  0.00    -0.241 OA
ATOM     24  O   LIG d   1      -6.401  78.976 117.054  0.00  0.00    -0.241 OA
ENDBRANCH   3  22
TORSDOF 7
ENDMDL
MODEL 7
REMARK VINA RESULT:      -4.7      2.390      4.635
REMARK  7 active torsions:
REMARK  status: ('A' for Active; 'I' for Inactive)
REMARK    1  A    between atoms: C_2  and  C_3 
REMARK    2  A    between atoms: C_3  and  O_6 
REMARK    3  A    between atoms: C_3  and  C_4 
REMARK    4  A    between atoms: C_7  and  O_6 
REMARK    5  A    between atoms: C_9  and  C_10 
REMARK    6  A    between atoms: N_15  and  C_14 
REMARK    7  A    between atoms: N_20  and  C_19 
REMARK       I    between atoms: C_22  and  N_20 
ROOT
ATOM      1  C   LIG d   1      -3.300  90.771 117.889  0.00  0.00     0.161 C 
ATOM      2  C   LIG d   1      -4.448  90.259 117.262  0.00  0.00     0.016 C 
ATOM      3  C   LIG d   1      -5.568  91.052 116.922  0.00  0.00     0.038 C 
ATOM      4  C   LIG d   1      -5.555  92.448 117.051  0.00  0.00     0.028 C 
ATOM      5  C   LIG d   1      -4.616  92.947 118.144  0.00  0.00    -0.047 C 
ATOM      6  C   LIG d   1      -3.222  92.312 117.936  0.00  0.00     0.091 C 
ENDROOT
BRANCH   1   7
ATOM      7  O   LIG d   1      -2.119  90.229 117.265  0.00  0.00    -0.368 OA
BRANCH   7   8
ATOM      8  C   LIG d   1      -1.344  89.302 118.065  0.00  0.00     0.119 C 
BRANCH   8   9
ATOM      9  C   LIG d   1       0.145  89.625 117.834  0.00  0.00     0.028 C 
ATOM     10  C   LIG d   1       0.371  90.488 116.581  0.00  0.00     0.006 C 
ENDBRANCH   8   9
BRANCH   8  11
ATOM     11  C   LIG d   1      -1.526  87.861 117.580  0.00  0.00     0.028 C 
ATOM     12  C   LIG d   1      -1.641  86.854 118.736  0.00  0.00     0.006 C 
ENDBRANCH   8  11
ENDBRANCH   7   8
ENDBRANCH   1   7
BRANCH   6  13
ATOM     13  N   LIG d   1      -2.264  92.681 119.011  0.00  0.00    -0.311 N 
ATOM     14  C   LIG d   1      -1.094  93.272 118.779  0.00  0.00     0.210 C 
ATOM     15  C   LIG d   1      -0.250  93.547 120.028  0.00  0.00     0.109 C 
ATOM     16  O   LIG d   1      -0.689  93.624 117.661  0.00  0.00    -0.276 OA
ATOM     17  H   LIG d   1      -2.527  92.460 119.952  0.00  0.00     0.149 HD
ENDBRANCH   6  13
BRANCH   5  18
ATOM     18  N   LIG d   1      -4.595  94.420 118.077  0.00  0.00     0.381 N 
ATOM     19  H   LIG d   1      -3.892  94.720 117.432  0.00  0.00    -0.090 HD
ATOM     20  H   LIG d   1      -4.367  94.784 118.985  0.00  0.00    -0.090 HD
ATOM     21  H   LIG d   1      -5.486  94.761 117.789  0.00  0.00    -0.090 HD
ENDBRANCH   5  18
BRANCH   3  22
ATOM     22  C   LIG d   1      -6.734  90.442 116.485  0.00  0.00     0.382 C 
ATOM     23  O   LIG d   1      -6.717  89.239 116.129  0.00  0.00    -0.241 OA
ATOM     24  O   LIG d   1      -7.793  91.092 116.399  0.00  0.00    -0.241 OA
ENDBRANCH   3  22
TORSDOF 7
ENDMDL
MODEL 8
REMARK VINA RESULT:      -4.6      2.330      4.191
REMARK  7 active torsions:
REMARK  status: ('A' for Active; 'I' for Inactive)
REMARK    1  A    between atoms: C_2  and  C_3 
REMARK    2  A    between atoms: C_3  and  O_6 
REMARK    3  A    between atoms: C_3  and  C_4 
REMARK    4  A    between atoms: C_7  and  O_6 
REMARK    5  A    between atoms: C_9  and  C_10 
REMARK    6  A    between atoms: N_15  and  C_14 
REMARK    7  A    between atoms: N_20  and  C_19 
REMARK       I    between atoms: C_22  and  N_20 
ROOT
ATOM      1  C   LIG d   1      -4.731  92.136 118.451  0.00  0.00     0.161 C 
ATOM      2  C   LIG d   1      -5.374  91.161 117.671  0.00  0.00     0.016 C 
ATOM      3  C   LIG d   1      -6.474  91.440 116.827  0.00  0.00     0.038 C 
ATOM      4  C   LIG d   1      -6.912  92.751 116.590  0.00  0.00     0.028 C 
ATOM      5  C   LIG d   1      -6.619  93.706 117.742  0.00  0.00    -0.047 C 
ATOM      6  C   LIG d   1      -5.124  93.591 118.120  0.00  0.00     0.091 C 
ENDROOT
BRANCH   1   7
ATOM      7  O   LIG d   1      -3.302  91.971 118.361  0.00  0.00    -0.368 OA
BRANCH   7   8
ATOM      8  C   LIG d   1      -2.647  91.431 119.535  0.00  0.00     0.119 C 
BRANCH   8   9
ATOM      9  C   LIG d   1      -1.271  92.114 119.653  0.00  0.00     0.028 C 
ATOM     10  C   LIG d   1      -1.129  92.929 120.949  0.00  0.00     0.006 C 
ENDBRANCH   8   9
BRANCH   8  11
ATOM     11  C   LIG d   1      -2.346  89.939 119.369  0.00  0.00     0.028 C 
ATOM     12  C   LIG d   1      -1.651  89.616 118.037  0.00  0.00     0.006 C 
ENDBRANCH   8  11
ENDBRANCH   7   8
ENDBRANCH   1   7
BRANCH   6  13
ATOM     13  N   LIG d   1      -4.771  94.431 119.295  0.00  0.00    -0.311 N 
ATOM     14  C   LIG d   1      -3.661  95.163 119.365  0.00  0.00     0.210 C 
ATOM     15  C   LIG d   1      -3.480  95.939 120.674  0.00  0.00     0.109 C 
ATOM     16  O   LIG d   1      -2.825  95.269 118.455  0.00  0.00    -0.276 OA
ATOM     17  H   LIG d   1      -5.410  94.428 120.066  0.00  0.00     0.149 HD
ENDBRANCH   6  13
BRANCH   5  18
ATOM     18  N   LIG d   1      -7.002  95.062 117.306  0.00  0.00     0.381 N 
ATOM     19  H   LIG d   1      -7.325  95.034 116.359  0.00  0.00    -0.090 HD
ATOM     20  H   LIG d   1      -6.194  95.657 117.346  0.00  0.00    -0.090 HD
ATOM     21  H   LIG d   1      -7.718  95.421 117.898  0.00  0.00    -0.090 HD
ENDBRANCH   5  18
BRANCH   3  22
ATOM     22  C   LIG d   1      -7.172  90.395 116.241  0.00  0.00     0.382 C 
ATOM     23  O   LIG d   1      -8.333  90.584 115.805  0.00  0.00    -0.241 OA
ATOM     24  O   LIG d   1      -6.674  89.255 116.184  0.00  0.00    -0.241 OA
ENDBRANCH   3  22
TORSDOF 7
ENDMDL
MODEL 9
REMARK VINA RESULT:      -4.6     32.569     34.610
REMARK  7 active torsions:
REMARK  status: ('A' for Active; 'I' for Inactive)
REMARK    1  A    between atoms: C_2  and  C_3 
REMARK    2  A    between atoms: C_3  and  O_6 
REMARK    3  A    between atoms: C_3  and  C_4 
REMARK    4  A    between atoms: C_7  and  O_6 
REMARK    5  A    between atoms: C_9  and  C_10 
REMARK    6  A    between atoms: N_15  and  C_14 
REMARK    7  A    between atoms: N_20  and  C_19 
REMARK       I    between atoms: C_22  and  N_20 
ROOT
ATOM      1  C   LIG d   1      -1.258  58.905 118.978  0.00  0.00     0.161 C 
ATOM      2  C   LIG d   1       0.139  58.972 119.109  0.00  0.00     0.016 C 
ATOM      3  C   LIG d   1       1.034  58.315 118.234  0.00  0.00     0.038 C 
ATOM      4  C   LIG d   1       0.593  57.665 117.072  0.00  0.00     0.028 C 
ATOM      5  C   LIG d   1      -0.837  57.145 117.174  0.00  0.00    -0.047 C 
ATOM      6  C   LIG d   1      -1.755  58.293 117.651  0.00  0.00     0.091 C 
ENDROOT
BRANCH   1   7
ATOM      7  O   LIG d   1      -1.830  60.214 119.171  0.00  0.00    -0.368 OA
BRANCH   7   8
ATOM      8  C   LIG d   1      -2.611  60.396 120.378  0.00  0.00     0.119 C 
BRANCH   8   9
ATOM      9  C   LIG d   1      -1.726  61.145 121.393  0.00  0.00     0.028 C 
ATOM     10  C   LIG d   1      -1.082  60.198 122.420  0.00  0.00     0.006 C 
ENDBRANCH   8   9
BRANCH   8  11
ATOM     11  C   LIG d   1      -2.939  59.054 121.037  0.00  0.00     0.028 C 
ATOM     12  C   LIG d   1      -4.450  58.828 121.210  0.00  0.00     0.006 C 
ENDBRANCH   8  11
ENDBRANCH   7   8
ENDBRANCH   1   7
BRANCH   6  13
ATOM     13  N   LIG d   1      -3.158  57.847 117.859  0.00  0.00    -0.311 N 
ATOM     14  C   LIG d   1      -4.212  58.489 117.359  0.00  0.00     0.210 C 
ATOM     15  C   LIG d   1      -5.570  57.872 117.709  0.00  0.00     0.109 C 
ATOM     16  O   LIG d   1      -4.151  59.492 116.632  0.00  0.00    -0.276 OA
ATOM     17  H   LIG d   1      -3.298  57.024 118.411  0.00  0.00     0.149 HD
ENDBRANCH   6  13
BRANCH   5  18
ATOM     18  N   LIG d   1      -1.214  56.615 115.850  0.00  0.00     0.381 N 
ATOM     19  H   LIG d   1      -2.101  56.988 115.576  0.00  0.00    -0.090 HD
ATOM     20  H   LIG d   1      -1.298  55.615 115.912  0.00  0.00    -0.090 HD
ATOM     21  H   LIG d   1      -0.521  56.856 115.176  0.00  0.00    -0.090 HD
ENDBRANCH   5  18
BRANCH   3  22
ATOM     22  C   LIG d   1       2.386  58.270 118.541  0.00  0.00     0.382 C 
ATOM     23  O   LIG d   1       3.090  57.315 118.132  0.00  0.00    -0.241 OA
ATOM     24  O   LIG d   1       2.900  59.148 119.259  0.00  0.00    -0.241 OA
ENDBRANCH   3  22
TORSDOF 7
ENDMDL
