MODEL 1
REMARK VINA RESULT:      -5.2      0.000      0.000
REMARK  7 active torsions:
REMARK  status: ('A' for Active; 'I' for Inactive)
REMARK    1  A    between atoms: C_2  and  C_3 
REMARK    2  A    between atoms: C_3  and  O_6 
REMARK    3  A    between atoms: C_3  and  C_4 
REMARK    4  A    between atoms: C_7  and  O_6 
REMARK    5  A    between atoms: C_9  and  C_10 
REMARK    6  A    between atoms: N_15  and  C_14 
REMARK    7  A    between atoms: N_20  and  C_19 
REMARK       I    between atoms: C_22  and  N_20 
ROOT
ATOM      1  C   LIG d   1      -6.240  74.435 117.349  0.00  0.00     0.161 C 
ATOM      2  C   LIG d   1      -4.995  73.805 117.184  0.00  0.00     0.016 C 
ATOM      3  C   LIG d   1      -3.779  74.346 117.662  0.00  0.00     0.038 C 
ATOM      4  C   LIG d   1      -3.745  75.487 118.477  0.00  0.00     0.028 C 
ATOM      5  C   LIG d   1      -4.921  76.431 118.246  0.00  0.00    -0.047 C 
ATOM      6  C   LIG d   1      -6.236  75.625 118.332  0.00  0.00     0.091 C 
ENDROOT
BRANCH   1   7
ATOM      7  O   LIG d   1      -7.230  73.464 117.742  0.00  0.00    -0.368 OA
BRANCH   7   8
ATOM      8  C   LIG d   1      -7.990  72.859 116.667  0.00  0.00     0.119 C 
BRANCH   8   9
ATOM      9  C   LIG d   1      -9.478  72.914 117.064  0.00  0.00     0.028 C 
ATOM     10  C   LIG d   1     -10.036  74.347 117.054  0.00  0.00     0.006 C 
ENDBRANCH   8   9
BRANCH   8  11
ATOM     11  C   LIG d   1      -7.663  71.370 116.523  0.00  0.00     0.028 C 
ATOM     12  C   LIG d   1      -8.788  70.460 117.044  0.00  0.00     0.006 C 
ENDBRANCH   8  11
ENDBRANCH   7   8
ENDBRANCH   1   7
BRANCH   6  13
ATOM     13  N   LIG d   1      -7.432  76.457 118.034  0.00  0.00    -0.311 N 
ATOM     14  C   LIG d   1      -8.164  77.050 118.975  0.00  0.00     0.210 C 
ATOM     15  C   LIG d   1      -9.366  77.845 118.454  0.00  0.00     0.109 C 
ATOM     16  O   LIG d   1      -7.915  77.020 120.190  0.00  0.00    -0.276 OA
ATOM     17  H   LIG d   1      -7.687  76.560 117.072  0.00  0.00     0.149 HD
ENDBRANCH   6  13
BRANCH   5  18
ATOM     18  N   LIG d   1      -4.834  77.505 119.253  0.00  0.00     0.381 N 
ATOM     19  H   LIG d   1      -5.273  77.210 120.102  0.00  0.00    -0.090 HD
ATOM     20  H   LIG d   1      -5.323  78.313 118.910  0.00  0.00    -0.090 HD
ATOM     21  H   LIG d   1      -3.880  77.734 119.427  0.00  0.00    -0.090 HD
ENDBRANCH   5  18
BRANCH   3  22
ATOM     22  C   LIG d   1      -2.576  73.765 117.292  0.00  0.00     0.382 C 
ATOM     23  O   LIG d   1      -2.141  72.770 117.921  0.00  0.00    -0.241 OA
ATOM     24  O   LIG d   1      -1.898  74.249 116.366  0.00  0.00    -0.241 OA
ENDBRANCH   3  22
TORSDOF 7
ENDMDL
MODEL 2
REMARK VINA RESULT:      -5.0      0.739      1.730
REMARK  7 active torsions:
REMARK  status: ('A' for Active; 'I' for Inactive)
REMARK    1  A    between atoms: C_2  and  C_3 
REMARK    2  A    between atoms: C_3  and  O_6 
REMARK    3  A    between atoms: C_3  and  C_4 
REMARK    4  A    between atoms: C_7  and  O_6 
REMARK    5  A    between atoms: C_9  and  C_10 
REMARK    6  A    between atoms: N_15  and  C_14 
REMARK    7  A    between atoms: N_20  and  C_19 
REMARK       I    between atoms: C_22  and  N_20 
ROOT
ATOM      1  C   LIG d   1      -6.039  75.022 116.597  0.00  0.00     0.161 C 
ATOM      2  C   LIG d   1      -4.806  74.364 116.457  0.00  0.00     0.016 C 
ATOM      3  C   LIG d   1      -3.771  74.437 117.417  0.00  0.00     0.038 C 
ATOM      4  C   LIG d   1      -3.958  75.056 118.662  0.00  0.00     0.028 C 
ATOM      5  C   LIG d   1      -5.008  76.162 118.638  0.00  0.00    -0.047 C 
ATOM      6  C   LIG d   1      -6.302  75.610 117.999  0.00  0.00     0.091 C 
ENDROOT
BRANCH   1   7
ATOM      7  O   LIG d   1      -7.111  74.137 116.215  0.00  0.00    -0.368 OA
BRANCH   7   8
ATOM      8  C   LIG d   1      -7.337  72.998 117.082  0.00  0.00     0.119 C 
BRANCH   8   9
ATOM      9  C   LIG d   1      -7.461  71.751 116.185  0.00  0.00     0.028 C 
ATOM     10  C   LIG d   1      -8.323  70.651 116.826  0.00  0.00     0.006 C 
ENDBRANCH   8   9
BRANCH   8  11
ATOM     11  C   LIG d   1      -8.680  73.109 117.810  0.00  0.00     0.028 C 
ATOM     12  C   LIG d   1      -9.701  73.969 117.049  0.00  0.00     0.006 C 
ENDBRANCH   8  11
ENDBRANCH   7   8
ENDBRANCH   1   7
BRANCH   6  13
ATOM     13  N   LIG d   1      -7.354  76.651 117.859  0.00  0.00    -0.311 N 
ATOM     14  C   LIG d   1      -8.317  76.845 118.758  0.00  0.00     0.210 C 
ATOM     15  C   LIG d   1      -9.311  77.958 118.411  0.00  0.00     0.109 C 
ATOM     16  O   LIG d   1      -8.425  76.223 119.825  0.00  0.00    -0.276 OA
ATOM     17  H   LIG d   1      -7.324  77.223 117.038  0.00  0.00     0.149 HD
ENDBRANCH   6  13
BRANCH   5  18
ATOM     18  N   LIG d   1      -5.199  76.625 120.025  0.00  0.00     0.381 N 
ATOM     19  H   LIG d   1      -5.123  77.622 120.063  0.00  0.00    -0.090 HD
ATOM     20  H   LIG d   1      -4.477  76.231 120.602  0.00  0.00    -0.090 HD
ATOM     21  H   LIG d   1      -6.094  76.340 120.359  0.00  0.00    -0.090 HD
ENDBRANCH   5  18
BRANCH   3  22
ATOM     22  C   LIG d   1      -2.519  73.921 117.119  0.00  0.00     0.382 C 
ATOM     23  O   LIG d   1      -1.845  74.413 116.182  0.00  0.00    -0.241 OA
ATOM     24  O   LIG d   1      -2.073  72.942 117.747  0.00  0.00    -0.241 OA
ENDBRANCH   3  22
TORSDOF 7
ENDMDL
MODEL 3
REMARK VINA RESULT:      -4.8      2.559      5.758
REMARK  7 active torsions:
REMARK  status: ('A' for Active; 'I' for Inactive)
REMARK    1  A    between atoms: C_2  and  C_3 
REMARK    2  A    between atoms: C_3  and  O_6 
REMARK    3  A    between atoms: C_3  and  C_4 
REMARK    4  A    between atoms: C_7  and  O_6 
REMARK    5  A    between atoms: C_9  and  C_10 
REMARK    6  A    between atoms: N_15  and  C_14 
REMARK    7  A    between atoms: N_20  and  C_19 
REMARK       I    between atoms: C_22  and  N_20 
ROOT
ATOM      1  C   LIG d   1      -7.412  77.287 117.874  0.00  0.00     0.161 C 
ATOM      2  C   LIG d   1      -8.592  77.975 118.201  0.00  0.00     0.016 C 
ATOM      3  C   LIG d   1      -8.665  79.382 118.320  0.00  0.00     0.038 C 
ATOM      4  C   LIG d   1      -7.590  80.212 117.969  0.00  0.00     0.028 C 
ATOM      5  C   LIG d   1      -6.230  79.538 118.121  0.00  0.00    -0.047 C 
ATOM      6  C   LIG d   1      -6.257  78.182 117.380  0.00  0.00     0.091 C 
ENDROOT
BRANCH   1   7
ATOM      7  O   LIG d   1      -7.699  76.258 116.906  0.00  0.00    -0.368 OA
BRANCH   7   8
ATOM      8  C   LIG d   1      -7.704  74.898 117.403  0.00  0.00     0.119 C 
BRANCH   8   9
ATOM      9  C   LIG d   1      -6.856  74.048 116.438  0.00  0.00     0.028 C 
ATOM     10  C   LIG d   1      -5.416  73.850 116.940  0.00  0.00     0.006 C 
ENDBRANCH   8   9
BRANCH   8  11
ATOM     11  C   LIG d   1      -9.109  74.290 117.350  0.00  0.00     0.028 C 
ATOM     12  C   LIG d   1      -9.093  72.771 117.120  0.00  0.00     0.006 C 
ENDBRANCH   8  11
ENDBRANCH   7   8
ENDBRANCH   1   7
BRANCH   6  13
ATOM     13  N   LIG d   1      -4.993  77.419 117.549  0.00  0.00    -0.311 N 
ATOM     14  C   LIG d   1      -3.939  77.559 116.746  0.00  0.00     0.210 C 
ATOM     15  C   LIG d   1      -2.744  76.662 117.084  0.00  0.00     0.109 C 
ATOM     16  O   LIG d   1      -3.869  78.364 115.805  0.00  0.00    -0.276 OA
ATOM     17  H   LIG d   1      -4.952  76.766 118.306  0.00  0.00     0.149 HD
ENDBRANCH   6  13
BRANCH   5  18
ATOM     18  N   LIG d   1      -5.212  80.466 117.592  0.00  0.00     0.381 N 
ATOM     19  H   LIG d   1      -4.297  80.109 117.783  0.00  0.00    -0.090 HD
ATOM     20  H   LIG d   1      -5.308  81.352 118.056  0.00  0.00    -0.090 HD
ATOM     21  H   LIG d   1      -5.333  80.581 116.610  0.00  0.00    -0.090 HD
ENDBRANCH   5  18
BRANCH   3  22
ATOM     22  C   LIG d   1      -9.811  79.970 118.832  0.00  0.00     0.382 C 
ATOM     23  O   LIG d   1     -10.232  79.640 119.967  0.00  0.00    -0.241 OA
ATOM     24  O   LIG d   1     -10.455  80.795 118.155  0.00  0.00    -0.241 OA
ENDBRANCH   3  22
TORSDOF 7
ENDMDL
MODEL 4
REMARK VINA RESULT:      -4.8      1.778      5.136
REMARK  7 active torsions:
REMARK  status: ('A' for Active; 'I' for Inactive)
REMARK    1  A    between atoms: C_2  and  C_3 
REMARK    2  A    between atoms: C_3  and  O_6 
REMARK    3  A    between atoms: C_3  and  C_4 
REMARK    4  A    between atoms: C_7  and  O_6 
REMARK    5  A    between atoms: C_9  and  C_10 
REMARK    6  A    between atoms: N_15  and  C_14 
REMARK    7  A    between atoms: N_20  and  C_19 
REMARK       I    between atoms: C_22  and  N_20 
ROOT
ATOM      1  C   LIG d   1      -7.229  75.912 118.065  0.00  0.00     0.161 C 
ATOM      2  C   LIG d   1      -8.257  76.849 118.259  0.00  0.00     0.016 C 
ATOM      3  C   LIG d   1      -8.035  78.244 118.323  0.00  0.00     0.038 C 
ATOM      4  C   LIG d   1      -6.782  78.810 118.046  0.00  0.00     0.028 C 
ATOM      5  C   LIG d   1      -5.615  77.873 118.344  0.00  0.00    -0.047 C 
ATOM      6  C   LIG d   1      -5.872  76.516 117.649  0.00  0.00     0.091 C 
ENDROOT
BRANCH   1   7
ATOM      7  O   LIG d   1      -7.648  74.917 117.110  0.00  0.00    -0.368 OA
BRANCH   7   8
ATOM      8  C   LIG d   1      -8.007  73.623 117.653  0.00  0.00     0.119 C 
BRANCH   8   9
ATOM      9  C   LIG d   1      -7.029  72.587 117.064  0.00  0.00     0.028 C 
ATOM     10  C   LIG d   1      -7.754  71.371 116.463  0.00  0.00     0.006 C 
ENDBRANCH   8   9
BRANCH   8  11
ATOM     11  C   LIG d   1      -9.395  73.185 117.178  0.00  0.00     0.028 C 
ATOM     12  C   LIG d   1     -10.320  74.372 116.865  0.00  0.00     0.006 C 
ENDBRANCH   8  11
ENDBRANCH   7   8
ENDBRANCH   1   7
BRANCH   6  13
ATOM     13  N   LIG d   1      -4.819  75.514 117.959  0.00  0.00    -0.311 N 
ATOM     14  C   LIG d   1      -4.193  74.797 117.027  0.00  0.00     0.210 C 
ATOM     15  C   LIG d   1      -3.155  73.805 117.563  0.00  0.00     0.109 C 
ATOM     16  O   LIG d   1      -4.375  74.911 115.806  0.00  0.00    -0.276 OA
ATOM     17  H   LIG d   1      -4.586  75.379 118.923  0.00  0.00     0.149 HD
ENDBRANCH   6  13
BRANCH   5  18
ATOM     18  N   LIG d   1      -4.382  78.536 117.880  0.00  0.00     0.381 N 
ATOM     19  H   LIG d   1      -4.609  79.405 117.440  0.00  0.00    -0.090 HD
ATOM     20  H   LIG d   1      -3.932  77.947 117.202  0.00  0.00    -0.090 HD
ATOM     21  H   LIG d   1      -3.770  78.696 118.650  0.00  0.00    -0.090 HD
ENDBRANCH   5  18
BRANCH   3  22
ATOM     22  C   LIG d   1      -9.067  79.087 118.708  0.00  0.00     0.382 C 
ATOM     23  O   LIG d   1      -8.813  80.141 119.340  0.00  0.00    -0.241 OA
ATOM     24  O   LIG d   1     -10.252  78.785 118.471  0.00  0.00    -0.241 OA
ENDBRANCH   3  22
TORSDOF 7
ENDMDL
MODEL 5
REMARK VINA RESULT:      -4.8      2.541      6.081
REMARK  7 active torsions:
REMARK  status: ('A' for Active; 'I' for Inactive)
REMARK    1  A    between atoms: C_2  and  C_3 
REMARK    2  A    between atoms: C_3  and  O_6 
REMARK    3  A    between atoms: C_3  and  C_4 
REMARK    4  A    between atoms: C_7  and  O_6 
REMARK    5  A    between atoms: C_9  and  C_10 
REMARK    6  A    between atoms: N_15  and  C_14 
REMARK    7  A    between atoms: N_20  and  C_19 
REMARK       I    between atoms: C_22  and  N_20 
ROOT
ATOM      1  C   LIG d   1      -7.315  75.971 117.947  0.00  0.00     0.161 C 
ATOM      2  C   LIG d   1      -7.693  77.244 118.406  0.00  0.00     0.016 C 
ATOM      3  C   LIG d   1      -9.026  77.713 118.389  0.00  0.00     0.038 C 
ATOM      4  C   LIG d   1     -10.102  76.878 118.050  0.00  0.00     0.028 C 
ATOM      5  C   LIG d   1      -9.716  75.749 117.100  0.00  0.00    -0.047 C 
ATOM      6  C   LIG d   1      -8.488  75.006 117.677  0.00  0.00     0.091 C 
ENDROOT
BRANCH   1   7
ATOM      7  O   LIG d   1      -6.380  75.377 118.869  0.00  0.00    -0.368 OA
BRANCH   7   8
ATOM      8  C   LIG d   1      -5.005  75.294 118.419  0.00  0.00     0.119 C 
BRANCH   8   9
ATOM      9  C   LIG d   1      -4.214  76.401 119.142  0.00  0.00     0.028 C 
ATOM     10  C   LIG d   1      -4.001  76.091 120.633  0.00  0.00     0.006 C 
ENDBRANCH   8   9
BRANCH   8  11
ATOM     11  C   LIG d   1      -4.887  75.620 116.927  0.00  0.00     0.028 C 
ATOM     12  C   LIG d   1      -4.416  74.420 116.090  0.00  0.00     0.006 C 
ENDBRANCH   8  11
ENDBRANCH   7   8
ENDBRANCH   1   7
BRANCH   6  13
ATOM     13  N   LIG d   1      -7.994  73.939 116.769  0.00  0.00    -0.311 N 
ATOM     14  C   LIG d   1      -7.700  72.706 117.178  0.00  0.00     0.210 C 
ATOM     15  C   LIG d   1      -7.186  71.766 116.083  0.00  0.00     0.109 C 
ATOM     16  O   LIG d   1      -7.846  72.292 118.338  0.00  0.00    -0.276 OA
ATOM     17  H   LIG d   1      -7.875  74.180 115.804  0.00  0.00     0.149 HD
ENDBRANCH   6  13
BRANCH   5  18
ATOM     18  N   LIG d   1     -10.896  74.878 116.940  0.00  0.00     0.381 N 
ATOM     19  H   LIG d   1     -10.674  74.116 116.332  0.00  0.00    -0.090 HD
ATOM     20  H   LIG d   1     -11.638  75.411 116.521  0.00  0.00    -0.090 HD
ATOM     21  H   LIG d   1     -11.186  74.531 117.828  0.00  0.00    -0.090 HD
ENDBRANCH   5  18
BRANCH   3  22
ATOM     22  C   LIG d   1      -9.290  79.044 118.676  0.00  0.00     0.382 C 
ATOM     23  O   LIG d   1     -10.466  79.412 118.916  0.00  0.00    -0.241 OA
ATOM     24  O   LIG d   1      -8.375  79.888 118.655  0.00  0.00    -0.241 OA
ENDBRANCH   3  22
TORSDOF 7
ENDMDL
MODEL 6
REMARK VINA RESULT:      -4.8      2.137      5.022
REMARK  7 active torsions:
REMARK  status: ('A' for Active; 'I' for Inactive)
REMARK    1  A    between atoms: C_2  and  C_3 
REMARK    2  A    between atoms: C_3  and  O_6 
REMARK    3  A    between atoms: C_3  and  C_4 
REMARK    4  A    between atoms: C_7  and  O_6 
REMARK    5  A    between atoms: C_9  and  C_10 
REMARK    6  A    between atoms: N_15  and  C_14 
REMARK    7  A    between atoms: N_20  and  C_19 
REMARK       I    between atoms: C_22  and  N_20 
ROOT
ATOM      1  C   LIG d   1      -6.449  74.866 117.343  0.00  0.00     0.161 C 
ATOM      2  C   LIG d   1      -6.734  73.546 116.956  0.00  0.00     0.016 C 
ATOM      3  C   LIG d   1      -8.047  73.038 116.827  0.00  0.00     0.038 C 
ATOM      4  C   LIG d   1      -9.175  73.866 116.930  0.00  0.00     0.028 C 
ATOM      5  C   LIG d   1      -8.951  75.088 117.815  0.00  0.00    -0.047 C 
ATOM      6  C   LIG d   1      -7.667  75.814 117.352  0.00  0.00     0.091 C 
ENDROOT
BRANCH   1   7
ATOM      7  O   LIG d   1      -5.402  75.404 116.512  0.00  0.00    -0.368 OA
BRANCH   7   8
ATOM      8  C   LIG d   1      -4.118  75.601 117.154  0.00  0.00     0.119 C 
BRANCH   8   9
ATOM      9  C   LIG d   1      -3.155  74.532 116.600  0.00  0.00     0.028 C 
ATOM     10  C   LIG d   1      -2.696  73.540 117.681  0.00  0.00     0.006 C 
ENDBRANCH   8   9
BRANCH   8  11
ATOM     11  C   LIG d   1      -4.199  75.332 118.659  0.00  0.00     0.028 C 
ATOM     12  C   LIG d   1      -3.870  76.573 119.505  0.00  0.00     0.006 C 
ENDBRANCH   8  11
ENDBRANCH   7   8
ENDBRANCH   1   7
BRANCH   6  13
ATOM     13  N   LIG d   1      -7.328  76.973 118.218  0.00  0.00    -0.311 N 
ATOM     14  C   LIG d   1      -6.803  78.106 117.754  0.00  0.00     0.210 C 
ATOM     15  C   LIG d   1      -6.511  79.167 118.820  0.00  0.00     0.109 C 
ATOM     16  O   LIG d   1      -6.581  78.344 116.558  0.00  0.00    -0.276 OA
ATOM     17  H   LIG d   1      -7.505  76.877 119.199  0.00  0.00     0.149 HD
ENDBRANCH   6  13
BRANCH   5  18
ATOM     18  N   LIG d   1     -10.157  75.932 117.723  0.00  0.00     0.381 N 
ATOM     19  H   LIG d   1     -10.973  75.354 117.682  0.00  0.00    -0.090 HD
ATOM     20  H   LIG d   1     -10.112  76.473 116.878  0.00  0.00    -0.090 HD
ATOM     21  H   LIG d   1     -10.210  76.537 118.513  0.00  0.00    -0.090 HD
ENDBRANCH   5  18
BRANCH   3  22
ATOM     22  C   LIG d   1      -8.243  71.680 116.630  0.00  0.00     0.382 C 
ATOM     23  O   LIG d   1      -9.092  71.063 117.317  0.00  0.00    -0.241 OA
ATOM     24  O   LIG d   1      -7.550  71.055 115.805  0.00  0.00    -0.241 OA
ENDBRANCH   3  22
TORSDOF 7
ENDMDL
MODEL 7
REMARK VINA RESULT:      -4.7      2.515      6.053
REMARK  7 active torsions:
REMARK  status: ('A' for Active; 'I' for Inactive)
REMARK    1  A    between atoms: C_2  and  C_3 
REMARK    2  A    between atoms: C_3  and  O_6 
REMARK    3  A    between atoms: C_3  and  C_4 
REMARK    4  A    between atoms: C_7  and  O_6 
REMARK    5  A    between atoms: C_9  and  C_10 
REMARK    6  A    between atoms: N_15  and  C_14 
REMARK    7  A    between atoms: N_20  and  C_19 
REMARK       I    between atoms: C_22  and  N_20 
ROOT
ATOM      1  C   LIG d   1      -6.644  76.214 116.697  0.00  0.00     0.161 C 
ATOM      2  C   LIG d   1      -8.016  76.305 116.984  0.00  0.00     0.016 C 
ATOM      3  C   LIG d   1      -8.822  75.186 117.296  0.00  0.00     0.038 C 
ATOM      4  C   LIG d   1      -8.275  73.910 117.493  0.00  0.00     0.028 C 
ATOM      5  C   LIG d   1      -6.980  73.681 116.720  0.00  0.00    -0.047 C 
ATOM      6  C   LIG d   1      -6.007  74.845 117.016  0.00  0.00     0.091 C 
ENDROOT
BRANCH   1   7
ATOM      7  O   LIG d   1      -5.932  77.267 117.376  0.00  0.00    -0.368 OA
BRANCH   7   8
ATOM      8  C   LIG d   1      -6.599  77.853 118.521  0.00  0.00     0.119 C 
BRANCH   8   9
ATOM      9  C   LIG d   1      -6.368  79.376 118.462  0.00  0.00     0.028 C 
ATOM     10  C   LIG d   1      -7.636  80.146 118.057  0.00  0.00     0.006 C 
ENDBRANCH   8   9
BRANCH   8  11
ATOM     11  C   LIG d   1      -5.957  77.396 119.834  0.00  0.00     0.028 C 
ATOM     12  C   LIG d   1      -6.893  76.519 120.681  0.00  0.00     0.006 C 
ENDBRANCH   8  11
ENDBRANCH   7   8
ENDBRANCH   1   7
BRANCH   6  13
ATOM     13  N   LIG d   1      -4.747  74.742 116.234  0.00  0.00    -0.311 N 
ATOM     14  C   LIG d   1      -3.540  74.673 116.794  0.00  0.00     0.210 C 
ATOM     15  C   LIG d   1      -2.372  74.593 115.806  0.00  0.00     0.109 C 
ATOM     16  O   LIG d   1      -3.328  74.639 118.016  0.00  0.00    -0.276 OA
ATOM     17  H   LIG d   1      -4.828  74.733 115.236  0.00  0.00     0.149 HD
ENDBRANCH   6  13
BRANCH   5  18
ATOM     18  N   LIG d   1      -6.447  72.365 117.124  0.00  0.00     0.381 N 
ATOM     19  H   LIG d   1      -5.956  72.450 117.991  0.00  0.00    -0.090 HD
ATOM     20  H   LIG d   1      -5.800  72.048 116.424  0.00  0.00    -0.090 HD
ATOM     21  H   LIG d   1      -7.192  71.711 117.219  0.00  0.00    -0.090 HD
ENDBRANCH   5  18
BRANCH   3  22
ATOM     22  C   LIG d   1     -10.199  75.332 117.376  0.00  0.00     0.382 C 
ATOM     23  O   LIG d   1     -10.951  74.432 116.932  0.00  0.00    -0.241 OA
ATOM     24  O   LIG d   1     -10.698  76.372 117.846  0.00  0.00    -0.241 OA
ENDBRANCH   3  22
TORSDOF 7
ENDMDL
MODEL 8
REMARK VINA RESULT:      -4.6      2.438      5.703
REMARK  7 active torsions:
REMARK  status: ('A' for Active; 'I' for Inactive)
REMARK    1  A    between atoms: C_2  and  C_3 
REMARK    2  A    between atoms: C_3  and  O_6 
REMARK    3  A    between atoms: C_3  and  C_4 
REMARK    4  A    between atoms: C_7  and  O_6 
REMARK    5  A    between atoms: C_9  and  C_10 
REMARK    6  A    between atoms: N_15  and  C_14 
REMARK    7  A    between atoms: N_20  and  C_19 
REMARK       I    between atoms: C_22  and  N_20 
ROOT
ATOM      1  C   LIG d   1      -7.119  76.555 117.017  0.00  0.00     0.161 C 
ATOM      2  C   LIG d   1      -6.749  77.900 117.180  0.00  0.00     0.016 C 
ATOM      3  C   LIG d   1      -7.540  78.846 117.873  0.00  0.00     0.038 C 
ATOM      4  C   LIG d   1      -8.689  78.472 118.585  0.00  0.00     0.028 C 
ATOM      5  C   LIG d   1      -9.368  77.225 118.028  0.00  0.00    -0.047 C 
ATOM      6  C   LIG d   1      -8.314  76.103 117.882  0.00  0.00     0.091 C 
ENDROOT
BRANCH   1   7
ATOM      7  O   LIG d   1      -5.980  75.704 117.254  0.00  0.00    -0.368 OA
BRANCH   7   8
ATOM      8  C   LIG d   1      -4.987  76.210 118.180  0.00  0.00     0.119 C 
BRANCH   8   9
ATOM      9  C   LIG d   1      -3.665  75.473 117.889  0.00  0.00     0.028 C 
ATOM     10  C   LIG d   1      -3.880  74.166 117.108  0.00  0.00     0.006 C 
ENDBRANCH   8   9
BRANCH   8  11
ATOM     11  C   LIG d   1      -5.340  75.853 119.626  0.00  0.00     0.028 C 
ATOM     12  C   LIG d   1      -5.369  77.079 120.553  0.00  0.00     0.006 C 
ENDBRANCH   8  11
ENDBRANCH   7   8
ENDBRANCH   1   7
BRANCH   6  13
ATOM     13  N   LIG d   1      -8.877  74.874 117.265  0.00  0.00    -0.311 N 
ATOM     14  C   LIG d   1      -8.615  73.645 117.707  0.00  0.00     0.210 C 
ATOM     15  C   LIG d   1      -9.282  72.517 116.915  0.00  0.00     0.109 C 
ATOM     16  O   LIG d   1      -7.921  73.385 118.701  0.00  0.00    -0.276 OA
ATOM     17  H   LIG d   1      -9.476  74.995 116.472  0.00  0.00     0.149 HD
ENDBRANCH   6  13
BRANCH   5  18
ATOM     18  N   LIG d   1     -10.468  76.869 118.944  0.00  0.00     0.381 N 
ATOM     19  H   LIG d   1     -11.307  76.715 118.422  0.00  0.00    -0.090 HD
ATOM     20  H   LIG d   1     -10.625  77.634 119.576  0.00  0.00    -0.090 HD
ATOM     21  H   LIG d   1     -10.232  76.048 119.458  0.00  0.00    -0.090 HD
ENDBRANCH   5  18
BRANCH   3  22
ATOM     22  C   LIG d   1      -7.204  80.190 117.825  0.00  0.00     0.382 C 
ATOM     23  O   LIG d   1      -7.866  81.026 118.484  0.00  0.00    -0.241 OA
ATOM     24  O   LIG d   1      -6.274  80.583 117.095  0.00  0.00    -0.241 OA
ENDBRANCH   3  22
TORSDOF 7
ENDMDL
MODEL 9
REMARK VINA RESULT:      -4.6      2.785      6.717
REMARK  7 active torsions:
REMARK  status: ('A' for Active; 'I' for Inactive)
REMARK    1  A    between atoms: C_2  and  C_3 
REMARK    2  A    between atoms: C_3  and  O_6 
REMARK    3  A    between atoms: C_3  and  C_4 
REMARK    4  A    between atoms: C_7  and  O_6 
REMARK    5  A    between atoms: C_9  and  C_10 
REMARK    6  A    between atoms: N_15  and  C_14 
REMARK    7  A    between atoms: N_20  and  C_19 
REMARK       I    between atoms: C_22  and  N_20 
ROOT
ATOM      1  C   LIG d   1      -7.212  77.259 117.367  0.00  0.00     0.161 C 
ATOM      2  C   LIG d   1      -8.593  77.079 117.554  0.00  0.00     0.016 C 
ATOM      3  C   LIG d   1      -9.215  75.810 117.587  0.00  0.00     0.038 C 
ATOM      4  C   LIG d   1      -8.472  74.620 117.586  0.00  0.00     0.028 C 
ATOM      5  C   LIG d   1      -7.120  74.750 116.892  0.00  0.00    -0.047 C 
ATOM      6  C   LIG d   1      -6.371  75.970 117.475  0.00  0.00     0.091 C 
ENDROOT
BRANCH   1   7
ATOM      7  O   LIG d   1      -6.721  78.257 118.284  0.00  0.00    -0.368 OA
BRANCH   7   8
ATOM      8  C   LIG d   1      -6.515  79.582 117.735  0.00  0.00     0.119 C 
BRANCH   8   9
ATOM      9  C   LIG d   1      -5.067  79.997 118.057  0.00  0.00     0.028 C 
ATOM     10  C   LIG d   1      -4.107  79.738 116.884  0.00  0.00     0.006 C 
ENDBRANCH   8   9
BRANCH   8  11
ATOM     11  C   LIG d   1      -7.400  80.618 118.434  0.00  0.00     0.028 C 
ATOM     12  C   LIG d   1      -7.970  81.666 117.465  0.00  0.00     0.006 C 
ENDBRANCH   8  11
ENDBRANCH   7   8
ENDBRANCH   1   7
BRANCH   6  13
ATOM     13  N   LIG d   1      -5.075  76.219 116.793  0.00  0.00    -0.311 N 
ATOM     14  C   LIG d   1      -3.911  75.749 117.236  0.00  0.00     0.210 C 
ATOM     15  C   LIG d   1      -2.692  76.140 116.393  0.00  0.00     0.109 C 
ATOM     16  O   LIG d   1      -3.775  75.017 118.228  0.00  0.00    -0.276 OA
ATOM     17  H   LIG d   1      -5.097  76.778 115.962  0.00  0.00     0.149 HD
ENDBRANCH   6  13
BRANCH   5  18
ATOM     18  N   LIG d   1      -6.396  73.480 117.085  0.00  0.00     0.381 N 
ATOM     19  H   LIG d   1      -6.926  72.875 117.679  0.00  0.00    -0.090 HD
ATOM     20  H   LIG d   1      -5.517  73.672 117.534  0.00  0.00    -0.090 HD
ATOM     21  H   LIG d   1      -6.238  73.040 116.205  0.00  0.00    -0.090 HD
ENDBRANCH   5  18
BRANCH   3  22
ATOM     22  C   LIG d   1     -10.598  75.722 117.581  0.00  0.00     0.382 C 
ATOM     23  O   LIG d   1     -11.162  74.729 117.062  0.00  0.00    -0.241 OA
ATOM     24  O   LIG d   1     -11.292  76.645 118.049  0.00  0.00    -0.241 OA
ENDBRANCH   3  22
TORSDOF 7
ENDMDL
