MODEL 1
REMARK VINA RESULT:      -5.1      0.000      0.000
REMARK  7 active torsions:
REMARK  status: ('A' for Active; 'I' for Inactive)
REMARK    1  A    between atoms: C_2  and  C_3 
REMARK    2  A    between atoms: C_3  and  O_6 
REMARK    3  A    between atoms: C_3  and  C_4 
REMARK    4  A    between atoms: C_7  and  O_6 
REMARK    5  A    between atoms: C_9  and  C_10 
REMARK    6  A    between atoms: N_15  and  C_14 
REMARK    7  A    between atoms: N_20  and  C_19 
REMARK       I    between atoms: C_22  and  N_20 
ROOT
ATOM      1  C   LIG d   1      -6.058  93.811 116.936  0.00  0.00     0.161 C 
ATOM      2  C   LIG d   1      -6.642  92.587 116.569  0.00  0.00     0.016 C 
ATOM      3  C   LIG d   1      -6.122  91.330 116.955  0.00  0.00     0.038 C 
ATOM      4  C   LIG d   1      -5.062  91.214 117.866  0.00  0.00     0.028 C 
ATOM      5  C   LIG d   1      -4.127  92.419 117.864  0.00  0.00    -0.047 C 
ATOM      6  C   LIG d   1      -4.967  93.707 118.022  0.00  0.00     0.091 C 
ENDROOT
BRANCH   1   7
ATOM      7  O   LIG d   1      -7.084  94.738 117.343  0.00  0.00    -0.368 OA
BRANCH   7   8
ATOM      8  C   LIG d   1      -7.259  94.908 118.772  0.00  0.00     0.119 C 
BRANCH   8   9
ATOM      9  C   LIG d   1      -8.653  94.362 119.136  0.00  0.00     0.028 C 
ATOM     10  C   LIG d   1      -9.088  94.762 120.555  0.00  0.00     0.006 C 
ENDBRANCH   8   9
BRANCH   8  11
ATOM     11  C   LIG d   1      -7.290  96.389 119.157  0.00  0.00     0.028 C 
ATOM     12  C   LIG d   1      -6.849  97.313 118.010  0.00  0.00     0.006 C 
ENDBRANCH   8  11
ENDBRANCH   7   8
ENDBRANCH   1   7
BRANCH   6  13
ATOM     13  N   LIG d   1      -4.138  94.938 117.945  0.00  0.00    -0.311 N 
ATOM     14  C   LIG d   1      -3.658  95.567 119.016  0.00  0.00     0.210 C 
ATOM     15  C   LIG d   1      -2.844  96.829 118.715  0.00  0.00     0.109 C 
ATOM     16  O   LIG d   1      -3.803  95.182 120.186  0.00  0.00    -0.276 OA
ATOM     17  H   LIG d   1      -3.945  95.302 117.032  0.00  0.00     0.149 HD
ENDBRANCH   6  13
BRANCH   5  18
ATOM     18  N   LIG d   1      -3.151  92.228 118.953  0.00  0.00     0.381 N 
ATOM     19  H   LIG d   1      -3.563  91.686 119.686  0.00  0.00    -0.090 HD
ATOM     20  H   LIG d   1      -2.902  93.127 119.328  0.00  0.00    -0.090 HD
ATOM     21  H   LIG d   1      -2.338  91.768 118.607  0.00  0.00    -0.090 HD
ENDBRANCH   5  18
BRANCH   3  22
ATOM     22  C   LIG d   1      -6.638  90.171 116.395  0.00  0.00     0.382 C 
ATOM     23  O   LIG d   1      -5.926  89.141 116.318  0.00  0.00    -0.241 OA
ATOM     24  O   LIG d   1      -7.792  90.156 115.926  0.00  0.00    -0.241 OA
ENDBRANCH   3  22
TORSDOF 7
ENDMDL
MODEL 2
REMARK VINA RESULT:      -4.9      2.489      4.309
REMARK  7 active torsions:
REMARK  status: ('A' for Active; 'I' for Inactive)
REMARK    1  A    between atoms: C_2  and  C_3 
REMARK    2  A    between atoms: C_3  and  O_6 
REMARK    3  A    between atoms: C_3  and  C_4 
REMARK    4  A    between atoms: C_7  and  O_6 
REMARK    5  A    between atoms: C_9  and  C_10 
REMARK    6  A    between atoms: N_15  and  C_14 
REMARK    7  A    between atoms: N_20  and  C_19 
REMARK       I    between atoms: C_22  and  N_20 
ROOT
ATOM      1  C   LIG d   1      -4.613  91.995 117.586  0.00  0.00     0.161 C 
ATOM      2  C   LIG d   1      -3.694  90.969 117.309  0.00  0.00     0.016 C 
ATOM      3  C   LIG d   1      -4.052  89.753 116.683  0.00  0.00     0.038 C 
ATOM      4  C   LIG d   1      -5.333  89.541 116.151  0.00  0.00     0.028 C 
ATOM      5  C   LIG d   1      -6.421  90.344 116.855  0.00  0.00    -0.047 C 
ATOM      6  C   LIG d   1      -5.992  91.828 116.914  0.00  0.00     0.091 C 
ENDROOT
BRANCH   1   7
ATOM      7  O   LIG d   1      -4.039  93.271 117.241  0.00  0.00    -0.368 OA
BRANCH   7   8
ATOM      8  C   LIG d   1      -3.330  93.959 118.301  0.00  0.00     0.119 C 
BRANCH   8   9
ATOM      9  C   LIG d   1      -4.104  95.255 118.610  0.00  0.00     0.028 C 
ATOM     10  C   LIG d   1      -4.972  95.133 119.874  0.00  0.00     0.006 C 
ENDBRANCH   8   9
BRANCH   8  11
ATOM     11  C   LIG d   1      -1.943  94.416 117.840  0.00  0.00     0.028 C 
ATOM     12  C   LIG d   1      -1.303  95.435 118.795  0.00  0.00     0.006 C 
ENDBRANCH   8  11
ENDBRANCH   7   8
ENDBRANCH   1   7
BRANCH   6  13
ATOM     13  N   LIG d   1      -6.962  92.670 117.661  0.00  0.00    -0.311 N 
ATOM     14  C   LIG d   1      -7.365  93.869 117.244  0.00  0.00     0.210 C 
ATOM     15  C   LIG d   1      -8.354  94.578 118.175  0.00  0.00     0.109 C 
ATOM     16  O   LIG d   1      -7.023  94.398 116.176  0.00  0.00    -0.276 OA
ATOM     17  H   LIG d   1      -7.314  92.303 118.523  0.00  0.00     0.149 HD
ENDBRANCH   6  13
BRANCH   5  18
ATOM     18  N   LIG d   1      -7.679  90.135 116.114  0.00  0.00     0.381 N 
ATOM     19  H   LIG d   1      -8.317  89.604 116.673  0.00  0.00    -0.090 HD
ATOM     20  H   LIG d   1      -7.481  89.613 115.279  0.00  0.00    -0.090 HD
ATOM     21  H   LIG d   1      -8.085  91.013 115.877  0.00  0.00    -0.090 HD
ENDBRANCH   5  18
BRANCH   3  22
ATOM     22  C   LIG d   1      -3.133  88.716 116.620  0.00  0.00     0.382 C 
ATOM     23  O   LIG d   1      -3.305  87.775 115.809  0.00  0.00    -0.241 OA
ATOM     24  O   LIG d   1      -2.157  88.689 117.394  0.00  0.00    -0.241 OA
ENDBRANCH   3  22
TORSDOF 7
ENDMDL
MODEL 3
REMARK VINA RESULT:      -4.9      1.526      2.116
REMARK  7 active torsions:
REMARK  status: ('A' for Active; 'I' for Inactive)
REMARK    1  A    between atoms: C_2  and  C_3 
REMARK    2  A    between atoms: C_3  and  O_6 
REMARK    3  A    between atoms: C_3  and  C_4 
REMARK    4  A    between atoms: C_7  and  O_6 
REMARK    5  A    between atoms: C_9  and  C_10 
REMARK    6  A    between atoms: N_15  and  C_14 
REMARK    7  A    between atoms: N_20  and  C_19 
REMARK       I    between atoms: C_22  and  N_20 
ROOT
ATOM      1  C   LIG d   1      -4.576  93.402 117.208  0.00  0.00     0.161 C 
ATOM      2  C   LIG d   1      -5.527  92.407 116.926  0.00  0.00     0.016 C 
ATOM      3  C   LIG d   1      -5.315  91.033 117.180  0.00  0.00     0.038 C 
ATOM      4  C   LIG d   1      -4.187  90.573 117.877  0.00  0.00     0.028 C 
ATOM      5  C   LIG d   1      -2.972  91.483 117.731  0.00  0.00    -0.047 C 
ATOM      6  C   LIG d   1      -3.386  92.932 118.071  0.00  0.00     0.091 C 
ENDROOT
BRANCH   1   7
ATOM      7  O   LIG d   1      -5.222  94.536 117.820  0.00  0.00    -0.368 OA
BRANCH   7   8
ATOM      8  C   LIG d   1      -6.670  94.504 117.853  0.00  0.00     0.119 C 
BRANCH   8   9
ATOM      9  C   LIG d   1      -7.177  95.797 117.188  0.00  0.00     0.028 C 
ATOM     10  C   LIG d   1      -6.832  97.053 118.006  0.00  0.00     0.006 C 
ENDBRANCH   8   9
BRANCH   8  11
ATOM     11  C   LIG d   1      -7.196  94.554 119.291  0.00  0.00     0.028 C 
ATOM     12  C   LIG d   1      -8.713  94.324 119.379  0.00  0.00     0.006 C 
ENDBRANCH   8  11
ENDBRANCH   7   8
ENDBRANCH   1   7
BRANCH   6  13
ATOM     13  N   LIG d   1      -2.276  93.901 117.872  0.00  0.00    -0.311 N 
ATOM     14  C   LIG d   1      -1.466  94.298 118.851  0.00  0.00     0.210 C 
ATOM     15  C   LIG d   1      -0.400  95.317 118.434  0.00  0.00     0.109 C 
ATOM     16  O   LIG d   1      -1.508  93.880 120.018  0.00  0.00    -0.276 OA
ATOM     17  H   LIG d   1      -2.151  94.267 116.949  0.00  0.00     0.149 HD
ENDBRANCH   6  13
BRANCH   5  18
ATOM     18  N   LIG d   1      -1.915  90.960 118.617  0.00  0.00     0.381 N 
ATOM     19  H   LIG d   1      -1.039  90.954 118.132  0.00  0.00    -0.090 HD
ATOM     20  H   LIG d   1      -2.141  90.014 118.870  0.00  0.00    -0.090 HD
ATOM     21  H   LIG d   1      -1.846  91.524 119.435  0.00  0.00    -0.090 HD
ENDBRANCH   5  18
BRANCH   3  22
ATOM     22  C   LIG d   1      -6.218  90.097 116.698  0.00  0.00     0.382 C 
ATOM     23  O   LIG d   1      -5.801  89.049 116.148  0.00  0.00    -0.241 OA
ATOM     24  O   LIG d   1      -7.443  90.309 116.766  0.00  0.00    -0.241 OA
ENDBRANCH   3  22
TORSDOF 7
ENDMDL
MODEL 4
REMARK VINA RESULT:      -4.9      1.887      4.193
REMARK  7 active torsions:
REMARK  status: ('A' for Active; 'I' for Inactive)
REMARK    1  A    between atoms: C_2  and  C_3 
REMARK    2  A    between atoms: C_3  and  O_6 
REMARK    3  A    between atoms: C_3  and  C_4 
REMARK    4  A    between atoms: C_7  and  O_6 
REMARK    5  A    between atoms: C_9  and  C_10 
REMARK    6  A    between atoms: N_15  and  C_14 
REMARK    7  A    between atoms: N_20  and  C_19 
REMARK       I    between atoms: C_22  and  N_20 
ROOT
ATOM      1  C   LIG d   1      -4.997  92.918 117.810  0.00  0.00     0.161 C 
ATOM      2  C   LIG d   1      -5.295  91.595 117.445  0.00  0.00     0.016 C 
ATOM      3  C   LIG d   1      -6.395  91.241 116.630  0.00  0.00     0.038 C 
ATOM      4  C   LIG d   1      -7.190  92.208 115.997  0.00  0.00     0.028 C 
ATOM      5  C   LIG d   1      -7.234  93.538 116.742  0.00  0.00    -0.047 C 
ATOM      6  C   LIG d   1      -5.788  93.996 117.038  0.00  0.00     0.091 C 
ENDROOT
BRANCH   1   7
ATOM      7  O   LIG d   1      -3.580  93.153 117.687  0.00  0.00    -0.368 OA
BRANCH   7   8
ATOM      8  C   LIG d   1      -2.789  92.916 118.877  0.00  0.00     0.119 C 
BRANCH   8   9
ATOM      9  C   LIG d   1      -2.641  94.263 119.610  0.00  0.00     0.028 C 
ATOM     10  C   LIG d   1      -2.247  95.407 118.661  0.00  0.00     0.006 C 
ENDBRANCH   8   9
BRANCH   8  11
ATOM     11  C   LIG d   1      -1.362  92.488 118.522  0.00  0.00     0.028 C 
ATOM     12  C   LIG d   1      -1.320  91.249 117.614  0.00  0.00     0.006 C 
ENDBRANCH   8  11
ENDBRANCH   7   8
ENDBRANCH   1   7
BRANCH   6  13
ATOM     13  N   LIG d   1      -5.742  95.247 117.838  0.00  0.00    -0.311 N 
ATOM     14  C   LIG d   1      -6.252  95.352 119.064  0.00  0.00     0.210 C 
ATOM     15  C   LIG d   1      -6.116  96.737 119.704  0.00  0.00     0.109 C 
ATOM     16  O   LIG d   1      -6.775  94.422 119.695  0.00  0.00    -0.276 OA
ATOM     17  H   LIG d   1      -5.307  96.043 117.415  0.00  0.00     0.149 HD
ENDBRANCH   6  13
BRANCH   5  18
ATOM     18  N   LIG d   1      -7.983  94.493 115.903  0.00  0.00     0.381 N 
ATOM     19  H   LIG d   1      -7.632  94.469 114.966  0.00  0.00    -0.090 HD
ATOM     20  H   LIG d   1      -7.847  95.420 116.267  0.00  0.00    -0.090 HD
ATOM     21  H   LIG d   1      -8.953  94.265 115.909  0.00  0.00    -0.090 HD
ENDBRANCH   5  18
BRANCH   3  22
ATOM     22  C   LIG d   1      -6.733  89.905 116.474  0.00  0.00     0.382 C 
ATOM     23  O   LIG d   1      -7.918  89.534 116.651  0.00  0.00    -0.241 OA
ATOM     24  O   LIG d   1      -5.860  89.060 116.203  0.00  0.00    -0.241 OA
ENDBRANCH   3  22
TORSDOF 7
ENDMDL
MODEL 5
REMARK VINA RESULT:      -4.5      2.104      4.215
REMARK  7 active torsions:
REMARK  status: ('A' for Active; 'I' for Inactive)
REMARK    1  A    between atoms: C_2  and  C_3 
REMARK    2  A    between atoms: C_3  and  O_6 
REMARK    3  A    between atoms: C_3  and  C_4 
REMARK    4  A    between atoms: C_7  and  O_6 
REMARK    5  A    between atoms: C_9  and  C_10 
REMARK    6  A    between atoms: N_15  and  C_14 
REMARK    7  A    between atoms: N_20  and  C_19 
REMARK       I    between atoms: C_22  and  N_20 
ROOT
ATOM      1  C   LIG d   1      -4.297  92.663 117.948  0.00  0.00     0.161 C 
ATOM      2  C   LIG d   1      -4.818  91.419 117.558  0.00  0.00     0.016 C 
ATOM      3  C   LIG d   1      -6.004  91.275 116.801  0.00  0.00     0.038 C 
ATOM      4  C   LIG d   1      -6.671  92.379 116.250  0.00  0.00     0.028 C 
ATOM      5  C   LIG d   1      -6.464  93.667 117.040  0.00  0.00    -0.047 C 
ATOM      6  C   LIG d   1      -4.949  93.882 117.262  0.00  0.00     0.091 C 
ENDROOT
BRANCH   1   7
ATOM      7  O   LIG d   1      -2.870  92.680 117.746  0.00  0.00    -0.368 OA
BRANCH   7   8
ATOM      8  C   LIG d   1      -2.065  92.990 118.910  0.00  0.00     0.119 C 
BRANCH   8   9
ATOM      9  C   LIG d   1      -0.756  92.183 118.796  0.00  0.00     0.028 C 
ATOM     10  C   LIG d   1      -0.971  90.680 119.040  0.00  0.00     0.006 C 
ENDBRANCH   8   9
BRANCH   8  11
ATOM     11  C   LIG d   1      -2.734  92.499 120.197  0.00  0.00     0.028 C 
ATOM     12  C   LIG d   1      -2.563  93.479 121.368  0.00  0.00     0.006 C 
ENDBRANCH   8  11
ENDBRANCH   7   8
ENDBRANCH   1   7
BRANCH   6  13
ATOM     13  N   LIG d   1      -4.663  95.076 118.099  0.00  0.00    -0.311 N 
ATOM     14  C   LIG d   1      -5.144  95.241 119.330  0.00  0.00     0.210 C 
ATOM     15  C   LIG d   1      -4.743  96.553 120.011  0.00  0.00     0.109 C 
ATOM     16  O   LIG d   1      -5.838  94.410 119.935  0.00  0.00    -0.276 OA
ATOM     17  H   LIG d   1      -4.082  95.785 117.698  0.00  0.00     0.149 HD
ENDBRANCH   6  13
BRANCH   5  18
ATOM     18  N   LIG d   1      -7.098  94.762 116.281  0.00  0.00     0.381 N 
ATOM     19  H   LIG d   1      -6.565  94.956 115.457  0.00  0.00    -0.090 HD
ATOM     20  H   LIG d   1      -7.109  95.589 116.852  0.00  0.00    -0.090 HD
ATOM     21  H   LIG d   1      -8.029  94.509 116.032  0.00  0.00    -0.090 HD
ENDBRANCH   5  18
BRANCH   3  22
ATOM     22  C   LIG d   1      -6.556  90.015 116.622  0.00  0.00     0.382 C 
ATOM     23  O   LIG d   1      -5.851  89.079 116.176  0.00  0.00    -0.241 OA
ATOM     24  O   LIG d   1      -7.762  89.815 116.859  0.00  0.00    -0.241 OA
ENDBRANCH   3  22
TORSDOF 7
ENDMDL
MODEL 6
REMARK VINA RESULT:      -4.5      2.500      5.673
REMARK  7 active torsions:
REMARK  status: ('A' for Active; 'I' for Inactive)
REMARK    1  A    between atoms: C_2  and  C_3 
REMARK    2  A    between atoms: C_3  and  O_6 
REMARK    3  A    between atoms: C_3  and  C_4 
REMARK    4  A    between atoms: C_7  and  O_6 
REMARK    5  A    between atoms: C_9  and  C_10 
REMARK    6  A    between atoms: N_15  and  C_14 
REMARK    7  A    between atoms: N_20  and  C_19 
REMARK       I    between atoms: C_22  and  N_20 
ROOT
ATOM      1  C   LIG d   1      -5.120  93.850 118.216  0.00  0.00     0.161 C 
ATOM      2  C   LIG d   1      -5.488  95.172 118.518  0.00  0.00     0.016 C 
ATOM      3  C   LIG d   1      -6.628  95.806 117.973  0.00  0.00     0.038 C 
ATOM      4  C   LIG d   1      -7.567  95.107 117.200  0.00  0.00     0.028 C 
ATOM      5  C   LIG d   1      -6.973  93.914 116.458  0.00  0.00    -0.047 C 
ATOM      6  C   LIG d   1      -6.193  93.036 117.463  0.00  0.00     0.091 C 
ENDROOT
BRANCH   1   7
ATOM      7  O   LIG d   1      -4.725  93.165 119.421  0.00  0.00    -0.368 OA
BRANCH   7   8
ATOM      8  C   LIG d   1      -3.764  93.852 120.259  0.00  0.00     0.119 C 
BRANCH   8   9
ATOM      9  C   LIG d   1      -2.396  93.177 120.045  0.00  0.00     0.028 C 
ATOM     10  C   LIG d   1      -2.392  91.704 120.488  0.00  0.00     0.006 C 
ENDBRANCH   8   9
BRANCH   8  11
ATOM     11  C   LIG d   1      -4.083  93.660 121.745  0.00  0.00     0.028 C 
ATOM     12  C   LIG d   1      -5.592  93.624 122.031  0.00  0.00     0.006 C 
ENDBRANCH   8  11
ENDBRANCH   7   8
ENDBRANCH   1   7
BRANCH   6  13
ATOM     13  N   LIG d   1      -5.509  91.892 116.804  0.00  0.00    -0.311 N 
ATOM     14  C   LIG d   1      -6.064  90.690 116.662  0.00  0.00     0.210 C 
ATOM     15  C   LIG d   1      -5.180  89.647 115.972  0.00  0.00     0.109 C 
ATOM     16  O   LIG d   1      -7.217  90.397 117.013  0.00  0.00    -0.276 OA
ATOM     17  H   LIG d   1      -4.582  92.051 116.461  0.00  0.00     0.149 HD
ENDBRANCH   6  13
BRANCH   5  18
ATOM     18  N   LIG d   1      -8.085  93.197 115.806  0.00  0.00     0.381 N 
ATOM     19  H   LIG d   1      -8.307  93.637 114.935  0.00  0.00    -0.090 HD
ATOM     20  H   LIG d   1      -8.895  93.244 116.399  0.00  0.00    -0.090 HD
ATOM     21  H   LIG d   1      -7.832  92.246 115.650  0.00  0.00    -0.090 HD
ENDBRANCH   5  18
BRANCH   3  22
ATOM     22  C   LIG d   1      -6.816  97.166 118.166  0.00  0.00     0.382 C 
ATOM     23  O   LIG d   1      -7.154  97.896 117.203  0.00  0.00    -0.241 OA
ATOM     24  O   LIG d   1      -6.609  97.680 119.282  0.00  0.00    -0.241 OA
ENDBRANCH   3  22
TORSDOF 7
ENDMDL
MODEL 7
REMARK VINA RESULT:      -4.4      1.964      3.914
REMARK  7 active torsions:
REMARK  status: ('A' for Active; 'I' for Inactive)
REMARK    1  A    between atoms: C_2  and  C_3 
REMARK    2  A    between atoms: C_3  and  O_6 
REMARK    3  A    between atoms: C_3  and  C_4 
REMARK    4  A    between atoms: C_7  and  O_6 
REMARK    5  A    between atoms: C_9  and  C_10 
REMARK    6  A    between atoms: N_15  and  C_14 
REMARK    7  A    between atoms: N_20  and  C_19 
REMARK       I    between atoms: C_22  and  N_20 
ROOT
ATOM      1  C   LIG d   1      -4.724  93.486 117.602  0.00  0.00     0.161 C 
ATOM      2  C   LIG d   1      -4.436  92.121 117.438  0.00  0.00     0.016 C 
ATOM      3  C   LIG d   1      -5.303  91.216 116.783  0.00  0.00     0.038 C 
ATOM      4  C   LIG d   1      -6.456  91.648 116.111  0.00  0.00     0.028 C 
ATOM      5  C   LIG d   1      -7.044  92.934 116.683  0.00  0.00    -0.047 C 
ATOM      6  C   LIG d   1      -5.925  93.997 116.779  0.00  0.00     0.091 C 
ENDROOT
BRANCH   1   7
ATOM      7  O   LIG d   1      -3.550  94.271 117.316  0.00  0.00    -0.368 OA
BRANCH   7   8
ATOM      8  C   LIG d   1      -2.773  94.697 118.462  0.00  0.00     0.119 C 
BRANCH   8   9
ATOM      9  C   LIG d   1      -1.635  93.677 118.655  0.00  0.00     0.028 C 
ATOM     10  C   LIG d   1      -1.292  93.453 120.137  0.00  0.00     0.006 C 
ENDBRANCH   8   9
BRANCH   8  11
ATOM     11  C   LIG d   1      -3.599  94.631 119.750  0.00  0.00     0.028 C 
ATOM     12  C   LIG d   1      -3.932  96.021 120.316  0.00  0.00     0.006 C 
ENDBRANCH   8  11
ENDBRANCH   7   8
ENDBRANCH   1   7
BRANCH   6  13
ATOM     13  N   LIG d   1      -6.396  95.259 117.407  0.00  0.00    -0.311 N 
ATOM     14  C   LIG d   1      -7.028  95.304 118.578  0.00  0.00     0.210 C 
ATOM     15  C   LIG d   1      -7.445  96.706 119.034  0.00  0.00     0.109 C 
ATOM     16  O   LIG d   1      -7.255  94.320 119.298  0.00  0.00    -0.276 OA
ATOM     17  H   LIG d   1      -6.225  96.109 116.905  0.00  0.00     0.149 HD
ENDBRANCH   6  13
BRANCH   5  18
ATOM     18  N   LIG d   1      -8.157  93.344 115.805  0.00  0.00     0.381 N 
ATOM     19  H   LIG d   1      -7.950  94.228 115.386  0.00  0.00    -0.090 HD
ATOM     20  H   LIG d   1      -8.988  93.444 116.360  0.00  0.00    -0.090 HD
ATOM     21  H   LIG d   1      -8.302  92.659 115.097  0.00  0.00    -0.090 HD
ENDBRANCH   5  18
BRANCH   3  22
ATOM     22  C   LIG d   1      -5.039  89.855 116.831  0.00  0.00     0.382 C 
ATOM     23  O   LIG d   1      -4.095  89.424 117.535  0.00  0.00    -0.241 OA
ATOM     24  O   LIG d   1      -5.706  89.058 116.143  0.00  0.00    -0.241 OA
ENDBRANCH   3  22
TORSDOF 7
ENDMDL
MODEL 8
REMARK VINA RESULT:      -4.4      1.810      2.675
REMARK  7 active torsions:
REMARK  status: ('A' for Active; 'I' for Inactive)
REMARK    1  A    between atoms: C_2  and  C_3 
REMARK    2  A    between atoms: C_3  and  O_6 
REMARK    3  A    between atoms: C_3  and  C_4 
REMARK    4  A    between atoms: C_7  and  O_6 
REMARK    5  A    between atoms: C_9  and  C_10 
REMARK    6  A    between atoms: N_15  and  C_14 
REMARK    7  A    between atoms: N_20  and  C_19 
REMARK       I    between atoms: C_22  and  N_20 
ROOT
ATOM      1  C   LIG d   1      -5.757  95.544 118.270  0.00  0.00     0.161 C 
ATOM      2  C   LIG d   1      -6.794  94.855 117.619  0.00  0.00     0.016 C 
ATOM      3  C   LIG d   1      -6.612  93.619 116.958  0.00  0.00     0.038 C 
ATOM      4  C   LIG d   1      -5.404  92.909 117.032  0.00  0.00     0.028 C 
ATOM      5  C   LIG d   1      -4.188  93.803 117.251  0.00  0.00    -0.047 C 
ATOM      6  C   LIG d   1      -4.458  94.731 118.457  0.00  0.00     0.091 C 
ENDROOT
BRANCH   1   7
ATOM      7  O   LIG d   1      -6.223  96.043 119.539  0.00  0.00    -0.368 OA
BRANCH   7   8
ATOM      8  C   LIG d   1      -7.504  95.538 119.991  0.00  0.00     0.119 C 
BRANCH   8   9
ATOM      9  C   LIG d   1      -8.314  96.738 120.519  0.00  0.00     0.028 C 
ATOM     10  C   LIG d   1      -8.114  98.002 119.667  0.00  0.00     0.006 C 
ENDBRANCH   8   9
BRANCH   8  11
ATOM     11  C   LIG d   1      -7.341  94.599 121.190  0.00  0.00     0.028 C 
ATOM     12  C   LIG d   1      -8.677  94.275 121.878  0.00  0.00     0.006 C 
ENDBRANCH   8  11
ENDBRANCH   7   8
ENDBRANCH   1   7
BRANCH   6  13
ATOM     13  N   LIG d   1      -3.353  95.697 118.687  0.00  0.00    -0.311 N 
ATOM     14  C   LIG d   1      -2.344  95.470 119.527  0.00  0.00     0.210 C 
ATOM     15  C   LIG d   1      -1.321  96.606 119.630  0.00  0.00     0.109 C 
ATOM     16  O   LIG d   1      -2.182  94.423 120.171  0.00  0.00    -0.276 OA
ATOM     17  H   LIG d   1      -3.388  96.561 118.182  0.00  0.00     0.149 HD
ENDBRANCH   6  13
BRANCH   5  18
ATOM     18  N   LIG d   1      -3.019  92.926 117.447  0.00  0.00     0.381 N 
ATOM     19  H   LIG d   1      -2.198  93.369 117.086  0.00  0.00    -0.090 HD
ATOM     20  H   LIG d   1      -3.165  92.071 116.939  0.00  0.00    -0.090 HD
ATOM     21  H   LIG d   1      -2.900  92.728 118.416  0.00  0.00    -0.090 HD
ENDBRANCH   5  18
BRANCH   3  22
ATOM     22  C   LIG d   1      -7.634  93.099 116.178  0.00  0.00     0.382 C 
ATOM     23  O   LIG d   1      -8.620  93.815 115.880  0.00  0.00    -0.241 OA
ATOM     24  O   LIG d   1      -7.603  91.911 115.806  0.00  0.00    -0.241 OA
ENDBRANCH   3  22
TORSDOF 7
ENDMDL
MODEL 9
REMARK VINA RESULT:      -4.2     26.635     28.952
REMARK  7 active torsions:
REMARK  status: ('A' for Active; 'I' for Inactive)
REMARK    1  A    between atoms: C_2  and  C_3 
REMARK    2  A    between atoms: C_3  and  O_6 
REMARK    3  A    between atoms: C_3  and  C_4 
REMARK    4  A    between atoms: C_7  and  O_6 
REMARK    5  A    between atoms: C_9  and  C_10 
REMARK    6  A    between atoms: N_15  and  C_14 
REMARK    7  A    between atoms: N_20  and  C_19 
REMARK       I    between atoms: C_22  and  N_20 
ROOT
ATOM      1  C   LIG d   1     -15.244  66.961 118.686  0.00  0.00     0.161 C 
ATOM      2  C   LIG d   1     -16.354  67.029 117.827  0.00  0.00     0.016 C 
ATOM      3  C   LIG d   1     -17.356  66.034 117.771  0.00  0.00     0.038 C 
ATOM      4  C   LIG d   1     -17.396  64.969 118.684  0.00  0.00     0.028 C 
ATOM      5  C   LIG d   1     -16.025  64.591 119.234  0.00  0.00    -0.047 C 
ATOM      6  C   LIG d   1     -15.330  65.864 119.768  0.00  0.00     0.091 C 
ENDROOT
BRANCH   1   7
ATOM      7  O   LIG d   1     -15.019  68.248 119.296  0.00  0.00    -0.368 OA
BRANCH   7   8
ATOM      8  C   LIG d   1     -15.838  68.559 120.449  0.00  0.00     0.119 C 
BRANCH   8   9
ATOM      9  C   LIG d   1     -16.671  69.809 120.102  0.00  0.00     0.028 C 
ATOM     10  C   LIG d   1     -18.169  69.493 119.955  0.00  0.00     0.006 C 
ENDBRANCH   8   9
BRANCH   8  11
ATOM     11  C   LIG d   1     -14.979  68.966 121.650  0.00  0.00     0.028 C 
ATOM     12  C   LIG d   1     -13.483  69.058 121.308  0.00  0.00     0.006 C 
ENDBRANCH   8  11
ENDBRANCH   7   8
ENDBRANCH   1   7
BRANCH   6  13
ATOM     13  N   LIG d   1     -13.948  65.596 120.247  0.00  0.00    -0.311 N 
ATOM     14  C   LIG d   1     -13.646  65.371 121.524  0.00  0.00     0.210 C 
ATOM     15  C   LIG d   1     -12.159  65.137 121.805  0.00  0.00     0.109 C 
ATOM     16  O   LIG d   1     -14.473  65.310 122.446  0.00  0.00    -0.276 OA
ATOM     17  H   LIG d   1     -13.219  65.596 119.560  0.00  0.00     0.149 HD
ENDBRANCH   6  13
BRANCH   5  18
ATOM     18  N   LIG d   1     -16.229  63.564 120.273  0.00  0.00     0.381 N 
ATOM     19  H   LIG d   1     -16.065  63.960 121.177  0.00  0.00    -0.090 HD
ATOM     20  H   LIG d   1     -15.569  62.820 120.129  0.00  0.00    -0.090 HD
ATOM     21  H   LIG d   1     -17.159  63.208 120.223  0.00  0.00    -0.090 HD
ENDBRANCH   5  18
BRANCH   3  22
ATOM     22  C   LIG d   1     -18.311  66.076 116.767  0.00  0.00     0.382 C 
ATOM     23  O   LIG d   1     -18.330  65.187 115.882  0.00  0.00    -0.241 OA
ATOM     24  O   LIG d   1     -19.127  67.016 116.710  0.00  0.00    -0.241 OA
ENDBRANCH   3  22
TORSDOF 7
ENDMDL
