MODEL 1
REMARK VINA RESULT:      -5.6      0.000      0.000
REMARK  7 active torsions:
REMARK  status: ('A' for Active; 'I' for Inactive)
REMARK    1  A    between atoms: C_2  and  C_3 
REMARK    2  A    between atoms: C_3  and  O_6 
REMARK    3  A    between atoms: C_3  and  C_4 
REMARK    4  A    between atoms: C_7  and  O_6 
REMARK    5  A    between atoms: C_9  and  C_10 
REMARK    6  A    between atoms: N_15  and  C_14 
REMARK    7  A    between atoms: N_20  and  C_19 
REMARK       I    between atoms: C_22  and  N_20 
ROOT
ATOM      1  C   LIG d   1       0.483  58.041 116.667  0.00  0.00     0.161 C 
ATOM      2  C   LIG d   1      -0.313  59.169 116.932  0.00  0.00     0.016 C 
ATOM      3  C   LIG d   1      -1.688  59.093 117.252  0.00  0.00     0.038 C 
ATOM      4  C   LIG d   1      -2.330  57.867 117.478  0.00  0.00     0.028 C 
ATOM      5  C   LIG d   1      -1.693  56.702 116.728  0.00  0.00    -0.047 C 
ATOM      6  C   LIG d   1      -0.174  56.690 117.018  0.00  0.00     0.091 C 
ENDROOT
BRANCH   1   7
ATOM      7  O   LIG d   1       1.752  58.170 117.337  0.00  0.00    -0.368 OA
BRANCH   7   8
ATOM      8  C   LIG d   1       1.957  59.395 118.083  0.00  0.00     0.119 C 
BRANCH   8   9
ATOM      9  C   LIG d   1       3.378  59.899 117.765  0.00  0.00     0.028 C 
ATOM     10  C   LIG d   1       4.409  58.758 117.717  0.00  0.00     0.006 C 
ENDBRANCH   8   9
BRANCH   8  11
ATOM     11  C   LIG d   1       1.948  59.136 119.593  0.00  0.00     0.028 C 
ATOM     12  C   LIG d   1       0.968  60.047 120.348  0.00  0.00     0.006 C 
ENDBRANCH   8  11
ENDBRANCH   7   8
ENDBRANCH   1   7
BRANCH   6  13
ATOM     13  N   LIG d   1       0.540  55.632 116.256  0.00  0.00    -0.311 N 
ATOM     14  C   LIG d   1       0.802  54.423 116.750  0.00  0.00     0.210 C 
ATOM     15  C   LIG d   1       1.566  53.490 115.805  0.00  0.00     0.109 C 
ATOM     16  O   LIG d   1       0.447  54.024 117.869  0.00  0.00    -0.276 OA
ATOM     17  H   LIG d   1       0.836  55.860 115.327  0.00  0.00     0.149 HD
ENDBRANCH   6  13
BRANCH   5  18
ATOM     18  N   LIG d   1      -2.374  55.467 117.161  0.00  0.00     0.381 N 
ATOM     19  H   LIG d   1      -1.792  54.967 117.804  0.00  0.00    -0.090 HD
ATOM     20  H   LIG d   1      -2.530  54.883 116.359  0.00  0.00    -0.090 HD
ATOM     21  H   LIG d   1      -3.243  55.690 117.593  0.00  0.00    -0.090 HD
ENDBRANCH   5  18
BRANCH   3  22
ATOM     22  C   LIG d   1      -2.445  60.253 117.310  0.00  0.00     0.382 C 
ATOM     23  O   LIG d   1      -3.636  60.245 116.916  0.00  0.00    -0.241 OA
ATOM     24  O   LIG d   1      -1.938  61.319 117.709  0.00  0.00    -0.241 OA
ENDBRANCH   3  22
TORSDOF 7
ENDMDL
MODEL 2
REMARK VINA RESULT:      -4.9     33.027     35.014
REMARK  7 active torsions:
REMARK  status: ('A' for Active; 'I' for Inactive)
REMARK    1  A    between atoms: C_2  and  C_3 
REMARK    2  A    between atoms: C_3  and  O_6 
REMARK    3  A    between atoms: C_3  and  C_4 
REMARK    4  A    between atoms: C_7  and  O_6 
REMARK    5  A    between atoms: C_9  and  C_10 
REMARK    6  A    between atoms: N_15  and  C_14 
REMARK    7  A    between atoms: N_20  and  C_19 
REMARK       I    between atoms: C_22  and  N_20 
ROOT
ATOM      1  C   LIG d   1      -3.798  92.500 119.217  0.00  0.00     0.161 C 
ATOM      2  C   LIG d   1      -4.852  91.888 118.517  0.00  0.00     0.016 C 
ATOM      3  C   LIG d   1      -4.658  91.062 117.385  0.00  0.00     0.038 C 
ATOM      4  C   LIG d   1      -3.379  90.667 116.966  0.00  0.00     0.028 C 
ATOM      5  C   LIG d   1      -2.286  91.665 117.333  0.00  0.00    -0.047 C 
ATOM      6  C   LIG d   1      -2.391  91.991 118.841  0.00  0.00     0.091 C 
ENDROOT
BRANCH   1   7
ATOM      7  O   LIG d   1      -4.015  92.371 120.636  0.00  0.00    -0.368 OA
BRANCH   7   8
ATOM      8  C   LIG d   1      -4.371  93.587 121.339  0.00  0.00     0.119 C 
BRANCH   8   9
ATOM      9  C   LIG d   1      -5.838  93.449 121.790  0.00  0.00     0.028 C 
ATOM     10  C   LIG d   1      -6.818  94.116 120.810  0.00  0.00     0.006 C 
ENDBRANCH   8   9
BRANCH   8  11
ATOM     11  C   LIG d   1      -4.347  94.799 120.403  0.00  0.00     0.028 C 
ATOM     12  C   LIG d   1      -3.515  95.966 120.959  0.00  0.00     0.006 C 
ENDBRANCH   8  11
ENDBRANCH   7   8
ENDBRANCH   1   7
BRANCH   6  13
ATOM     13  N   LIG d   1      -1.410  93.023 119.267  0.00  0.00    -0.311 N 
ATOM     14  C   LIG d   1      -0.209  92.733 119.763  0.00  0.00     0.210 C 
ATOM     15  C   LIG d   1       0.638  93.947 120.158  0.00  0.00     0.109 C 
ATOM     16  O   LIG d   1       0.249  91.587 119.883  0.00  0.00    -0.276 OA
ATOM     17  H   LIG d   1      -1.688  93.981 119.174  0.00  0.00     0.149 HD
ENDBRANCH   6  13
BRANCH   5  18
ATOM     18  N   LIG d   1      -0.991  91.064 116.960  0.00  0.00     0.381 N 
ATOM     19  H   LIG d   1      -0.369  91.777 116.636  0.00  0.00    -0.090 HD
ATOM     20  H   LIG d   1      -1.140  90.411 116.212  0.00  0.00    -0.090 HD
ATOM     21  H   LIG d   1      -0.593  90.597 117.745  0.00  0.00    -0.090 HD
ENDBRANCH   5  18
BRANCH   3  22
ATOM     22  C   LIG d   1      -5.752  90.655 116.637  0.00  0.00     0.382 C 
ATOM     23  O   LIG d   1      -5.631  89.724 115.805  0.00  0.00    -0.241 OA
ATOM     24  O   LIG d   1      -6.848  91.237 116.751  0.00  0.00    -0.241 OA
ENDBRANCH   3  22
TORSDOF 7
ENDMDL
MODEL 3
REMARK VINA RESULT:      -4.7      2.877      5.778
REMARK  7 active torsions:
REMARK  status: ('A' for Active; 'I' for Inactive)
REMARK    1  A    between atoms: C_2  and  C_3 
REMARK    2  A    between atoms: C_3  and  O_6 
REMARK    3  A    between atoms: C_3  and  C_4 
REMARK    4  A    between atoms: C_7  and  O_6 
REMARK    5  A    between atoms: C_9  and  C_10 
REMARK    6  A    between atoms: N_15  and  C_14 
REMARK    7  A    between atoms: N_20  and  C_19 
REMARK       I    between atoms: C_22  and  N_20 
ROOT
ATOM      1  C   LIG d   1       1.746  59.408 117.358  0.00  0.00     0.161 C 
ATOM      2  C   LIG d   1       3.142  59.378 117.203  0.00  0.00     0.016 C 
ATOM      3  C   LIG d   1       4.049  59.545 118.275  0.00  0.00     0.038 C 
ATOM      4  C   LIG d   1       3.617  59.603 119.608  0.00  0.00     0.028 C 
ATOM      5  C   LIG d   1       2.199  60.143 119.763  0.00  0.00    -0.047 C 
ATOM      6  C   LIG d   1       1.258  59.358 118.821  0.00  0.00     0.091 C 
ENDROOT
BRANCH   1   7
ATOM      7  O   LIG d   1       1.147  58.343 116.594  0.00  0.00    -0.368 OA
BRANCH   7   8
ATOM      8  C   LIG d   1       0.831  57.133 117.325  0.00  0.00     0.119 C 
BRANCH   8   9
ATOM      9  C   LIG d   1       1.814  56.041 116.859  0.00  0.00     0.028 C 
ATOM     10  C   LIG d   1       2.899  55.742 117.907  0.00  0.00     0.006 C 
ENDBRANCH   8   9
BRANCH   8  11
ATOM     11  C   LIG d   1      -0.560  56.608 116.960  0.00  0.00     0.028 C 
ATOM     12  C   LIG d   1      -1.416  57.650 116.223  0.00  0.00     0.006 C 
ENDBRANCH   8  11
ENDBRANCH   7   8
ENDBRANCH   1   7
BRANCH   6  13
ATOM     13  N   LIG d   1      -0.134  59.879 118.848  0.00  0.00    -0.311 N 
ATOM     14  C   LIG d   1      -1.093  59.369 119.619  0.00  0.00     0.210 C 
ATOM     15  C   LIG d   1      -2.462  60.042 119.479  0.00  0.00     0.109 C 
ATOM     16  O   LIG d   1      -0.932  58.444 120.429  0.00  0.00    -0.276 OA
ATOM     17  H   LIG d   1      -0.344  60.650 118.245  0.00  0.00     0.149 HD
ENDBRANCH   6  13
BRANCH   5  18
ATOM     18  N   LIG d   1       1.828  60.019 121.186  0.00  0.00     0.381 N 
ATOM     19  H   LIG d   1       2.650  59.875 121.739  0.00  0.00    -0.090 HD
ATOM     20  H   LIG d   1       1.229  59.220 121.297  0.00  0.00    -0.090 HD
ATOM     21  H   LIG d   1       1.356  60.843 121.488  0.00  0.00    -0.090 HD
ENDBRANCH   5  18
BRANCH   3  22
ATOM     22  C   LIG d   1       5.402  59.696 118.013  0.00  0.00     0.382 C 
ATOM     23  O   LIG d   1       6.193  58.749 118.237  0.00  0.00    -0.241 OA
ATOM     24  O   LIG d   1       5.848  60.783 117.598  0.00  0.00    -0.241 OA
ENDBRANCH   3  22
TORSDOF 7
ENDMDL
MODEL 4
REMARK VINA RESULT:      -4.7     33.264     35.389
REMARK  7 active torsions:
REMARK  status: ('A' for Active; 'I' for Inactive)
REMARK    1  A    between atoms: C_2  and  C_3 
REMARK    2  A    between atoms: C_3  and  O_6 
REMARK    3  A    between atoms: C_3  and  C_4 
REMARK    4  A    between atoms: C_7  and  O_6 
REMARK    5  A    between atoms: C_9  and  C_10 
REMARK    6  A    between atoms: N_15  and  C_14 
REMARK    7  A    between atoms: N_20  and  C_19 
REMARK       I    between atoms: C_22  and  N_20 
ROOT
ATOM      1  C   LIG d   1      -5.243  92.271 119.137  0.00  0.00     0.161 C 
ATOM      2  C   LIG d   1      -6.488  92.892 118.935  0.00  0.00     0.016 C 
ATOM      3  C   LIG d   1      -6.953  93.975 119.716  0.00  0.00     0.038 C 
ATOM      4  C   LIG d   1      -6.134  94.613 120.660  0.00  0.00     0.028 C 
ATOM      5  C   LIG d   1      -5.060  93.703 121.245  0.00  0.00    -0.047 C 
ATOM      6  C   LIG d   1      -4.291  93.026 120.088  0.00  0.00     0.091 C 
ENDROOT
BRANCH   1   7
ATOM      7  O   LIG d   1      -4.602  92.039 117.867  0.00  0.00    -0.368 OA
BRANCH   7   8
ATOM      8  C   LIG d   1      -4.906  90.778 117.221  0.00  0.00     0.119 C 
BRANCH   8   9
ATOM      9  C   LIG d   1      -3.573  90.169 116.745  0.00  0.00     0.028 C 
ATOM     10  C   LIG d   1      -2.352  90.923 117.298  0.00  0.00     0.006 C 
ENDBRANCH   8   9
BRANCH   8  11
ATOM     11  C   LIG d   1      -5.733  90.988 115.949  0.00  0.00     0.028 C 
ATOM     12  C   LIG d   1      -6.874  89.969 115.805  0.00  0.00     0.006 C 
ENDBRANCH   8  11
ENDBRANCH   7   8
ENDBRANCH   1   7
BRANCH   6  13
ATOM     13  N   LIG d   1      -3.277  92.054 120.574  0.00  0.00    -0.311 N 
ATOM     14  C   LIG d   1      -1.965  92.266 120.501  0.00  0.00     0.210 C 
ATOM     15  C   LIG d   1      -1.095  91.126 121.041  0.00  0.00     0.109 C 
ATOM     16  O   LIG d   1      -1.438  93.303 120.071  0.00  0.00    -0.276 OA
ATOM     17  H   LIG d   1      -3.618  91.198 120.966  0.00  0.00     0.149 HD
ENDBRANCH   6  13
BRANCH   5  18
ATOM     18  N   LIG d   1      -4.196  94.530 122.108  0.00  0.00     0.381 N 
ATOM     19  H   LIG d   1      -4.121  95.453 121.727  0.00  0.00    -0.090 HD
ATOM     20  H   LIG d   1      -3.278  94.124 122.133  0.00  0.00    -0.090 HD
ATOM     21  H   LIG d   1      -4.574  94.573 123.029  0.00  0.00    -0.090 HD
ENDBRANCH   5  18
BRANCH   3  22
ATOM     22  C   LIG d   1      -8.264  94.404 119.584  0.00  0.00     0.382 C 
ATOM     23  O   LIG d   1      -8.572  95.582 119.889  0.00  0.00    -0.241 OA
ATOM     24  O   LIG d   1      -9.152  93.616 119.205  0.00  0.00    -0.241 OA
ENDBRANCH   3  22
TORSDOF 7
ENDMDL
MODEL 5
REMARK VINA RESULT:      -4.7     33.271     35.485
REMARK  7 active torsions:
REMARK  status: ('A' for Active; 'I' for Inactive)
REMARK    1  A    between atoms: C_2  and  C_3 
REMARK    2  A    between atoms: C_3  and  O_6 
REMARK    3  A    between atoms: C_3  and  C_4 
REMARK    4  A    between atoms: C_7  and  O_6 
REMARK    5  A    between atoms: C_9  and  C_10 
REMARK    6  A    between atoms: N_15  and  C_14 
REMARK    7  A    between atoms: N_20  and  C_19 
REMARK       I    between atoms: C_22  and  N_20 
ROOT
ATOM      1  C   LIG d   1      -0.996  93.105 117.617  0.00  0.00     0.161 C 
ATOM      2  C   LIG d   1       0.083  92.237 117.383  0.00  0.00     0.016 C 
ATOM      3  C   LIG d   1       1.271  92.247 118.150  0.00  0.00     0.038 C 
ATOM      4  C   LIG d   1       1.399  93.030 119.307  0.00  0.00     0.028 C 
ATOM      5  C   LIG d   1       0.535  94.286 119.287  0.00  0.00    -0.047 C 
ATOM      6  C   LIG d   1      -0.919  93.889 118.944  0.00  0.00     0.091 C 
ENDROOT
BRANCH   1   7
ATOM      7  O   LIG d   1      -2.237  92.375 117.538  0.00  0.00    -0.368 OA
BRANCH   7   8
ATOM      8  C   LIG d   1      -2.274  91.104 118.233  0.00  0.00     0.119 C 
BRANCH   8   9
ATOM      9  C   LIG d   1      -3.273  90.198 117.488  0.00  0.00     0.028 C 
ATOM     10  C   LIG d   1      -4.385  91.000 116.791  0.00  0.00     0.006 C 
ENDBRANCH   8   9
BRANCH   8  11
ATOM     11  C   LIG d   1      -2.842  91.258 119.647  0.00  0.00     0.028 C 
ATOM     12  C   LIG d   1      -1.830  90.879 120.740  0.00  0.00     0.006 C 
ENDBRANCH   8  11
ENDBRANCH   7   8
ENDBRANCH   1   7
BRANCH   6  13
ATOM     13  N   LIG d   1      -1.814  95.069 118.821  0.00  0.00    -0.311 N 
ATOM     14  C   LIG d   1      -2.579  95.516 119.816  0.00  0.00     0.210 C 
ATOM     15  C   LIG d   1      -3.442  96.734 119.472  0.00  0.00     0.109 C 
ATOM     16  O   LIG d   1      -2.600  95.038 120.961  0.00  0.00    -0.276 OA
ATOM     17  H   LIG d   1      -1.836  95.536 117.936  0.00  0.00     0.149 HD
ENDBRANCH   6  13
BRANCH   5  18
ATOM     18  N   LIG d   1       0.661  94.934 120.606  0.00  0.00     0.381 N 
ATOM     19  H   LIG d   1      -0.242  95.025 121.027  0.00  0.00    -0.090 HD
ATOM     20  H   LIG d   1       1.045  95.855 120.481  0.00  0.00    -0.090 HD
ATOM     21  H   LIG d   1       1.257  94.396 121.195  0.00  0.00    -0.090 HD
ENDBRANCH   5  18
BRANCH   3  22
ATOM     22  C   LIG d   1       2.361  91.496 117.738  0.00  0.00     0.382 C 
ATOM     23  O   LIG d   1       2.754  90.528 118.432  0.00  0.00    -0.241 OA
ATOM     24  O   LIG d   1       2.985  91.803 116.704  0.00  0.00    -0.241 OA
ENDBRANCH   3  22
TORSDOF 7
ENDMDL
MODEL 6
REMARK VINA RESULT:      -4.6     19.249     21.950
REMARK  7 active torsions:
REMARK  status: ('A' for Active; 'I' for Inactive)
REMARK    1  A    between atoms: C_2  and  C_3 
REMARK    2  A    between atoms: C_3  and  O_6 
REMARK    3  A    between atoms: C_3  and  C_4 
REMARK    4  A    between atoms: C_7  and  O_6 
REMARK    5  A    between atoms: C_9  and  C_10 
REMARK    6  A    between atoms: N_15  and  C_14 
REMARK    7  A    between atoms: N_20  and  C_19 
REMARK       I    between atoms: C_22  and  N_20 
ROOT
ATOM      1  C   LIG d   1      -6.207  77.924 118.041  0.00  0.00     0.161 C 
ATOM      2  C   LIG d   1      -7.432  77.237 118.063  0.00  0.00     0.016 C 
ATOM      3  C   LIG d   1      -8.675  77.870 118.298  0.00  0.00     0.038 C 
ATOM      4  C   LIG d   1      -8.792  79.266 118.379  0.00  0.00     0.028 C 
ATOM      5  C   LIG d   1      -7.522  79.954 118.866  0.00  0.00    -0.047 C 
ATOM      6  C   LIG d   1      -6.328  79.462 118.016  0.00  0.00     0.091 C 
ENDROOT
BRANCH   1   7
ATOM      7  O   LIG d   1      -5.410  77.466 116.931  0.00  0.00    -0.368 OA
BRANCH   7   8
ATOM      8  C   LIG d   1      -4.539  76.339 117.194  0.00  0.00     0.119 C 
BRANCH   8   9
ATOM      9  C   LIG d   1      -3.096  76.876 117.269  0.00  0.00     0.028 C 
ATOM     10  C   LIG d   1      -2.857  78.050 116.305  0.00  0.00     0.006 C 
ENDBRANCH   8   9
BRANCH   8  11
ATOM     11  C   LIG d   1      -4.542  75.347 116.027  0.00  0.00     0.028 C 
ATOM     12  C   LIG d   1      -5.915  74.693 115.805  0.00  0.00     0.006 C 
ENDBRANCH   8  11
ENDBRANCH   7   8
ENDBRANCH   1   7
BRANCH   6  13
ATOM     13  N   LIG d   1      -5.032  80.022 118.482  0.00  0.00    -0.311 N 
ATOM     14  C   LIG d   1      -4.477  81.115 117.961  0.00  0.00     0.210 C 
ATOM     15  C   LIG d   1      -3.129  81.510 118.574  0.00  0.00     0.109 C 
ATOM     16  O   LIG d   1      -4.988  81.814 117.073  0.00  0.00    -0.276 OA
ATOM     17  H   LIG d   1      -4.564  79.536 119.221  0.00  0.00     0.149 HD
ENDBRANCH   6  13
BRANCH   5  18
ATOM     18  N   LIG d   1      -7.739  81.410 118.770  0.00  0.00     0.381 N 
ATOM     19  H   LIG d   1      -6.858  81.884 118.762  0.00  0.00    -0.090 HD
ATOM     20  H   LIG d   1      -8.253  81.715 119.577  0.00  0.00    -0.090 HD
ATOM     21  H   LIG d   1      -8.248  81.625 117.942  0.00  0.00    -0.090 HD
ENDBRANCH   5  18
BRANCH   3  22
ATOM     22  C   LIG d   1      -9.811  77.101 118.495  0.00  0.00     0.382 C 
ATOM     23  O   LIG d   1      -9.791  75.874 118.233  0.00  0.00    -0.241 OA
ATOM     24  O   LIG d   1     -10.869  77.626 118.890  0.00  0.00    -0.241 OA
ENDBRANCH   3  22
TORSDOF 7
ENDMDL
MODEL 7
REMARK VINA RESULT:      -4.5     33.401     35.180
REMARK  7 active torsions:
REMARK  status: ('A' for Active; 'I' for Inactive)
REMARK    1  A    between atoms: C_2  and  C_3 
REMARK    2  A    between atoms: C_3  and  O_6 
REMARK    3  A    between atoms: C_3  and  C_4 
REMARK    4  A    between atoms: C_7  and  O_6 
REMARK    5  A    between atoms: C_9  and  C_10 
REMARK    6  A    between atoms: N_15  and  C_14 
REMARK    7  A    between atoms: N_20  and  C_19 
REMARK       I    between atoms: C_22  and  N_20 
ROOT
ATOM      1  C   LIG d   1      -1.263  92.429 118.271  0.00  0.00     0.161 C 
ATOM      2  C   LIG d   1      -0.325  91.731 117.493  0.00  0.00     0.016 C 
ATOM      3  C   LIG d   1       1.074  91.870 117.649  0.00  0.00     0.038 C 
ATOM      4  C   LIG d   1       1.632  92.607 118.703  0.00  0.00     0.028 C 
ATOM      5  C   LIG d   1       0.730  93.731 119.202  0.00  0.00    -0.047 C 
ATOM      6  C   LIG d   1      -0.673  93.153 119.500  0.00  0.00     0.091 C 
ENDROOT
BRANCH   1   7
ATOM      7  O   LIG d   1      -2.322  91.539 118.675  0.00  0.00    -0.368 OA
BRANCH   7   8
ATOM      8  C   LIG d   1      -3.605  91.743 118.035  0.00  0.00     0.119 C 
BRANCH   8   9
ATOM      9  C   LIG d   1      -4.667  91.841 119.148  0.00  0.00     0.028 C 
ATOM     10  C   LIG d   1      -5.522  93.114 119.032  0.00  0.00     0.006 C 
ENDBRANCH   8   9
BRANCH   8  11
ATOM     11  C   LIG d   1      -4.009  90.528 117.195  0.00  0.00     0.028 C 
ATOM     12  C   LIG d   1      -4.955  90.890 116.040  0.00  0.00     0.006 C 
ENDBRANCH   8  11
ENDBRANCH   7   8
ENDBRANCH   1   7
BRANCH   6  13
ATOM     13  N   LIG d   1      -1.642  94.201 119.912  0.00  0.00    -0.311 N 
ATOM     14  C   LIG d   1      -2.384  94.120 121.015  0.00  0.00     0.210 C 
ATOM     15  C   LIG d   1      -3.334  95.301 121.243  0.00  0.00     0.109 C 
ATOM     16  O   LIG d   1      -2.324  93.198 121.842  0.00  0.00    -0.276 OA
ATOM     17  H   LIG d   1      -1.732  95.000 119.315  0.00  0.00     0.149 HD
ENDBRANCH   6  13
BRANCH   5  18
ATOM     18  N   LIG d   1       1.374  94.327 120.387  0.00  0.00     0.381 N 
ATOM     19  H   LIG d   1       0.676  94.696 121.002  0.00  0.00    -0.090 HD
ATOM     20  H   LIG d   1       1.965  95.083 120.091  0.00  0.00    -0.090 HD
ATOM     21  H   LIG d   1       1.915  93.639 120.863  0.00  0.00    -0.090 HD
ENDBRANCH   5  18
BRANCH   3  22
ATOM     22  C   LIG d   1       1.929  91.298 116.719  0.00  0.00     0.382 C 
ATOM     23  O   LIG d   1       1.534  90.342 116.008  0.00  0.00    -0.241 OA
ATOM     24  O   LIG d   1       3.104  91.697 116.613  0.00  0.00    -0.241 OA
ENDBRANCH   3  22
TORSDOF 7
ENDMDL
MODEL 8
REMARK VINA RESULT:      -4.4     20.955     23.677
REMARK  7 active torsions:
REMARK  status: ('A' for Active; 'I' for Inactive)
REMARK    1  A    between atoms: C_2  and  C_3 
REMARK    2  A    between atoms: C_3  and  O_6 
REMARK    3  A    between atoms: C_3  and  C_4 
REMARK    4  A    between atoms: C_7  and  O_6 
REMARK    5  A    between atoms: C_9  and  C_10 
REMARK    6  A    between atoms: N_15  and  C_14 
REMARK    7  A    between atoms: N_20  and  C_19 
REMARK       I    between atoms: C_22  and  N_20 
ROOT
ATOM      1  C   LIG d   1      -7.157  79.348 118.668  0.00  0.00     0.161 C 
ATOM      2  C   LIG d   1      -7.478  78.077 118.163  0.00  0.00     0.016 C 
ATOM      3  C   LIG d   1      -8.752  77.481 118.309  0.00  0.00     0.038 C 
ATOM      4  C   LIG d   1      -9.842  78.184 118.843  0.00  0.00     0.028 C 
ATOM      5  C   LIG d   1      -9.436  79.281 119.821  0.00  0.00    -0.047 C 
ATOM      6  C   LIG d   1      -8.365  80.175 119.156  0.00  0.00     0.091 C 
ENDROOT
BRANCH   1   7
ATOM      7  O   LIG d   1      -6.406  80.089 117.686  0.00  0.00    -0.368 OA
BRANCH   7   8
ATOM      8  C   LIG d   1      -5.042  80.422 118.044  0.00  0.00     0.119 C 
BRANCH   8   9
ATOM      9  C   LIG d   1      -4.815  81.901 117.675  0.00  0.00     0.028 C 
ATOM     10  C   LIG d   1      -4.763  82.813 118.912  0.00  0.00     0.006 C 
ENDBRANCH   8   9
BRANCH   8  11
ATOM     11  C   LIG d   1      -4.036  79.634 117.200  0.00  0.00     0.028 C 
ATOM     12  C   LIG d   1      -3.050  80.541 116.447  0.00  0.00     0.006 C 
ENDBRANCH   8  11
ENDBRANCH   7   8
ENDBRANCH   1   7
BRANCH   6  13
ATOM     13  N   LIG d   1      -7.850  81.223 120.075  0.00  0.00    -0.311 N 
ATOM     14  C   LIG d   1      -8.364  82.449 120.149  0.00  0.00     0.210 C 
ATOM     15  C   LIG d   1      -7.672  83.381 121.149  0.00  0.00     0.109 C 
ATOM     16  O   LIG d   1      -9.348  82.844 119.505  0.00  0.00    -0.276 OA
ATOM     17  H   LIG d   1      -7.073  80.978 120.657  0.00  0.00     0.149 HD
ENDBRANCH   6  13
BRANCH   5  18
ATOM     18  N   LIG d   1     -10.656  80.020 120.194  0.00  0.00     0.381 N 
ATOM     19  H   LIG d   1     -10.518  81.000 120.042  0.00  0.00    -0.090 HD
ATOM     20  H   LIG d   1     -10.839  79.875 121.171  0.00  0.00    -0.090 HD
ATOM     21  H   LIG d   1     -11.429  79.699 119.652  0.00  0.00    -0.090 HD
ENDBRANCH   5  18
BRANCH   3  22
ATOM     22  C   LIG d   1      -8.934  76.153 117.954  0.00  0.00     0.382 C 
ATOM     23  O   LIG d   1      -7.953  75.461 117.591  0.00  0.00    -0.241 OA
ATOM     24  O   LIG d   1     -10.074  75.651 117.951  0.00  0.00    -0.241 OA
ENDBRANCH   3  22
TORSDOF 7
ENDMDL
MODEL 9
REMARK VINA RESULT:      -4.4     17.189     18.206
REMARK  7 active torsions:
REMARK  status: ('A' for Active; 'I' for Inactive)
REMARK    1  A    between atoms: C_2  and  C_3 
REMARK    2  A    between atoms: C_3  and  O_6 
REMARK    3  A    between atoms: C_3  and  C_4 
REMARK    4  A    between atoms: C_7  and  O_6 
REMARK    5  A    between atoms: C_9  and  C_10 
REMARK    6  A    between atoms: N_15  and  C_14 
REMARK    7  A    between atoms: N_20  and  C_19 
REMARK       I    between atoms: C_22  and  N_20 
ROOT
ATOM      1  C   LIG d   1     -15.338  64.967 119.304  0.00  0.00     0.161 C 
ATOM      2  C   LIG d   1     -14.930  66.012 118.458  0.00  0.00     0.016 C 
ATOM      3  C   LIG d   1     -15.337  66.125 117.109  0.00  0.00     0.038 C 
ATOM      4  C   LIG d   1     -16.307  65.277 116.553  0.00  0.00     0.028 C 
ATOM      5  C   LIG d   1     -16.366  63.906 117.218  0.00  0.00    -0.047 C 
ATOM      6  C   LIG d   1     -16.484  64.095 118.748  0.00  0.00     0.091 C 
ENDROOT
BRANCH   1   7
ATOM      7  O   LIG d   1     -15.693  65.495 120.597  0.00  0.00    -0.368 OA
BRANCH   7   8
ATOM      8  C   LIG d   1     -16.010  66.908 120.643  0.00  0.00     0.119 C 
BRANCH   8   9
ATOM      9  C   LIG d   1     -15.463  67.462 121.973  0.00  0.00     0.028 C 
ATOM     10  C   LIG d   1     -14.006  67.040 122.230  0.00  0.00     0.006 C 
ENDBRANCH   8   9
BRANCH   8  11
ATOM     11  C   LIG d   1     -17.523  67.138 120.700  0.00  0.00     0.028 C 
ATOM     12  C   LIG d   1     -18.090  67.698 119.385  0.00  0.00     0.006 C 
ENDBRANCH   8  11
ENDBRANCH   7   8
ENDBRANCH   1   7
BRANCH   6  13
ATOM     13  N   LIG d   1     -16.462  62.803 119.482  0.00  0.00    -0.311 N 
ATOM     14  C   LIG d   1     -17.426  62.418 120.317  0.00  0.00     0.210 C 
ATOM     15  C   LIG d   1     -17.197  61.058 120.985  0.00  0.00     0.109 C 
ATOM     16  O   LIG d   1     -18.464  63.058 120.542  0.00  0.00    -0.276 OA
ATOM     17  H   LIG d   1     -15.671  62.207 119.334  0.00  0.00     0.149 HD
ENDBRANCH   6  13
BRANCH   5  18
ATOM     18  N   LIG d   1     -17.508  63.176 116.636  0.00  0.00     0.381 N 
ATOM     19  H   LIG d   1     -18.274  63.177 117.279  0.00  0.00    -0.090 HD
ATOM     20  H   LIG d   1     -17.235  62.223 116.472  0.00  0.00    -0.090 HD
ATOM     21  H   LIG d   1     -17.784  63.603 115.779  0.00  0.00    -0.090 HD
ENDBRANCH   5  18
BRANCH   3  22
ATOM     22  C   LIG d   1     -14.742  67.071 116.288  0.00  0.00     0.382 C 
ATOM     23  O   LIG d   1     -13.508  67.019 116.064  0.00  0.00    -0.241 OA
ATOM     24  O   LIG d   1     -15.414  68.001 115.805  0.00  0.00    -0.241 OA
ENDBRANCH   3  22
TORSDOF 7
ENDMDL
