MODEL 1
REMARK VINA RESULT:      -5.5      0.000      0.000
REMARK  7 active torsions:
REMARK  status: ('A' for Active; 'I' for Inactive)
REMARK    1  A    between atoms: C_2  and  C_3 
REMARK    2  A    between atoms: C_3  and  O_6 
REMARK    3  A    between atoms: C_3  and  C_4 
REMARK    4  A    between atoms: C_7  and  O_6 
REMARK    5  A    between atoms: C_9  and  C_10 
REMARK    6  A    between atoms: N_15  and  C_14 
REMARK    7  A    between atoms: N_20  and  C_19 
REMARK       I    between atoms: C_22  and  N_20 
ROOT
ATOM      1  C   LIG d   1      -1.227  58.900 118.039  0.00  0.00     0.161 C 
ATOM      2  C   LIG d   1      -2.433  59.006 117.326  0.00  0.00     0.016 C 
ATOM      3  C   LIG d   1      -3.645  59.445 117.907  0.00  0.00     0.038 C 
ATOM      4  C   LIG d   1      -3.698  59.956 119.213  0.00  0.00     0.028 C 
ATOM      5  C   LIG d   1      -2.614  59.396 120.127  0.00  0.00    -0.047 C 
ATOM      6  C   LIG d   1      -1.241  59.558 119.435  0.00  0.00     0.091 C 
ENDROOT
BRANCH   1   7
ATOM      7  O   LIG d   1      -0.144  59.427 117.248  0.00  0.00    -0.368 OA
BRANCH   7   8
ATOM      8  C   LIG d   1       0.491  58.497 116.337  0.00  0.00     0.119 C 
BRANCH   8   9
ATOM      9  C   LIG d   1       0.872  57.242 117.146  0.00  0.00     0.028 C 
ATOM     10  C   LIG d   1       0.504  55.939 116.417  0.00  0.00     0.006 C 
ENDBRANCH   8   9
BRANCH   8  11
ATOM     11  C   LIG d   1       1.816  59.054 115.805  0.00  0.00     0.028 C 
ATOM     12  C   LIG d   1       3.016  58.683 116.690  0.00  0.00     0.006 C 
ENDBRANCH   8  11
ENDBRANCH   7   8
ENDBRANCH   1   7
BRANCH   6  13
ATOM     13  N   LIG d   1      -0.133  58.960 120.225  0.00  0.00    -0.311 N 
ATOM     14  C   LIG d   1       0.521  59.616 121.182  0.00  0.00     0.210 C 
ATOM     15  C   LIG d   1       1.642  58.821 121.859  0.00  0.00     0.109 C 
ATOM     16  O   LIG d   1       0.259  60.769 121.556  0.00  0.00    -0.276 OA
ATOM     17  H   LIG d   1       0.124  58.017 120.009  0.00  0.00     0.149 HD
ENDBRANCH   6  13
BRANCH   5  18
ATOM     18  N   LIG d   1      -2.701  60.114 121.413  0.00  0.00     0.381 N 
ATOM     19  H   LIG d   1      -1.805  60.488 121.653  0.00  0.00    -0.090 HD
ATOM     20  H   LIG d   1      -2.974  59.465 122.130  0.00  0.00    -0.090 HD
ATOM     21  H   LIG d   1      -3.370  60.850 121.348  0.00  0.00    -0.090 HD
ENDBRANCH   5  18
BRANCH   3  22
ATOM     22  C   LIG d   1      -4.828  59.338 117.193  0.00  0.00     0.382 C 
ATOM     23  O   LIG d   1      -4.938  59.898 116.075  0.00  0.00    -0.241 OA
ATOM     24  O   LIG d   1      -5.802  58.726 117.671  0.00  0.00    -0.241 OA
ENDBRANCH   3  22
TORSDOF 7
ENDMDL
MODEL 2
REMARK VINA RESULT:      -5.0     32.984     34.079
REMARK  7 active torsions:
REMARK  status: ('A' for Active; 'I' for Inactive)
REMARK    1  A    between atoms: C_2  and  C_3 
REMARK    2  A    between atoms: C_3  and  O_6 
REMARK    3  A    between atoms: C_3  and  C_4 
REMARK    4  A    between atoms: C_7  and  O_6 
REMARK    5  A    between atoms: C_9  and  C_10 
REMARK    6  A    between atoms: N_15  and  C_14 
REMARK    7  A    between atoms: N_20  and  C_19 
REMARK       I    between atoms: C_22  and  N_20 
ROOT
ATOM      1  C   LIG d   1      -5.247  92.336 119.149  0.00  0.00     0.161 C 
ATOM      2  C   LIG d   1      -5.601  91.305 118.262  0.00  0.00     0.016 C 
ATOM      3  C   LIG d   1      -6.540  91.464 117.218  0.00  0.00     0.038 C 
ATOM      4  C   LIG d   1      -7.081  92.717 116.893  0.00  0.00     0.028 C 
ATOM      5  C   LIG d   1      -7.138  93.678 118.075  0.00  0.00    -0.047 C 
ATOM      6  C   LIG d   1      -5.743  93.738 118.740  0.00  0.00     0.091 C 
ENDROOT
BRANCH   1   7
ATOM      7  O   LIG d   1      -3.818  92.346 119.341  0.00  0.00    -0.368 OA
BRANCH   7   8
ATOM      8  C   LIG d   1      -3.013  92.215 118.143  0.00  0.00     0.119 C 
BRANCH   8   9
ATOM      9  C   LIG d   1      -1.932  91.154 118.426  0.00  0.00     0.028 C 
ATOM     10  C   LIG d   1      -1.951  90.009 117.400  0.00  0.00     0.006 C 
ENDBRANCH   8   9
BRANCH   8  11
ATOM     11  C   LIG d   1      -2.246  93.506 117.844  0.00  0.00     0.028 C 
ATOM     12  C   LIG d   1      -1.403  93.988 119.035  0.00  0.00     0.006 C 
ENDBRANCH   8  11
ENDBRANCH   7   8
ENDBRANCH   1   7
BRANCH   6  13
ATOM     13  N   LIG d   1      -5.732  94.592 119.957  0.00  0.00    -0.311 N 
ATOM     14  C   LIG d   1      -4.960  95.669 120.089  0.00  0.00     0.210 C 
ATOM     15  C   LIG d   1      -5.088  96.395 121.432  0.00  0.00     0.109 C 
ATOM     16  O   LIG d   1      -4.206  96.111 119.209  0.00  0.00    -0.276 OA
ATOM     17  H   LIG d   1      -6.337  94.323 120.708  0.00  0.00     0.149 HD
ENDBRANCH   6  13
BRANCH   5  18
ATOM     18  N   LIG d   1      -7.592  94.986 117.566  0.00  0.00     0.381 N 
ATOM     19  H   LIG d   1      -7.855  95.575 118.331  0.00  0.00    -0.090 HD
ATOM     20  H   LIG d   1      -8.400  94.845 116.985  0.00  0.00    -0.090 HD
ATOM     21  H   LIG d   1      -6.866  95.418 117.039  0.00  0.00    -0.090 HD
ENDBRANCH   5  18
BRANCH   3  22
ATOM     22  C   LIG d   1      -6.978  90.354 116.512  0.00  0.00     0.382 C 
ATOM     23  O   LIG d   1      -8.169  89.973 116.618  0.00  0.00    -0.241 OA
ATOM     24  O   LIG d   1      -6.186  89.703 115.805  0.00  0.00    -0.241 OA
ENDBRANCH   3  22
TORSDOF 7
ENDMDL
MODEL 3
REMARK VINA RESULT:      -4.8     33.283     34.424
REMARK  7 active torsions:
REMARK  status: ('A' for Active; 'I' for Inactive)
REMARK    1  A    between atoms: C_2  and  C_3 
REMARK    2  A    between atoms: C_3  and  O_6 
REMARK    3  A    between atoms: C_3  and  C_4 
REMARK    4  A    between atoms: C_7  and  O_6 
REMARK    5  A    between atoms: C_9  and  C_10 
REMARK    6  A    between atoms: N_15  and  C_14 
REMARK    7  A    between atoms: N_20  and  C_19 
REMARK       I    between atoms: C_22  and  N_20 
ROOT
ATOM      1  C   LIG d   1      -6.273  92.798 118.152  0.00  0.00     0.161 C 
ATOM      2  C   LIG d   1      -7.428  93.588 118.024  0.00  0.00     0.016 C 
ATOM      3  C   LIG d   1      -7.572  94.859 118.627  0.00  0.00     0.038 C 
ATOM      4  C   LIG d   1      -6.506  95.495 119.280  0.00  0.00     0.028 C 
ATOM      5  C   LIG d   1      -5.488  94.523 119.866  0.00  0.00    -0.047 C 
ATOM      6  C   LIG d   1      -5.059  93.523 118.768  0.00  0.00     0.091 C 
ENDROOT
BRANCH   1   7
ATOM      7  O   LIG d   1      -5.924  92.232 116.874  0.00  0.00    -0.368 OA
BRANCH   7   8
ATOM      8  C   LIG d   1      -6.241  90.830 116.689  0.00  0.00     0.119 C 
BRANCH   8   9
ATOM      9  C   LIG d   1      -5.136  90.219 115.806  0.00  0.00     0.028 C 
ATOM     10  C   LIG d   1      -3.786  90.125 116.535  0.00  0.00     0.006 C 
ENDBRANCH   8   9
BRANCH   8  11
ATOM     11  C   LIG d   1      -7.539  90.652 115.897  0.00  0.00     0.028 C 
ATOM     12  C   LIG d   1      -8.349  89.426 116.349  0.00  0.00     0.006 C 
ENDBRANCH   8  11
ENDBRANCH   7   8
ENDBRANCH   1   7
BRANCH   6  13
ATOM     13  N   LIG d   1      -4.127  92.485 119.280  0.00  0.00    -0.311 N 
ATOM     14  C   LIG d   1      -2.801  92.590 119.208  0.00  0.00     0.210 C 
ATOM     15  C   LIG d   1      -2.026  91.397 119.777  0.00  0.00     0.109 C 
ATOM     16  O   LIG d   1      -2.193  93.572 118.756  0.00  0.00    -0.276 OA
ATOM     17  H   LIG d   1      -4.535  91.668 119.690  0.00  0.00     0.149 HD
ENDBRANCH   6  13
BRANCH   5  18
ATOM     18  N   LIG d   1      -4.364  95.319 120.395  0.00  0.00     0.381 N 
ATOM     19  H   LIG d   1      -3.661  95.423 119.690  0.00  0.00    -0.090 HD
ATOM     20  H   LIG d   1      -3.959  94.832 121.175  0.00  0.00    -0.090 HD
ATOM     21  H   LIG d   1      -4.688  96.215 120.685  0.00  0.00    -0.090 HD
ENDBRANCH   5  18
BRANCH   3  22
ATOM     22  C   LIG d   1      -8.807  95.489 118.615  0.00  0.00     0.382 C 
ATOM     23  O   LIG d   1      -8.877  96.729 118.438  0.00  0.00    -0.241 OA
ATOM     24  O   LIG d   1      -9.850  94.840 118.823  0.00  0.00    -0.241 OA
ENDBRANCH   3  22
TORSDOF 7
ENDMDL
MODEL 4
REMARK VINA RESULT:      -4.8     33.438     34.795
REMARK  7 active torsions:
REMARK  status: ('A' for Active; 'I' for Inactive)
REMARK    1  A    between atoms: C_2  and  C_3 
REMARK    2  A    between atoms: C_3  and  O_6 
REMARK    3  A    between atoms: C_3  and  C_4 
REMARK    4  A    between atoms: C_7  and  O_6 
REMARK    5  A    between atoms: C_9  and  C_10 
REMARK    6  A    between atoms: N_15  and  C_14 
REMARK    7  A    between atoms: N_20  and  C_19 
REMARK       I    between atoms: C_22  and  N_20 
ROOT
ATOM      1  C   LIG d   1      -5.728  92.475 119.274  0.00  0.00     0.161 C 
ATOM      2  C   LIG d   1      -4.788  91.680 118.597  0.00  0.00     0.016 C 
ATOM      3  C   LIG d   1      -4.867  91.387 117.216  0.00  0.00     0.038 C 
ATOM      4  C   LIG d   1      -5.815  91.999 116.381  0.00  0.00     0.028 C 
ATOM      5  C   LIG d   1      -7.088  92.412 117.112  0.00  0.00    -0.047 C 
ATOM      6  C   LIG d   1      -6.705  93.242 118.358  0.00  0.00     0.091 C 
ENDROOT
BRANCH   1   7
ATOM      7  O   LIG d   1      -5.048  93.389 120.157  0.00  0.00    -0.368 OA
BRANCH   7   8
ATOM      8  C   LIG d   1      -4.544  94.605 119.552  0.00  0.00     0.119 C 
BRANCH   8   9
ATOM      9  C   LIG d   1      -3.011  94.599 119.708  0.00  0.00     0.028 C 
ATOM     10  C   LIG d   1      -2.287  94.297 118.386  0.00  0.00     0.006 C 
ENDBRANCH   8   9
BRANCH   8  11
ATOM     11  C   LIG d   1      -5.024  95.846 120.310  0.00  0.00     0.028 C 
ATOM     12  C   LIG d   1      -5.823  95.498 121.576  0.00  0.00     0.006 C 
ENDBRANCH   8  11
ENDBRANCH   7   8
ENDBRANCH   1   7
BRANCH   6  13
ATOM     13  N   LIG d   1      -7.888  93.615 119.176  0.00  0.00    -0.311 N 
ATOM     14  C   LIG d   1      -8.492  94.800 119.094  0.00  0.00     0.210 C 
ATOM     15  C   LIG d   1      -9.682  94.986 120.041  0.00  0.00     0.109 C 
ATOM     16  O   LIG d   1      -8.175  95.702 118.305  0.00  0.00    -0.276 OA
ATOM     17  H   LIG d   1      -8.231  92.931 119.821  0.00  0.00     0.149 HD
ENDBRANCH   6  13
BRANCH   5  18
ATOM     18  N   LIG d   1      -7.928  93.158 116.156  0.00  0.00     0.381 N 
ATOM     19  H   LIG d   1      -7.360  93.791 115.629  0.00  0.00    -0.090 HD
ATOM     20  H   LIG d   1      -8.606  93.694 116.668  0.00  0.00    -0.090 HD
ATOM     21  H   LIG d   1      -8.390  92.525 115.541  0.00  0.00    -0.090 HD
ENDBRANCH   5  18
BRANCH   3  22
ATOM     22  C   LIG d   1      -4.016  90.442 116.664  0.00  0.00     0.382 C 
ATOM     23  O   LIG d   1      -2.807  90.418 116.996  0.00  0.00    -0.241 OA
ATOM     24  O   LIG d   1      -4.433  89.641 115.805  0.00  0.00    -0.241 OA
ENDBRANCH   3  22
TORSDOF 7
ENDMDL
MODEL 5
REMARK VINA RESULT:      -4.7      2.707      6.042
REMARK  7 active torsions:
REMARK  status: ('A' for Active; 'I' for Inactive)
REMARK    1  A    between atoms: C_2  and  C_3 
REMARK    2  A    between atoms: C_3  and  O_6 
REMARK    3  A    between atoms: C_3  and  C_4 
REMARK    4  A    between atoms: C_7  and  O_6 
REMARK    5  A    between atoms: C_9  and  C_10 
REMARK    6  A    between atoms: N_15  and  C_14 
REMARK    7  A    between atoms: N_20  and  C_19 
REMARK       I    between atoms: C_22  and  N_20 
ROOT
ATOM      1  C   LIG d   1       0.236  56.911 118.891  0.00  0.00     0.161 C 
ATOM      2  C   LIG d   1       1.475  56.278 118.701  0.00  0.00     0.016 C 
ATOM      3  C   LIG d   1       2.354  56.590 117.639  0.00  0.00     0.038 C 
ATOM      4  C   LIG d   1       2.119  57.670 116.775  0.00  0.00     0.028 C 
ATOM      5  C   LIG d   1       0.641  58.011 116.620  0.00  0.00    -0.047 C 
ATOM      6  C   LIG d   1       0.012  58.168 118.024  0.00  0.00     0.091 C 
ENDROOT
BRANCH   1   7
ATOM      7  O   LIG d   1       0.057  57.227 120.286  0.00  0.00    -0.368 OA
BRANCH   7   8
ATOM      8  C   LIG d   1       0.523  58.532 120.709  0.00  0.00     0.119 C 
BRANCH   8   9
ATOM      9  C   LIG d   1       1.769  58.315 121.589  0.00  0.00     0.028 C 
ATOM     10  C   LIG d   1       3.064  58.773 120.896  0.00  0.00     0.006 C 
ENDBRANCH   8   9
BRANCH   8  11
ATOM     11  C   LIG d   1      -0.500  59.221 121.618  0.00  0.00     0.028 C 
ATOM     12  C   LIG d   1      -0.097  60.658 121.985  0.00  0.00     0.006 C 
ENDBRANCH   8  11
ENDBRANCH   7   8
ENDBRANCH   1   7
BRANCH   6  13
ATOM     13  N   LIG d   1      -1.451  58.419 117.965  0.00  0.00    -0.311 N 
ATOM     14  C   LIG d   1      -2.002  59.604 118.221  0.00  0.00     0.210 C 
ATOM     15  C   LIG d   1      -3.531  59.642 118.124  0.00  0.00     0.109 C 
ATOM     16  O   LIG d   1      -1.368  60.636 118.489  0.00  0.00    -0.276 OA
ATOM     17  H   LIG d   1      -2.038  57.644 117.725  0.00  0.00     0.149 HD
ENDBRANCH   6  13
BRANCH   5  18
ATOM     18  N   LIG d   1       0.549  59.237 115.805  0.00  0.00     0.381 N 
ATOM     19  H   LIG d   1       1.091  59.131 114.971  0.00  0.00    -0.090 HD
ATOM     20  H   LIG d   1       0.926  60.006 116.331  0.00  0.00    -0.090 HD
ATOM     21  H   LIG d   1      -0.402  59.420 115.571  0.00  0.00    -0.090 HD
ENDBRANCH   5  18
BRANCH   3  22
ATOM     22  C   LIG d   1       3.464  55.791 117.408  0.00  0.00     0.382 C 
ATOM     23  O   LIG d   1       4.576  56.108 117.896  0.00  0.00    -0.241 OA
ATOM     24  O   LIG d   1       3.377  54.783 116.682  0.00  0.00    -0.241 OA
ENDBRANCH   3  22
TORSDOF 7
ENDMDL
MODEL 6
REMARK VINA RESULT:      -4.7     32.420     33.492
REMARK  7 active torsions:
REMARK  status: ('A' for Active; 'I' for Inactive)
REMARK    1  A    between atoms: C_2  and  C_3 
REMARK    2  A    between atoms: C_3  and  O_6 
REMARK    3  A    between atoms: C_3  and  C_4 
REMARK    4  A    between atoms: C_7  and  O_6 
REMARK    5  A    between atoms: C_9  and  C_10 
REMARK    6  A    between atoms: N_15  and  C_14 
REMARK    7  A    between atoms: N_20  and  C_19 
REMARK       I    between atoms: C_22  and  N_20 
ROOT
ATOM      1  C   LIG d   1      -3.095  92.761 117.773  0.00  0.00     0.161 C 
ATOM      2  C   LIG d   1      -4.481  92.546 117.696  0.00  0.00     0.016 C 
ATOM      3  C   LIG d   1      -5.059  91.289 117.401  0.00  0.00     0.038 C 
ATOM      4  C   LIG d   1      -4.287  90.121 117.311  0.00  0.00     0.028 C 
ATOM      5  C   LIG d   1      -2.846  90.379 116.882  0.00  0.00    -0.047 C 
ATOM      6  C   LIG d   1      -2.241  91.475 117.788  0.00  0.00     0.091 C 
ENDROOT
BRANCH   1   7
ATOM      7  O   LIG d   1      -2.790  93.578 118.920  0.00  0.00    -0.368 OA
BRANCH   7   8
ATOM      8  C   LIG d   1      -2.161  94.854 118.645  0.00  0.00     0.119 C 
BRANCH   8   9
ATOM      9  C   LIG d   1      -0.836  94.895 119.430  0.00  0.00     0.028 C 
ATOM     10  C   LIG d   1      -0.754  93.794 120.501  0.00  0.00     0.006 C 
ENDBRANCH   8   9
BRANCH   8  11
ATOM     11  C   LIG d   1      -2.995  96.016 119.194  0.00  0.00     0.028 C 
ATOM     12  C   LIG d   1      -4.105  95.553 120.150  0.00  0.00     0.006 C 
ENDBRANCH   8  11
ENDBRANCH   7   8
ENDBRANCH   1   7
BRANCH   6  13
ATOM     13  N   LIG d   1      -0.861  91.848 117.382  0.00  0.00    -0.311 N 
ATOM     14  C   LIG d   1       0.232  91.322 117.932  0.00  0.00     0.210 C 
ATOM     15  C   LIG d   1       1.556  91.860 117.381  0.00  0.00     0.109 C 
ATOM     16  O   LIG d   1       0.231  90.439 118.802  0.00  0.00    -0.276 OA
ATOM     17  H   LIG d   1      -0.768  92.536 116.660  0.00  0.00     0.149 HD
ENDBRANCH   6  13
BRANCH   5  18
ATOM     18  N   LIG d   1      -2.121  89.097 116.963  0.00  0.00     0.381 N 
ATOM     19  H   LIG d   1      -2.458  88.565 117.741  0.00  0.00    -0.090 HD
ATOM     20  H   LIG d   1      -1.145  89.284 117.109  0.00  0.00    -0.090 HD
ATOM     21  H   LIG d   1      -2.246  88.580 116.120  0.00  0.00    -0.090 HD
ENDBRANCH   5  18
BRANCH   3  22
ATOM     22  C   LIG d   1      -6.420  91.200 117.153  0.00  0.00     0.382 C 
ATOM     23  O   LIG d   1      -7.166  92.180 117.388  0.00  0.00    -0.241 OA
ATOM     24  O   LIG d   1      -6.918  90.136 116.739  0.00  0.00    -0.241 OA
ENDBRANCH   3  22
TORSDOF 7
ENDMDL
MODEL 7
REMARK VINA RESULT:      -4.6     32.164     33.370
REMARK  7 active torsions:
REMARK  status: ('A' for Active; 'I' for Inactive)
REMARK    1  A    between atoms: C_2  and  C_3 
REMARK    2  A    between atoms: C_3  and  O_6 
REMARK    3  A    between atoms: C_3  and  C_4 
REMARK    4  A    between atoms: C_7  and  O_6 
REMARK    5  A    between atoms: C_9  and  C_10 
REMARK    6  A    between atoms: N_15  and  C_14 
REMARK    7  A    between atoms: N_20  and  C_19 
REMARK       I    between atoms: C_22  and  N_20 
ROOT
ATOM      1  C   LIG d   1      -3.454  92.753 117.687  0.00  0.00     0.161 C 
ATOM      2  C   LIG d   1      -4.789  92.380 117.456  0.00  0.00     0.016 C 
ATOM      3  C   LIG d   1      -5.180  91.069 117.098  0.00  0.00     0.038 C 
ATOM      4  C   LIG d   1      -4.272  90.000 117.094  0.00  0.00     0.028 C 
ATOM      5  C   LIG d   1      -2.833  90.428 116.828  0.00  0.00    -0.047 C 
ATOM      6  C   LIG d   1      -2.464  91.575 117.796  0.00  0.00     0.091 C 
ENDROOT
BRANCH   1   7
ATOM      7  O   LIG d   1      -3.375  93.584 118.862  0.00  0.00    -0.368 OA
BRANCH   7   8
ATOM      8  C   LIG d   1      -4.626  93.838 119.548  0.00  0.00     0.119 C 
BRANCH   8   9
ATOM      9  C   LIG d   1      -4.759  95.364 119.717  0.00  0.00     0.028 C 
ATOM     10  C   LIG d   1      -5.857  95.750 120.722  0.00  0.00     0.006 C 
ENDBRANCH   8   9
BRANCH   8  11
ATOM     11  C   LIG d   1      -4.606  93.273 120.971  0.00  0.00     0.028 C 
ATOM     12  C   LIG d   1      -5.475  92.015 121.125  0.00  0.00     0.006 C 
ENDBRANCH   8  11
ENDBRANCH   7   8
ENDBRANCH   1   7
BRANCH   6  13
ATOM     13  N   LIG d   1      -1.100  92.110 117.547  0.00  0.00    -0.311 N 
ATOM     14  C   LIG d   1      -0.019  91.701 118.210  0.00  0.00     0.210 C 
ATOM     15  C   LIG d   1       1.286  92.397 117.811  0.00  0.00     0.109 C 
ATOM     16  O   LIG d   1      -0.013  90.806 119.068  0.00  0.00    -0.276 OA
ATOM     17  H   LIG d   1      -1.009  92.818 116.845  0.00  0.00     0.149 HD
ENDBRANCH   6  13
BRANCH   5  18
ATOM     18  N   LIG d   1      -1.977  89.237 116.988  0.00  0.00     0.381 N 
ATOM     19  H   LIG d   1      -1.685  88.907 116.090  0.00  0.00    -0.090 HD
ATOM     20  H   LIG d   1      -2.510  88.511 117.433  0.00  0.00    -0.090 HD
ATOM     21  H   LIG d   1      -1.181  89.462 117.543  0.00  0.00    -0.090 HD
ENDBRANCH   5  18
BRANCH   3  22
ATOM     22  C   LIG d   1      -6.486  90.827 116.700  0.00  0.00     0.382 C 
ATOM     23  O   LIG d   1      -6.797  89.711 116.217  0.00  0.00    -0.241 OA
ATOM     24  O   LIG d   1      -7.347  91.723 116.777  0.00  0.00    -0.241 OA
ENDBRANCH   3  22
TORSDOF 7
ENDMDL
MODEL 8
REMARK VINA RESULT:      -4.6      2.872      5.147
REMARK  7 active torsions:
REMARK  status: ('A' for Active; 'I' for Inactive)
REMARK    1  A    between atoms: C_2  and  C_3 
REMARK    2  A    between atoms: C_3  and  O_6 
REMARK    3  A    between atoms: C_3  and  C_4 
REMARK    4  A    between atoms: C_7  and  O_6 
REMARK    5  A    between atoms: C_9  and  C_10 
REMARK    6  A    between atoms: N_15  and  C_14 
REMARK    7  A    between atoms: N_20  and  C_19 
REMARK       I    between atoms: C_22  and  N_20 
ROOT
ATOM      1  C   LIG d   1       1.362  57.254 119.071  0.00  0.00     0.161 C 
ATOM      2  C   LIG d   1       1.875  56.254 118.227  0.00  0.00     0.016 C 
ATOM      3  C   LIG d   1       1.232  55.832 117.041  0.00  0.00     0.038 C 
ATOM      4  C   LIG d   1       0.102  56.491 116.535  0.00  0.00     0.028 C 
ATOM      5  C   LIG d   1      -0.735  57.172 117.613  0.00  0.00    -0.047 C 
ATOM      6  C   LIG d   1       0.188  58.060 118.478  0.00  0.00     0.091 C 
ENDROOT
BRANCH   1   7
ATOM      7  O   LIG d   1       2.423  58.140 119.480  0.00  0.00    -0.368 OA
BRANCH   7   8
ATOM      8  C   LIG d   1       3.736  57.854 118.939  0.00  0.00     0.119 C 
BRANCH   8   9
ATOM      9  C   LIG d   1       4.711  57.740 120.127  0.00  0.00     0.028 C 
ATOM     10  C   LIG d   1       6.082  57.184 119.709  0.00  0.00     0.006 C 
ENDBRANCH   8   9
BRANCH   8  11
ATOM     11  C   LIG d   1       4.258  59.021 118.097  0.00  0.00     0.028 C 
ATOM     12  C   LIG d   1       3.847  58.920 116.619  0.00  0.00     0.006 C 
ENDBRANCH   8  11
ENDBRANCH   7   8
ENDBRANCH   1   7
BRANCH   6  13
ATOM     13  N   LIG d   1      -0.536  58.698 119.609  0.00  0.00    -0.311 N 
ATOM     14  C   LIG d   1      -1.178  59.860 119.506  0.00  0.00     0.210 C 
ATOM     15  C   LIG d   1      -1.842  60.349 120.797  0.00  0.00     0.109 C 
ATOM     16  O   LIG d   1      -1.288  60.518 118.460  0.00  0.00    -0.276 OA
ATOM     17  H   LIG d   1      -0.525  58.217 120.487  0.00  0.00     0.149 HD
ENDBRANCH   6  13
BRANCH   5  18
ATOM     18  N   LIG d   1      -1.801  57.933 116.935  0.00  0.00     0.381 N 
ATOM     19  H   LIG d   1      -1.700  57.847 115.943  0.00  0.00    -0.090 HD
ATOM     20  H   LIG d   1      -1.712  58.904 117.178  0.00  0.00    -0.090 HD
ATOM     21  H   LIG d   1      -2.694  57.593 117.216  0.00  0.00    -0.090 HD
ENDBRANCH   5  18
BRANCH   3  22
ATOM     22  C   LIG d   1       1.698  54.713 116.368  0.00  0.00     0.382 C 
ATOM     23  O   LIG d   1       0.898  53.810 116.023  0.00  0.00    -0.241 OA
ATOM     24  O   LIG d   1       2.915  54.573 116.141  0.00  0.00    -0.241 OA
ENDBRANCH   3  22
TORSDOF 7
ENDMDL
MODEL 9
REMARK VINA RESULT:      -4.6     14.046     15.970
REMARK  7 active torsions:
REMARK  status: ('A' for Active; 'I' for Inactive)
REMARK    1  A    between atoms: C_2  and  C_3 
REMARK    2  A    between atoms: C_3  and  O_6 
REMARK    3  A    between atoms: C_3  and  C_4 
REMARK    4  A    between atoms: C_7  and  O_6 
REMARK    5  A    between atoms: C_9  and  C_10 
REMARK    6  A    between atoms: N_15  and  C_14 
REMARK    7  A    between atoms: N_20  and  C_19 
REMARK       I    between atoms: C_22  and  N_20 
ROOT
ATOM      1  C   LIG d   1     -14.635  66.316 119.304  0.00  0.00     0.161 C 
ATOM      2  C   LIG d   1     -14.026  67.397 119.963  0.00  0.00     0.016 C 
ATOM      3  C   LIG d   1     -13.206  67.251 121.105  0.00  0.00     0.038 C 
ATOM      4  C   LIG d   1     -12.813  65.991 121.579  0.00  0.00     0.028 C 
ATOM      5  C   LIG d   1     -13.809  64.883 121.253  0.00  0.00    -0.047 C 
ATOM      6  C   LIG d   1     -14.128  64.925 119.741  0.00  0.00     0.091 C 
ENDROOT
BRANCH   1   7
ATOM      7  O   LIG d   1     -14.499  66.473 117.878  0.00  0.00    -0.368 OA
BRANCH   7   8
ATOM      8  C   LIG d   1     -15.617  67.094 117.196  0.00  0.00     0.119 C 
BRANCH   8   9
ATOM      9  C   LIG d   1     -16.892  66.748 117.989  0.00  0.00     0.028 C 
ATOM     10  C   LIG d   1     -17.788  67.976 118.225  0.00  0.00     0.006 C 
ENDBRANCH   8   9
BRANCH   8  11
ATOM     11  C   LIG d   1     -15.827  66.490 115.805  0.00  0.00     0.028 C 
ATOM     12  C   LIG d   1     -16.836  65.331 115.805  0.00  0.00     0.006 C 
ENDBRANCH   8  11
ENDBRANCH   7   8
ENDBRANCH   1   7
BRANCH   6  13
ATOM     13  N   LIG d   1     -15.159  63.928 119.351  0.00  0.00    -0.311 N 
ATOM     14  C   LIG d   1     -15.073  63.174 118.256  0.00  0.00     0.210 C 
ATOM     15  C   LIG d   1     -16.254  62.225 118.031  0.00  0.00     0.109 C 
ATOM     16  O   LIG d   1     -14.116  63.178 117.468  0.00  0.00    -0.276 OA
ATOM     17  H   LIG d   1     -15.955  63.837 119.951  0.00  0.00     0.149 HD
ENDBRANCH   6  13
BRANCH   5  18
ATOM     18  N   LIG d   1     -13.212  63.605 121.683  0.00  0.00     0.381 N 
ATOM     19  H   LIG d   1     -12.224  63.714 121.795  0.00  0.00    -0.090 HD
ATOM     20  H   LIG d   1     -13.374  62.915 120.971  0.00  0.00    -0.090 HD
ATOM     21  H   LIG d   1     -13.620  63.309 122.542  0.00  0.00    -0.090 HD
ENDBRANCH   5  18
BRANCH   3  22
ATOM     22  C   LIG d   1     -12.801  68.375 121.809  0.00  0.00     0.382 C 
ATOM     23  O   LIG d   1     -11.613  68.477 122.198  0.00  0.00    -0.241 OA
ATOM     24  O   LIG d   1     -13.621  69.267 122.099  0.00  0.00    -0.241 OA
ENDBRANCH   3  22
TORSDOF 7
ENDMDL
