MODEL 1
REMARK VINA RESULT:      -5.4      0.000      0.000
REMARK  7 active torsions:
REMARK  status: ('A' for Active; 'I' for Inactive)
REMARK    1  A    between atoms: C_2  and  C_3 
REMARK    2  A    between atoms: C_3  and  O_6 
REMARK    3  A    between atoms: C_3  and  C_4 
REMARK    4  A    between atoms: C_7  and  O_6 
REMARK    5  A    between atoms: C_9  and  C_10 
REMARK    6  A    between atoms: N_15  and  C_14 
REMARK    7  A    between atoms: N_20  and  C_19 
REMARK       I    between atoms: C_22  and  N_20 
ROOT
ATOM      1  C   LIG d   1      -7.770  76.117 117.906  0.00  0.00     0.161 C 
ATOM      2  C   LIG d   1      -9.007  76.670 118.277  0.00  0.00     0.016 C 
ATOM      3  C   LIG d   1      -9.206  78.051 118.502  0.00  0.00     0.038 C 
ATOM      4  C   LIG d   1      -8.211  78.999 118.221  0.00  0.00     0.028 C 
ATOM      5  C   LIG d   1      -6.796  78.441 118.327  0.00  0.00    -0.047 C 
ATOM      6  C   LIG d   1      -6.701  77.148 117.486  0.00  0.00     0.091 C 
ENDROOT
BRANCH   1   7
ATOM      7  O   LIG d   1      -7.965  75.143 116.861  0.00  0.00    -0.368 OA
BRANCH   7   8
ATOM      8  C   LIG d   1      -7.944  73.754 117.272  0.00  0.00     0.119 C 
BRANCH   8   9
ATOM      9  C   LIG d   1      -7.176  72.964 116.195  0.00  0.00     0.028 C 
ATOM     10  C   LIG d   1      -5.850  73.639 115.805  0.00  0.00     0.006 C 
ENDBRANCH   8   9
BRANCH   8  11
ATOM     11  C   LIG d   1      -9.353  73.156 117.287  0.00  0.00     0.028 C 
ATOM     12  C   LIG d   1      -9.362  71.646 117.002  0.00  0.00     0.006 C 
ENDBRANCH   8  11
ENDBRANCH   7   8
ENDBRANCH   1   7
BRANCH   6  13
ATOM     13  N   LIG d   1      -5.373  76.491 117.603  0.00  0.00    -0.311 N 
ATOM     14  C   LIG d   1      -4.366  76.721 116.763  0.00  0.00     0.210 C 
ATOM     15  C   LIG d   1      -3.089  75.924 117.051  0.00  0.00     0.109 C 
ATOM     16  O   LIG d   1      -4.397  77.532 115.825  0.00  0.00    -0.276 OA
ATOM     17  H   LIG d   1      -5.250  75.841 118.354  0.00  0.00     0.149 HD
ENDBRANCH   6  13
BRANCH   5  18
ATOM     18  N   LIG d   1      -5.866  79.494 117.875  0.00  0.00     0.381 N 
ATOM     19  H   LIG d   1      -6.273  80.001 117.115  0.00  0.00    -0.090 HD
ATOM     20  H   LIG d   1      -5.020  79.062 117.549  0.00  0.00    -0.090 HD
ATOM     21  H   LIG d   1      -5.662  80.115 118.628  0.00  0.00    -0.090 HD
ENDBRANCH   5  18
BRANCH   3  22
ATOM     22  C   LIG d   1     -10.400  78.493 119.052  0.00  0.00     0.382 C 
ATOM     23  O   LIG d   1     -10.511  79.683 119.434  0.00  0.00    -0.241 OA
ATOM     24  O   LIG d   1     -11.352  77.706 119.210  0.00  0.00    -0.241 OA
ENDBRANCH   3  22
TORSDOF 7
ENDMDL
MODEL 2
REMARK VINA RESULT:      -5.4      1.955      5.100
REMARK  7 active torsions:
REMARK  status: ('A' for Active; 'I' for Inactive)
REMARK    1  A    between atoms: C_2  and  C_3 
REMARK    2  A    between atoms: C_3  and  O_6 
REMARK    3  A    between atoms: C_3  and  C_4 
REMARK    4  A    between atoms: C_7  and  O_6 
REMARK    5  A    between atoms: C_9  and  C_10 
REMARK    6  A    between atoms: N_15  and  C_14 
REMARK    7  A    between atoms: N_20  and  C_19 
REMARK       I    between atoms: C_22  and  N_20 
ROOT
ATOM      1  C   LIG d   1      -7.920  76.021 117.589  0.00  0.00     0.161 C 
ATOM      2  C   LIG d   1      -8.466  74.738 117.418  0.00  0.00     0.016 C 
ATOM      3  C   LIG d   1      -7.696  73.603 117.078  0.00  0.00     0.038 C 
ATOM      4  C   LIG d   1      -6.294  73.644 117.033  0.00  0.00     0.028 C 
ATOM      5  C   LIG d   1      -5.739  75.026 116.703  0.00  0.00    -0.047 C 
ATOM      6  C   LIG d   1      -6.378  76.063 117.654  0.00  0.00     0.091 C 
ENDROOT
BRANCH   1   7
ATOM      7  O   LIG d   1      -8.487  76.642 118.760  0.00  0.00    -0.368 OA
BRANCH   7   8
ATOM      8  C   LIG d   1      -9.448  77.699 118.518  0.00  0.00     0.119 C 
BRANCH   8   9
ATOM      9  C   LIG d   1      -8.930  78.966 119.227  0.00  0.00     0.028 C 
ATOM     10  C   LIG d   1      -8.753  80.149 118.260  0.00  0.00     0.006 C 
ENDBRANCH   8   9
BRANCH   8  11
ATOM     11  C   LIG d   1     -10.796  77.388 119.175  0.00  0.00     0.028 C 
ATOM     12  C   LIG d   1     -10.839  77.783 120.660  0.00  0.00     0.006 C 
ENDBRANCH   8  11
ENDBRANCH   7   8
ENDBRANCH   1   7
BRANCH   6  13
ATOM     13  N   LIG d   1      -5.954  77.453 117.344  0.00  0.00    -0.311 N 
ATOM     14  C   LIG d   1      -5.432  78.280 118.249  0.00  0.00     0.210 C 
ATOM     15  C   LIG d   1      -5.081  79.675 117.723  0.00  0.00     0.109 C 
ATOM     16  O   LIG d   1      -5.197  77.979 119.429  0.00  0.00    -0.276 OA
ATOM     17  H   LIG d   1      -6.080  77.770 116.402  0.00  0.00     0.149 HD
ENDBRANCH   6  13
BRANCH   5  18
ATOM     18  N   LIG d   1      -4.271  74.957 116.825  0.00  0.00     0.381 N 
ATOM     19  H   LIG d   1      -3.886  74.492 116.027  0.00  0.00    -0.090 HD
ATOM     20  H   LIG d   1      -4.037  74.424 117.644  0.00  0.00    -0.090 HD
ATOM     21  H   LIG d   1      -3.891  75.875 116.897  0.00  0.00    -0.090 HD
ENDBRANCH   5  18
BRANCH   3  22
ATOM     22  C   LIG d   1      -8.331  72.418 116.738  0.00  0.00     0.382 C 
ATOM     23  O   LIG d   1      -9.501  72.198 117.133  0.00  0.00    -0.241 OA
ATOM     24  O   LIG d   1      -7.732  71.546 116.080  0.00  0.00    -0.241 OA
ENDBRANCH   3  22
TORSDOF 7
ENDMDL
MODEL 3
REMARK VINA RESULT:      -5.1     14.369     16.875
REMARK  7 active torsions:
REMARK  status: ('A' for Active; 'I' for Inactive)
REMARK    1  A    between atoms: C_2  and  C_3 
REMARK    2  A    between atoms: C_3  and  O_6 
REMARK    3  A    between atoms: C_3  and  C_4 
REMARK    4  A    between atoms: C_7  and  O_6 
REMARK    5  A    between atoms: C_9  and  C_10 
REMARK    6  A    between atoms: N_15  and  C_14 
REMARK    7  A    between atoms: N_20  and  C_19 
REMARK       I    between atoms: C_22  and  N_20 
ROOT
ATOM      1  C   LIG d   1      -0.829  91.374 118.011  0.00  0.00     0.161 C 
ATOM      2  C   LIG d   1       0.084  92.127 118.768  0.00  0.00     0.016 C 
ATOM      3  C   LIG d   1      -0.297  92.947 119.855  0.00  0.00     0.038 C 
ATOM      4  C   LIG d   1      -1.607  92.952 120.357  0.00  0.00     0.028 C 
ATOM      5  C   LIG d   1      -2.658  92.597 119.311  0.00  0.00    -0.047 C 
ATOM      6  C   LIG d   1      -2.247  91.281 118.613  0.00  0.00     0.091 C 
ENDROOT
BRANCH   1   7
ATOM      7  O   LIG d   1      -0.297  90.056 117.774  0.00  0.00    -0.368 OA
BRANCH   7   8
ATOM      8  C   LIG d   1       1.022  89.794 118.313  0.00  0.00     0.119 C 
BRANCH   8   9
ATOM      9  C   LIG d   1       1.940  89.423 117.132  0.00  0.00     0.028 C 
ATOM     10  C   LIG d   1       2.994  90.505 116.845  0.00  0.00     0.006 C 
ENDBRANCH   8   9
BRANCH   8  11
ATOM     11  C   LIG d   1       1.017  88.564 119.226  0.00  0.00     0.028 C 
ATOM     12  C   LIG d   1      -0.386  88.214 119.747  0.00  0.00     0.006 C 
ENDBRANCH   8  11
ENDBRANCH   7   8
ENDBRANCH   1   7
BRANCH   6  13
ATOM     13  N   LIG d   1      -3.177  90.905 117.517  0.00  0.00    -0.311 N 
ATOM     14  C   LIG d   1      -4.234  90.114 117.691  0.00  0.00     0.210 C 
ATOM     15  C   LIG d   1      -5.051  89.837 116.425  0.00  0.00     0.109 C 
ATOM     16  O   LIG d   1      -4.591  89.640 118.781  0.00  0.00    -0.276 OA
ATOM     17  H   LIG d   1      -2.980  91.271 116.606  0.00  0.00     0.149 HD
ENDBRANCH   6  13
BRANCH   5  18
ATOM     18  N   LIG d   1      -3.959  92.505 120.000  0.00  0.00     0.381 N 
ATOM     19  H   LIG d   1      -3.814  92.416 120.986  0.00  0.00    -0.090 HD
ATOM     20  H   LIG d   1      -4.441  91.685 119.676  0.00  0.00    -0.090 HD
ATOM     21  H   LIG d   1      -4.504  93.317 119.809  0.00  0.00    -0.090 HD
ENDBRANCH   5  18
BRANCH   3  22
ATOM     22  C   LIG d   1       0.631  93.805 120.426  0.00  0.00     0.382 C 
ATOM     23  O   LIG d   1       0.290  94.966 120.760  0.00  0.00    -0.241 OA
ATOM     24  O   LIG d   1       1.815  93.448 120.572  0.00  0.00    -0.241 OA
ENDBRANCH   3  22
TORSDOF 7
ENDMDL
MODEL 4
REMARK VINA RESULT:      -5.0     14.127     16.008
REMARK  7 active torsions:
REMARK  status: ('A' for Active; 'I' for Inactive)
REMARK    1  A    between atoms: C_2  and  C_3 
REMARK    2  A    between atoms: C_3  and  O_6 
REMARK    3  A    between atoms: C_3  and  C_4 
REMARK    4  A    between atoms: C_7  and  O_6 
REMARK    5  A    between atoms: C_9  and  C_10 
REMARK    6  A    between atoms: N_15  and  C_14 
REMARK    7  A    between atoms: N_20  and  C_19 
REMARK       I    between atoms: C_22  and  N_20 
ROOT
ATOM      1  C   LIG d   1      -4.203  91.237 119.666  0.00  0.00     0.161 C 
ATOM      2  C   LIG d   1      -5.276  90.962 118.801  0.00  0.00     0.016 C 
ATOM      3  C   LIG d   1      -5.119  90.337 117.542  0.00  0.00     0.038 C 
ATOM      4  C   LIG d   1      -3.889  89.805 117.126  0.00  0.00     0.028 C 
ATOM      5  C   LIG d   1      -2.685  90.508 117.744  0.00  0.00    -0.047 C 
ATOM      6  C   LIG d   1      -2.870  90.564 119.278  0.00  0.00     0.091 C 
ENDROOT
BRANCH   1   7
ATOM      7  O   LIG d   1      -4.565  90.891 121.017  0.00  0.00    -0.368 OA
BRANCH   7   8
ATOM      8  C   LIG d   1      -4.877  91.998 121.898  0.00  0.00     0.119 C 
BRANCH   8   9
ATOM      9  C   LIG d   1      -6.412  92.126 121.954  0.00  0.00     0.028 C 
ATOM     10  C   LIG d   1      -6.925  93.367 121.205  0.00  0.00     0.006 C 
ENDBRANCH   8   9
BRANCH   8  11
ATOM     11  C   LIG d   1      -4.381  93.327 121.319  0.00  0.00     0.028 C 
ATOM     12  C   LIG d   1      -3.203  93.918 122.110  0.00  0.00     0.006 C 
ENDBRANCH   8  11
ENDBRANCH   7   8
ENDBRANCH   1   7
BRANCH   6  13
ATOM     13  N   LIG d   1      -1.777  91.311 119.953  0.00  0.00    -0.311 N 
ATOM     14  C   LIG d   1      -0.687  90.726 120.448  0.00  0.00     0.210 C 
ATOM     15  C   LIG d   1       0.308  91.677 121.122  0.00  0.00     0.109 C 
ATOM     16  O   LIG d   1      -0.434  89.515 120.363  0.00  0.00    -0.276 OA
ATOM     17  H   LIG d   1      -1.885  92.302 120.037  0.00  0.00     0.149 HD
ENDBRANCH   6  13
BRANCH   5  18
ATOM     18  N   LIG d   1      -1.478  89.767 117.334  0.00  0.00     0.381 N 
ATOM     19  H   LIG d   1      -0.661  90.298 117.561  0.00  0.00    -0.090 HD
ATOM     20  H   LIG d   1      -1.501  89.633 116.339  0.00  0.00    -0.090 HD
ATOM     21  H   LIG d   1      -1.447  88.884 117.795  0.00  0.00    -0.090 HD
ENDBRANCH   5  18
BRANCH   3  22
ATOM     22  C   LIG d   1      -6.193  90.275 116.668  0.00  0.00     0.382 C 
ATOM     23  O   LIG d   1      -7.134  91.099 116.770  0.00  0.00    -0.241 OA
ATOM     24  O   LIG d   1      -6.255  89.378 115.806  0.00  0.00    -0.241 OA
ENDBRANCH   3  22
TORSDOF 7
ENDMDL
MODEL 5
REMARK VINA RESULT:      -4.9      2.561      6.358
REMARK  7 active torsions:
REMARK  status: ('A' for Active; 'I' for Inactive)
REMARK    1  A    between atoms: C_2  and  C_3 
REMARK    2  A    between atoms: C_3  and  O_6 
REMARK    3  A    between atoms: C_3  and  C_4 
REMARK    4  A    between atoms: C_7  and  O_6 
REMARK    5  A    between atoms: C_9  and  C_10 
REMARK    6  A    between atoms: N_15  and  C_14 
REMARK    7  A    between atoms: N_20  and  C_19 
REMARK       I    between atoms: C_22  and  N_20 
ROOT
ATOM      1  C   LIG d   1      -7.142  78.021 118.129  0.00  0.00     0.161 C 
ATOM      2  C   LIG d   1      -6.832  76.752 117.614  0.00  0.00     0.016 C 
ATOM      3  C   LIG d   1      -7.785  75.719 117.462  0.00  0.00     0.038 C 
ATOM      4  C   LIG d   1      -9.154  75.937 117.677  0.00  0.00     0.028 C 
ATOM      5  C   LIG d   1      -9.440  77.050 118.679  0.00  0.00    -0.047 C 
ATOM      6  C   LIG d   1      -8.651  78.313 118.265  0.00  0.00     0.091 C 
ENDROOT
BRANCH   1   7
ATOM      7  O   LIG d   1      -6.504  79.041 117.335  0.00  0.00    -0.368 OA
BRANCH   7   8
ATOM      8  C   LIG d   1      -5.420  79.761 117.973  0.00  0.00     0.119 C 
BRANCH   8   9
ATOM      9  C   LIG d   1      -5.766  81.262 117.917  0.00  0.00     0.028 C 
ATOM     10  C   LIG d   1      -6.062  81.847 119.308  0.00  0.00     0.006 C 
ENDBRANCH   8   9
BRANCH   8  11
ATOM     11  C   LIG d   1      -4.115  79.616 117.184  0.00  0.00     0.028 C 
ATOM     12  C   LIG d   1      -3.515  80.969 116.772  0.00  0.00     0.006 C 
ENDBRANCH   8  11
ENDBRANCH   7   8
ENDBRANCH   1   7
BRANCH   6  13
ATOM     13  N   LIG d   1      -8.808  79.425 119.239  0.00  0.00    -0.311 N 
ATOM     14  C   LIG d   1      -9.717  80.390 119.110  0.00  0.00     0.210 C 
ATOM     15  C   LIG d   1      -9.696  81.450 120.215  0.00  0.00     0.109 C 
ATOM     16  O   LIG d   1     -10.560  80.450 118.202  0.00  0.00    -0.276 OA
ATOM     17  H   LIG d   1      -8.186  79.436 120.023  0.00  0.00     0.149 HD
ENDBRANCH   6  13
BRANCH   5  18
ATOM     18  N   LIG d   1     -10.900  77.263 118.704  0.00  0.00     0.381 N 
ATOM     19  H   LIG d   1     -11.329  76.595 119.312  0.00  0.00    -0.090 HD
ATOM     20  H   LIG d   1     -11.264  77.127 117.777  0.00  0.00    -0.090 HD
ATOM     21  H   LIG d   1     -11.105  78.187 119.017  0.00  0.00    -0.090 HD
ENDBRANCH   5  18
BRANCH   3  22
ATOM     22  C   LIG d   1      -7.366  74.440 117.130  0.00  0.00     0.382 C 
ATOM     23  O   LIG d   1      -8.180  73.486 117.159  0.00  0.00    -0.241 OA
ATOM     24  O   LIG d   1      -6.174  74.220 116.844  0.00  0.00    -0.241 OA
ENDBRANCH   3  22
TORSDOF 7
ENDMDL
MODEL 6
REMARK VINA RESULT:      -4.9      2.169      3.277
REMARK  7 active torsions:
REMARK  status: ('A' for Active; 'I' for Inactive)
REMARK    1  A    between atoms: C_2  and  C_3 
REMARK    2  A    between atoms: C_3  and  O_6 
REMARK    3  A    between atoms: C_3  and  C_4 
REMARK    4  A    between atoms: C_7  and  O_6 
REMARK    5  A    between atoms: C_9  and  C_10 
REMARK    6  A    between atoms: N_15  and  C_14 
REMARK    7  A    between atoms: N_20  and  C_19 
REMARK       I    between atoms: C_22  and  N_20 
ROOT
ATOM      1  C   LIG d   1      -6.282  78.719 118.044  0.00  0.00     0.161 C 
ATOM      2  C   LIG d   1      -7.646  78.430 118.217  0.00  0.00     0.016 C 
ATOM      3  C   LIG d   1      -8.640  79.425 118.358  0.00  0.00     0.038 C 
ATOM      4  C   LIG d   1      -8.356  80.788 118.184  0.00  0.00     0.028 C 
ATOM      5  C   LIG d   1      -6.911  81.151 118.511  0.00  0.00    -0.047 C 
ATOM      6  C   LIG d   1      -5.968  80.199 117.741  0.00  0.00     0.091 C 
ENDROOT
BRANCH   1   7
ATOM      7  O   LIG d   1      -5.728  77.869 117.020  0.00  0.00    -0.368 OA
BRANCH   7   8
ATOM      8  C   LIG d   1      -5.282  76.560 117.451  0.00  0.00     0.119 C 
BRANCH   8   9
ATOM      9  C   LIG d   1      -3.801  76.420 117.046  0.00  0.00     0.028 C 
ATOM     10  C   LIG d   1      -3.254  75.006 117.303  0.00  0.00     0.006 C 
ENDBRANCH   8   9
BRANCH   8  11
ATOM     11  C   LIG d   1      -6.015  75.446 116.699  0.00  0.00     0.028 C 
ATOM     12  C   LIG d   1      -7.053  74.722 117.571  0.00  0.00     0.006 C 
ENDBRANCH   8  11
ENDBRANCH   7   8
ENDBRANCH   1   7
BRANCH   6  13
ATOM     13  N   LIG d   1      -4.537  80.432 118.069  0.00  0.00    -0.311 N 
ATOM     14  C   LIG d   1      -3.617  80.739 117.156  0.00  0.00     0.210 C 
ATOM     15  C   LIG d   1      -2.197  80.917 117.704  0.00  0.00     0.109 C 
ATOM     16  O   LIG d   1      -3.847  80.913 115.950  0.00  0.00    -0.276 OA
ATOM     17  H   LIG d   1      -4.269  80.342 119.029  0.00  0.00     0.149 HD
ENDBRANCH   6  13
BRANCH   5  18
ATOM     18  N   LIG d   1      -6.718  82.570 118.155  0.00  0.00     0.381 N 
ATOM     19  H   LIG d   1      -7.535  83.094 118.394  0.00  0.00    -0.090 HD
ATOM     20  H   LIG d   1      -6.578  82.640 117.162  0.00  0.00    -0.090 HD
ATOM     21  H   LIG d   1      -5.926  82.937 118.636  0.00  0.00    -0.090 HD
ENDBRANCH   5  18
BRANCH   3  22
ATOM     22  C   LIG d   1      -9.930  79.062 118.717  0.00  0.00     0.382 C 
ATOM     23  O   LIG d   1     -10.624  79.831 119.425  0.00  0.00    -0.241 OA
ATOM     24  O   LIG d   1     -10.392  77.956 118.379  0.00  0.00    -0.241 OA
ENDBRANCH   3  22
TORSDOF 7
ENDMDL
MODEL 7
REMARK VINA RESULT:      -4.8      1.822      2.396
REMARK  7 active torsions:
REMARK  status: ('A' for Active; 'I' for Inactive)
REMARK    1  A    between atoms: C_2  and  C_3 
REMARK    2  A    between atoms: C_3  and  O_6 
REMARK    3  A    between atoms: C_3  and  C_4 
REMARK    4  A    between atoms: C_7  and  O_6 
REMARK    5  A    between atoms: C_9  and  C_10 
REMARK    6  A    between atoms: N_15  and  C_14 
REMARK    7  A    between atoms: N_20  and  C_19 
REMARK       I    between atoms: C_22  and  N_20 
ROOT
ATOM      1  C   LIG d   1      -7.248  78.354 118.242  0.00  0.00     0.161 C 
ATOM      2  C   LIG d   1      -8.475  79.025 118.369  0.00  0.00     0.016 C 
ATOM      3  C   LIG d   1      -8.602  80.432 118.315  0.00  0.00     0.038 C 
ATOM      4  C   LIG d   1      -7.522  81.261 117.977  0.00  0.00     0.028 C 
ATOM      5  C   LIG d   1      -6.165  80.667 118.338  0.00  0.00    -0.047 C 
ATOM      6  C   LIG d   1      -6.075  79.235 117.762  0.00  0.00     0.091 C 
ENDROOT
BRANCH   1   7
ATOM      7  O   LIG d   1      -7.403  77.211 117.377  0.00  0.00    -0.368 OA
BRANCH   7   8
ATOM      8  C   LIG d   1      -7.540  75.928 118.034  0.00  0.00     0.119 C 
BRANCH   8   9
ATOM      9  C   LIG d   1      -6.289  75.096 117.693  0.00  0.00     0.028 C 
ATOM     10  C   LIG d   1      -6.641  73.720 117.106  0.00  0.00     0.006 C 
ENDBRANCH   8   9
BRANCH   8  11
ATOM     11  C   LIG d   1      -8.721  75.135 117.467  0.00  0.00     0.028 C 
ATOM     12  C   LIG d   1     -10.070  75.840 117.679  0.00  0.00     0.006 C 
ENDBRANCH   8  11
ENDBRANCH   7   8
ENDBRANCH   1   7
BRANCH   6  13
ATOM     13  N   LIG d   1      -4.813  78.549 118.141  0.00  0.00    -0.311 N 
ATOM     14  C   LIG d   1      -3.988  77.990 117.258  0.00  0.00     0.210 C 
ATOM     15  C   LIG d   1      -2.751  77.318 117.863  0.00  0.00     0.109 C 
ATOM     16  O   LIG d   1      -4.146  78.015 116.028  0.00  0.00    -0.276 OA
ATOM     17  H   LIG d   1      -4.590  78.510 119.117  0.00  0.00     0.149 HD
ENDBRANCH   6  13
BRANCH   5  18
ATOM     18  N   LIG d   1      -5.127  81.570 117.807  0.00  0.00     0.381 N 
ATOM     19  H   LIG d   1      -4.413  81.706 118.495  0.00  0.00    -0.090 HD
ATOM     20  H   LIG d   1      -5.544  82.461 117.605  0.00  0.00    -0.090 HD
ATOM     21  H   LIG d   1      -4.731  81.184 116.979  0.00  0.00    -0.090 HD
ENDBRANCH   5  18
BRANCH   3  22
ATOM     22  C   LIG d   1      -9.812  81.026 118.640  0.00  0.00     0.382 C 
ATOM     23  O   LIG d   1      -9.958  81.581 119.756  0.00  0.00    -0.241 OA
ATOM     24  O   LIG d   1     -10.773  80.975 117.850  0.00  0.00    -0.241 OA
ENDBRANCH   3  22
TORSDOF 7
ENDMDL
MODEL 8
REMARK VINA RESULT:      -4.7     14.646     17.042
REMARK  7 active torsions:
REMARK  status: ('A' for Active; 'I' for Inactive)
REMARK    1  A    between atoms: C_2  and  C_3 
REMARK    2  A    between atoms: C_3  and  O_6 
REMARK    3  A    between atoms: C_3  and  C_4 
REMARK    4  A    between atoms: C_7  and  O_6 
REMARK    5  A    between atoms: C_9  and  C_10 
REMARK    6  A    between atoms: N_15  and  C_14 
REMARK    7  A    between atoms: N_20  and  C_19 
REMARK       I    between atoms: C_22  and  N_20 
ROOT
ATOM      1  C   LIG d   1      -1.667  91.371 118.309  0.00  0.00     0.161 C 
ATOM      2  C   LIG d   1      -0.559  90.650 117.834  0.00  0.00     0.016 C 
ATOM      3  C   LIG d   1       0.763  90.869 118.285  0.00  0.00     0.038 C 
ATOM      4  C   LIG d   1       1.048  91.725 119.359  0.00  0.00     0.028 C 
ATOM      5  C   LIG d   1       0.027  92.846 119.528  0.00  0.00    -0.047 C 
ATOM      6  C   LIG d   1      -1.392  92.231 119.560  0.00  0.00     0.091 C 
ENDROOT
BRANCH   1   7
ATOM      7  O   LIG d   1      -2.767  90.472 118.552  0.00  0.00    -0.368 OA
BRANCH   7   8
ATOM      8  C   LIG d   1      -3.953  90.682 117.746  0.00  0.00     0.119 C 
BRANCH   8   9
ATOM      9  C   LIG d   1      -5.174  90.554 118.677  0.00  0.00     0.028 C 
ATOM     10  C   LIG d   1      -4.773  90.403 120.154  0.00  0.00     0.006 C 
ENDBRANCH   8   9
BRANCH   8  11
ATOM     11  C   LIG d   1      -4.121  89.575 116.702  0.00  0.00     0.028 C 
ATOM     12  C   LIG d   1      -5.367  89.768 115.824  0.00  0.00     0.006 C 
ENDBRANCH   8  11
ENDBRANCH   7   8
ENDBRANCH   1   7
BRANCH   6  13
ATOM     13  N   LIG d   1      -2.456  93.266 119.638  0.00  0.00    -0.311 N 
ATOM     14  C   LIG d   1      -2.971  93.703 120.786  0.00  0.00     0.210 C 
ATOM     15  C   LIG d   1      -4.072  94.758 120.640  0.00  0.00     0.109 C 
ATOM     16  O   LIG d   1      -2.598  93.340 121.912  0.00  0.00    -0.276 OA
ATOM     17  H   LIG d   1      -2.795  93.637 118.772  0.00  0.00     0.149 HD
ENDBRANCH   6  13
BRANCH   5  18
ATOM     18  N   LIG d   1       0.368  93.578 120.762  0.00  0.00     0.381 N 
ATOM     19  H   LIG d   1      -0.127  93.184 121.537  0.00  0.00    -0.090 HD
ATOM     20  H   LIG d   1       0.083  94.536 120.661  0.00  0.00    -0.090 HD
ATOM     21  H   LIG d   1       1.349  93.531 120.926  0.00  0.00    -0.090 HD
ENDBRANCH   5  18
BRANCH   3  22
ATOM     22  C   LIG d   1       1.822  90.256 117.633  0.00  0.00     0.382 C 
ATOM     23  O   LIG d   1       1.726  89.969 116.415  0.00  0.00    -0.241 OA
ATOM     24  O   LIG d   1       2.855  89.947 118.257  0.00  0.00    -0.241 OA
ENDBRANCH   3  22
TORSDOF 7
ENDMDL
MODEL 9
REMARK VINA RESULT:      -4.4     12.531     15.261
REMARK  7 active torsions:
REMARK  status: ('A' for Active; 'I' for Inactive)
REMARK    1  A    between atoms: C_2  and  C_3 
REMARK    2  A    between atoms: C_3  and  O_6 
REMARK    3  A    between atoms: C_3  and  C_4 
REMARK    4  A    between atoms: C_7  and  O_6 
REMARK    5  A    between atoms: C_9  and  C_10 
REMARK    6  A    between atoms: N_15  and  C_14 
REMARK    7  A    between atoms: N_20  and  C_19 
REMARK       I    between atoms: C_22  and  N_20 
ROOT
ATOM      1  C   LIG d   1      -2.709  89.441 118.556  0.00  0.00     0.161 C 
ATOM      2  C   LIG d   1      -1.305  89.433 118.527  0.00  0.00     0.016 C 
ATOM      3  C   LIG d   1      -0.516  90.588 118.733  0.00  0.00     0.038 C 
ATOM      4  C   LIG d   1      -1.079  91.809 119.134  0.00  0.00     0.028 C 
ATOM      5  C   LIG d   1      -2.525  91.986 118.683  0.00  0.00    -0.047 C 
ATOM      6  C   LIG d   1      -3.338  90.740 119.102  0.00  0.00     0.091 C 
ENDROOT
BRANCH   1   7
ATOM      7  O   LIG d   1      -3.189  88.302 119.299  0.00  0.00    -0.368 OA
BRANCH   7   8
ATOM      8  C   LIG d   1      -2.283  87.759 120.290  0.00  0.00     0.119 C 
BRANCH   8   9
ATOM      9  C   LIG d   1      -2.477  86.231 120.307  0.00  0.00     0.028 C 
ATOM     10  C   LIG d   1      -1.141  85.470 120.331  0.00  0.00     0.006 C 
ENDBRANCH   8   9
BRANCH   8  11
ATOM     11  C   LIG d   1      -2.651  88.231 121.700  0.00  0.00     0.028 C 
ATOM     12  C   LIG d   1      -1.664  89.269 122.257  0.00  0.00     0.006 C 
ENDBRANCH   8  11
ENDBRANCH   7   8
ENDBRANCH   1   7
BRANCH   6  13
ATOM     13  N   LIG d   1      -4.744  90.795 118.625  0.00  0.00    -0.311 N 
ATOM     14  C   LIG d   1      -5.101  90.554 117.365  0.00  0.00     0.210 C 
ATOM     15  C   LIG d   1      -6.601  90.683 117.081  0.00  0.00     0.109 C 
ATOM     16  O   LIG d   1      -4.321  90.215 116.461  0.00  0.00    -0.276 OA
ATOM     17  H   LIG d   1      -5.446  91.032 119.299  0.00  0.00     0.149 HD
ENDBRANCH   6  13
BRANCH   5  18
ATOM     18  N   LIG d   1      -3.029  93.235 119.284  0.00  0.00     0.381 N 
ATOM     19  H   LIG d   1      -2.669  93.334 120.212  0.00  0.00    -0.090 HD
ATOM     20  H   LIG d   1      -4.031  93.189 119.338  0.00  0.00    -0.090 HD
ATOM     21  H   LIG d   1      -2.755  94.016 118.729  0.00  0.00    -0.090 HD
ENDBRANCH   5  18
BRANCH   3  22
ATOM     22  C   LIG d   1       0.850  90.538 118.498  0.00  0.00     0.382 C 
ATOM     23  O   LIG d   1       1.586  89.830 119.227  0.00  0.00    -0.241 OA
ATOM     24  O   LIG d   1       1.361  91.227 117.595  0.00  0.00    -0.241 OA
ENDBRANCH   3  22
TORSDOF 7
ENDMDL
