MODEL 1
REMARK VINA RESULT:      -5.2      0.000      0.000
REMARK  7 active torsions:
REMARK  status: ('A' for Active; 'I' for Inactive)
REMARK    1  A    between atoms: C_2  and  C_3 
REMARK    2  A    between atoms: C_3  and  O_6 
REMARK    3  A    between atoms: C_3  and  C_4 
REMARK    4  A    between atoms: C_7  and  O_6 
REMARK    5  A    between atoms: C_9  and  C_10 
REMARK    6  A    between atoms: N_15  and  C_14 
REMARK    7  A    between atoms: N_20  and  C_19 
REMARK       I    between atoms: C_22  and  N_20 
ROOT
ATOM      1  C   LIG d   1      -7.518  78.644 118.534  0.00  0.00     0.161 C 
ATOM      2  C   LIG d   1      -8.625  77.789 118.665  0.00  0.00     0.016 C 
ATOM      3  C   LIG d   1      -9.910  78.233 119.052  0.00  0.00     0.038 C 
ATOM      4  C   LIG d   1     -10.214  79.595 119.190  0.00  0.00     0.028 C 
ATOM      5  C   LIG d   1      -9.006  80.450 119.561  0.00  0.00    -0.047 C 
ATOM      6  C   LIG d   1      -7.857  80.150 118.573  0.00  0.00     0.091 C 
ENDROOT
BRANCH   1   7
ATOM      7  O   LIG d   1      -6.793  78.324 117.331  0.00  0.00    -0.368 OA
BRANCH   7   8
ATOM      8  C   LIG d   1      -6.134  77.034 117.307  0.00  0.00     0.119 C 
BRANCH   8   9
ATOM      9  C   LIG d   1      -4.615  77.290 117.321  0.00  0.00     0.028 C 
ATOM     10  C   LIG d   1      -4.246  78.665 116.740  0.00  0.00     0.006 C 
ENDBRANCH   8   9
BRANCH   8  11
ATOM     11  C   LIG d   1      -6.409  76.292 115.996  0.00  0.00     0.028 C 
ATOM     12  C   LIG d   1      -7.553  75.273 116.117  0.00  0.00     0.006 C 
ENDBRANCH   8  11
ENDBRANCH   7   8
ENDBRANCH   1   7
BRANCH   6  13
ATOM     13  N   LIG d   1      -6.609  80.882 118.914  0.00  0.00    -0.311 N 
ATOM     14  C   LIG d   1      -5.974  81.684 118.062  0.00  0.00     0.210 C 
ATOM     15  C   LIG d   1      -4.695  82.326 118.610  0.00  0.00     0.109 C 
ATOM     16  O   LIG d   1      -6.364  81.951 116.916  0.00  0.00    -0.276 OA
ATOM     17  H   LIG d   1      -6.239  80.748 119.835  0.00  0.00     0.149 HD
ENDBRANCH   6  13
BRANCH   5  18
ATOM     18  N   LIG d   1      -9.435  81.862 119.536  0.00  0.00     0.381 N 
ATOM     19  H   LIG d   1      -9.255  82.255 118.634  0.00  0.00    -0.090 HD
ATOM     20  H   LIG d   1      -8.903  82.375 120.217  0.00  0.00    -0.090 HD
ATOM     21  H   LIG d   1     -10.407  81.926 119.747  0.00  0.00    -0.090 HD
ENDBRANCH   5  18
BRANCH   3  22
ATOM     22  C   LIG d   1     -10.898  77.305 119.345  0.00  0.00     0.382 C 
ATOM     23  O   LIG d   1     -11.364  77.231 120.508  0.00  0.00    -0.241 OA
ATOM     24  O   LIG d   1     -11.298  76.511 118.473  0.00  0.00    -0.241 OA
ENDBRANCH   3  22
TORSDOF 7
ENDMDL
MODEL 2
REMARK VINA RESULT:      -4.8      2.621      4.281
REMARK  7 active torsions:
REMARK  status: ('A' for Active; 'I' for Inactive)
REMARK    1  A    between atoms: C_2  and  C_3 
REMARK    2  A    between atoms: C_3  and  O_6 
REMARK    3  A    between atoms: C_3  and  C_4 
REMARK    4  A    between atoms: C_7  and  O_6 
REMARK    5  A    between atoms: C_9  and  C_10 
REMARK    6  A    between atoms: N_15  and  C_14 
REMARK    7  A    between atoms: N_20  and  C_19 
REMARK       I    between atoms: C_22  and  N_20 
ROOT
ATOM      1  C   LIG d   1      -6.202  76.370 116.843  0.00  0.00     0.161 C 
ATOM      2  C   LIG d   1      -6.500  75.076 116.384  0.00  0.00     0.016 C 
ATOM      3  C   LIG d   1      -7.740  74.435 116.613  0.00  0.00     0.038 C 
ATOM      4  C   LIG d   1      -8.827  75.108 117.191  0.00  0.00     0.028 C 
ATOM      5  C   LIG d   1      -8.411  76.243 118.121  0.00  0.00    -0.047 C 
ATOM      6  C   LIG d   1      -7.414  77.161 117.378  0.00  0.00     0.091 C 
ENDROOT
BRANCH   1   7
ATOM      7  O   LIG d   1      -5.536  77.115 115.805  0.00  0.00    -0.368 OA
BRANCH   7   8
ATOM      8  C   LIG d   1      -4.141  77.427 116.040  0.00  0.00     0.119 C 
BRANCH   8   9
ATOM      9  C   LIG d   1      -3.619  76.443 117.105  0.00  0.00     0.028 C 
ATOM     10  C   LIG d   1      -2.397  75.646 116.619  0.00  0.00     0.006 C 
ENDBRANCH   8   9
BRANCH   8  11
ATOM     11  C   LIG d   1      -3.977  78.819 116.658  0.00  0.00     0.028 C 
ATOM     12  C   LIG d   1      -3.064  79.736 115.829  0.00  0.00     0.006 C 
ENDBRANCH   8  11
ENDBRANCH   7   8
ENDBRANCH   1   7
BRANCH   6  13
ATOM     13  N   LIG d   1      -6.893  78.250 118.245  0.00  0.00    -0.311 N 
ATOM     14  C   LIG d   1      -7.426  79.469 118.291  0.00  0.00     0.210 C 
ATOM     15  C   LIG d   1      -6.723  80.448 119.237  0.00  0.00     0.109 C 
ATOM     16  O   LIG d   1      -8.435  79.824 117.663  0.00  0.00    -0.276 OA
ATOM     17  H   LIG d   1      -6.094  78.039 118.812  0.00  0.00     0.149 HD
ENDBRANCH   6  13
BRANCH   5  18
ATOM     18  N   LIG d   1      -9.638  76.944 118.544  0.00  0.00     0.381 N 
ATOM     19  H   LIG d   1     -10.436  76.523 118.110  0.00  0.00    -0.090 HD
ATOM     20  H   LIG d   1      -9.585  77.902 118.244  0.00  0.00    -0.090 HD
ATOM     21  H   LIG d   1      -9.730  76.904 119.535  0.00  0.00    -0.090 HD
ENDBRANCH   5  18
BRANCH   3  22
ATOM     22  C   LIG d   1      -7.888  73.093 116.299  0.00  0.00     0.382 C 
ATOM     23  O   LIG d   1      -8.967  72.505 116.552  0.00  0.00    -0.241 OA
ATOM     24  O   LIG d   1      -6.941  72.451 115.805  0.00  0.00    -0.241 OA
ENDBRANCH   3  22
TORSDOF 7
ENDMDL
MODEL 3
REMARK VINA RESULT:      -4.6      0.776      1.743
REMARK  7 active torsions:
REMARK  status: ('A' for Active; 'I' for Inactive)
REMARK    1  A    between atoms: C_2  and  C_3 
REMARK    2  A    between atoms: C_3  and  O_6 
REMARK    3  A    between atoms: C_3  and  C_4 
REMARK    4  A    between atoms: C_7  and  O_6 
REMARK    5  A    between atoms: C_9  and  C_10 
REMARK    6  A    between atoms: N_15  and  C_14 
REMARK    7  A    between atoms: N_20  and  C_19 
REMARK       I    between atoms: C_22  and  N_20 
ROOT
ATOM      1  C   LIG d   1      -7.203  78.420 119.352  0.00  0.00     0.161 C 
ATOM      2  C   LIG d   1      -8.386  77.673 119.483  0.00  0.00     0.016 C 
ATOM      3  C   LIG d   1      -9.670  78.194 119.204  0.00  0.00     0.038 C 
ATOM      4  C   LIG d   1      -9.848  79.460 118.626  0.00  0.00     0.028 C 
ATOM      5  C   LIG d   1      -8.721  80.436 118.948  0.00  0.00    -0.047 C 
ATOM      6  C   LIG d   1      -7.368  79.767 118.617  0.00  0.00     0.091 C 
ENDROOT
BRANCH   1   7
ATOM      7  O   LIG d   1      -6.189  77.621 118.712  0.00  0.00    -0.368 OA
BRANCH   7   8
ATOM      8  C   LIG d   1      -6.403  77.321 117.311  0.00  0.00     0.119 C 
BRANCH   8   9
ATOM      9  C   LIG d   1      -7.019  75.911 117.228  0.00  0.00     0.028 C 
ATOM     10  C   LIG d   1      -6.966  75.330 115.805  0.00  0.00     0.006 C 
ENDBRANCH   8   9
BRANCH   8  11
ATOM     11  C   LIG d   1      -5.076  77.229 116.551  0.00  0.00     0.028 C 
ATOM     12  C   LIG d   1      -4.200  78.480 116.728  0.00  0.00     0.006 C 
ENDBRANCH   8  11
ENDBRANCH   7   8
ENDBRANCH   1   7
BRANCH   6  13
ATOM     13  N   LIG d   1      -6.208  80.623 118.981  0.00  0.00    -0.311 N 
ATOM     14  C   LIG d   1      -5.671  81.520 118.156  0.00  0.00     0.210 C 
ATOM     15  C   LIG d   1      -4.469  82.282 118.724  0.00  0.00     0.109 C 
ATOM     16  O   LIG d   1      -6.096  81.780 117.021  0.00  0.00    -0.276 OA
ATOM     17  H   LIG d   1      -5.820  80.500 119.896  0.00  0.00     0.149 HD
ENDBRANCH   6  13
BRANCH   5  18
ATOM     18  N   LIG d   1      -8.963  81.667 118.173  0.00  0.00     0.381 N 
ATOM     19  H   LIG d   1      -8.827  82.468 118.758  0.00  0.00    -0.090 HD
ATOM     20  H   LIG d   1      -9.916  81.668 117.853  0.00  0.00    -0.090 HD
ATOM     21  H   LIG d   1      -8.343  81.707 117.394  0.00  0.00    -0.090 HD
ENDBRANCH   5  18
BRANCH   3  22
ATOM     22  C   LIG d   1     -10.797  77.460 119.541  0.00  0.00     0.382 C 
ATOM     23  O   LIG d   1     -11.245  77.501 120.712  0.00  0.00    -0.241 OA
ATOM     24  O   LIG d   1     -11.346  76.723 118.700  0.00  0.00    -0.241 OA
ENDBRANCH   3  22
TORSDOF 7
ENDMDL
MODEL 4
REMARK VINA RESULT:      -4.6     12.510     14.635
REMARK  7 active torsions:
REMARK  status: ('A' for Active; 'I' for Inactive)
REMARK    1  A    between atoms: C_2  and  C_3 
REMARK    2  A    between atoms: C_3  and  O_6 
REMARK    3  A    between atoms: C_3  and  C_4 
REMARK    4  A    between atoms: C_7  and  O_6 
REMARK    5  A    between atoms: C_9  and  C_10 
REMARK    6  A    between atoms: N_15  and  C_14 
REMARK    7  A    between atoms: N_20  and  C_19 
REMARK       I    between atoms: C_22  and  N_20 
ROOT
ATOM      1  C   LIG d   1      -6.099  92.150 119.494  0.00  0.00     0.161 C 
ATOM      2  C   LIG d   1      -7.171  92.834 118.898  0.00  0.00     0.016 C 
ATOM      3  C   LIG d   1      -7.302  94.242 118.916  0.00  0.00     0.038 C 
ATOM      4  C   LIG d   1      -6.285  95.075 119.405  0.00  0.00     0.028 C 
ATOM      5  C   LIG d   1      -5.418  94.411 120.469  0.00  0.00    -0.047 C 
ATOM      6  C   LIG d   1      -4.924  93.047 119.935  0.00  0.00     0.091 C 
ENDROOT
BRANCH   1   7
ATOM      7  O   LIG d   1      -5.632  91.110 118.612  0.00  0.00    -0.368 OA
BRANCH   7   8
ATOM      8  C   LIG d   1      -4.645  91.505 117.627  0.00  0.00     0.119 C 
BRANCH   8   9
ATOM      9  C   LIG d   1      -5.327  91.463 116.246  0.00  0.00     0.028 C 
ATOM     10  C   LIG d   1      -6.400  90.364 116.155  0.00  0.00     0.006 C 
ENDBRANCH   8   9
BRANCH   8  11
ATOM     11  C   LIG d   1      -3.501  90.490 117.546  0.00  0.00     0.028 C 
ATOM     12  C   LIG d   1      -2.122  91.127 117.776  0.00  0.00     0.006 C 
ENDBRANCH   8  11
ENDBRANCH   7   8
ENDBRANCH   1   7
BRANCH   6  13
ATOM     13  N   LIG d   1      -4.137  92.294 120.946  0.00  0.00    -0.311 N 
ATOM     14  C   LIG d   1      -2.820  92.426 121.098  0.00  0.00     0.210 C 
ATOM     15  C   LIG d   1      -2.202  91.542 122.185  0.00  0.00     0.109 C 
ATOM     16  O   LIG d   1      -2.110  93.216 120.457  0.00  0.00    -0.276 OA
ATOM     17  H   LIG d   1      -4.638  91.654 121.530  0.00  0.00     0.149 HD
ENDBRANCH   6  13
BRANCH   5  18
ATOM     18  N   LIG d   1      -4.317  95.340 120.790  0.00  0.00     0.381 N 
ATOM     19  H   LIG d   1      -4.118  95.915 119.996  0.00  0.00    -0.090 HD
ATOM     20  H   LIG d   1      -3.494  94.806 121.006  0.00  0.00    -0.090 HD
ATOM     21  H   LIG d   1      -4.567  95.909 121.568  0.00  0.00    -0.090 HD
ENDBRANCH   5  18
BRANCH   3  22
ATOM     22  C   LIG d   1      -8.480  94.828 118.478  0.00  0.00     0.382 C 
ATOM     23  O   LIG d   1      -8.647  95.061 117.256  0.00  0.00    -0.241 OA
ATOM     24  O   LIG d   1      -9.359  95.166 119.293  0.00  0.00    -0.241 OA
ENDBRANCH   3  22
TORSDOF 7
ENDMDL
MODEL 5
REMARK VINA RESULT:      -4.6     12.367     14.477
REMARK  7 active torsions:
REMARK  status: ('A' for Active; 'I' for Inactive)
REMARK    1  A    between atoms: C_2  and  C_3 
REMARK    2  A    between atoms: C_3  and  O_6 
REMARK    3  A    between atoms: C_3  and  C_4 
REMARK    4  A    between atoms: C_7  and  O_6 
REMARK    5  A    between atoms: C_9  and  C_10 
REMARK    6  A    between atoms: N_15  and  C_14 
REMARK    7  A    between atoms: N_20  and  C_19 
REMARK       I    between atoms: C_22  and  N_20 
ROOT
ATOM      1  C   LIG d   1      -5.573  92.197 119.867  0.00  0.00     0.161 C 
ATOM      2  C   LIG d   1      -5.497  91.248 118.834  0.00  0.00     0.016 C 
ATOM      3  C   LIG d   1      -5.999  91.473 117.532  0.00  0.00     0.038 C 
ATOM      4  C   LIG d   1      -6.479  92.727 117.129  0.00  0.00     0.028 C 
ATOM      5  C   LIG d   1      -7.039  93.559 118.278  0.00  0.00    -0.047 C 
ATOM      6  C   LIG d   1      -5.993  93.611 119.415  0.00  0.00     0.091 C 
ENDROOT
BRANCH   1   7
ATOM      7  O   LIG d   1      -4.319  92.249 120.576  0.00  0.00    -0.368 OA
BRANCH   7   8
ATOM      8  C   LIG d   1      -3.172  91.701 119.883  0.00  0.00     0.119 C 
BRANCH   8   9
ATOM      9  C   LIG d   1      -2.374  90.862 120.900  0.00  0.00     0.028 C 
ATOM     10  C   LIG d   1      -3.286  90.053 121.838  0.00  0.00     0.006 C 
ENDBRANCH   8   9
BRANCH   8  11
ATOM     11  C   LIG d   1      -2.214  92.806 119.429  0.00  0.00     0.028 C 
ATOM     12  C   LIG d   1      -2.318  93.105 117.925  0.00  0.00     0.006 C 
ENDBRANCH   8  11
ENDBRANCH   7   8
ENDBRANCH   1   7
BRANCH   6  13
ATOM     13  N   LIG d   1      -6.494  94.336 120.613  0.00  0.00    -0.311 N 
ATOM     14  C   LIG d   1      -6.285  95.634 120.825  0.00  0.00     0.210 C 
ATOM     15  C   LIG d   1      -6.870  96.178 122.132  0.00  0.00     0.109 C 
ATOM     16  O   LIG d   1      -5.698  96.393 120.040  0.00  0.00    -0.276 OA
ATOM     17  H   LIG d   1      -7.008  93.802 121.287  0.00  0.00     0.149 HD
ENDBRANCH   6  13
BRANCH   5  18
ATOM     18  N   LIG d   1      -7.376  94.891 117.741  0.00  0.00     0.381 N 
ATOM     19  H   LIG d   1      -7.338  94.873 116.741  0.00  0.00    -0.090 HD
ATOM     20  H   LIG d   1      -6.698  95.556 118.070  0.00  0.00    -0.090 HD
ATOM     21  H   LIG d   1      -8.287  95.159 118.041  0.00  0.00    -0.090 HD
ENDBRANCH   5  18
BRANCH   3  22
ATOM     22  C   LIG d   1      -6.060  90.423 116.628  0.00  0.00     0.382 C 
ATOM     23  O   LIG d   1      -7.074  89.685 116.592  0.00  0.00    -0.241 OA
ATOM     24  O   LIG d   1      -5.096  90.177 115.879  0.00  0.00    -0.241 OA
ENDBRANCH   3  22
TORSDOF 7
ENDMDL
MODEL 6
REMARK VINA RESULT:      -4.5      2.205      4.588
REMARK  7 active torsions:
REMARK  status: ('A' for Active; 'I' for Inactive)
REMARK    1  A    between atoms: C_2  and  C_3 
REMARK    2  A    between atoms: C_3  and  O_6 
REMARK    3  A    between atoms: C_3  and  C_4 
REMARK    4  A    between atoms: C_7  and  O_6 
REMARK    5  A    between atoms: C_9  and  C_10 
REMARK    6  A    between atoms: N_15  and  C_14 
REMARK    7  A    between atoms: N_20  and  C_19 
REMARK       I    between atoms: C_22  and  N_20 
ROOT
ATOM      1  C   LIG d   1      -8.130  78.321 118.215  0.00  0.00     0.161 C 
ATOM      2  C   LIG d   1      -8.740  77.068 118.037  0.00  0.00     0.016 C 
ATOM      3  C   LIG d   1      -8.082  75.957 117.462  0.00  0.00     0.038 C 
ATOM      4  C   LIG d   1      -6.711  75.980 117.164  0.00  0.00     0.028 C 
ATOM      5  C   LIG d   1      -6.181  77.377 116.860  0.00  0.00    -0.047 C 
ATOM      6  C   LIG d   1      -6.603  78.333 117.999  0.00  0.00     0.091 C 
ENDROOT
BRANCH   1   7
ATOM      7  O   LIG d   1      -8.455  78.841 119.520  0.00  0.00    -0.368 OA
BRANCH   7   8
ATOM      8  C   LIG d   1      -9.120  80.128 119.545  0.00  0.00     0.119 C 
BRANCH   8   9
ATOM      9  C   LIG d   1     -10.187  80.076 120.656  0.00  0.00     0.028 C 
ATOM     10  C   LIG d   1     -10.312  78.678 121.285  0.00  0.00     0.006 C 
ENDBRANCH   8   9
BRANCH   8  11
ATOM     11  C   LIG d   1      -9.896  80.380 118.249  0.00  0.00     0.028 C 
ATOM     12  C   LIG d   1      -9.668  81.791 117.683  0.00  0.00     0.006 C 
ENDBRANCH   8  11
ENDBRANCH   7   8
ENDBRANCH   1   7
BRANCH   6  13
ATOM     13  N   LIG d   1      -6.197  79.739 117.738  0.00  0.00    -0.311 N 
ATOM     14  C   LIG d   1      -5.535  80.486 118.620  0.00  0.00     0.210 C 
ATOM     15  C   LIG d   1      -5.232  81.915 118.158  0.00  0.00     0.109 C 
ATOM     16  O   LIG d   1      -5.142  80.091 119.728  0.00  0.00    -0.276 OA
ATOM     17  H   LIG d   1      -6.448  80.130 116.851  0.00  0.00     0.149 HD
ENDBRANCH   6  13
BRANCH   5  18
ATOM     18  N   LIG d   1      -4.718  77.275 116.703  0.00  0.00     0.381 N 
ATOM     19  H   LIG d   1      -4.307  78.186 116.749  0.00  0.00    -0.090 HD
ATOM     20  H   LIG d   1      -4.514  76.883 115.800  0.00  0.00    -0.090 HD
ATOM     21  H   LIG d   1      -4.338  76.694 117.418  0.00  0.00    -0.090 HD
ENDBRANCH   5  18
BRANCH   3  22
ATOM     22  C   LIG d   1      -8.806  74.818 117.144  0.00  0.00     0.382 C 
ATOM     23  O   LIG d   1      -8.209  73.780 116.768  0.00  0.00    -0.241 OA
ATOM     24  O   LIG d   1     -10.051  74.829 117.184  0.00  0.00    -0.241 OA
ENDBRANCH   3  22
TORSDOF 7
ENDMDL
MODEL 7
REMARK VINA RESULT:      -4.5     13.361     15.966
REMARK  7 active torsions:
REMARK  status: ('A' for Active; 'I' for Inactive)
REMARK    1  A    between atoms: C_2  and  C_3 
REMARK    2  A    between atoms: C_3  and  O_6 
REMARK    3  A    between atoms: C_3  and  C_4 
REMARK    4  A    between atoms: C_7  and  O_6 
REMARK    5  A    between atoms: C_9  and  C_10 
REMARK    6  A    between atoms: N_15  and  C_14 
REMARK    7  A    between atoms: N_20  and  C_19 
REMARK       I    between atoms: C_22  and  N_20 
ROOT
ATOM      1  C   LIG d   1     -14.165  65.763 118.418  0.00  0.00     0.161 C 
ATOM      2  C   LIG d   1     -15.314  65.885 117.619  0.00  0.00     0.016 C 
ATOM      3  C   LIG d   1     -16.321  64.896 117.549  0.00  0.00     0.038 C 
ATOM      4  C   LIG d   1     -16.322  63.777 118.395  0.00  0.00     0.028 C 
ATOM      5  C   LIG d   1     -14.927  63.364 118.853  0.00  0.00    -0.047 C 
ATOM      6  C   LIG d   1     -14.202  64.600 119.431  0.00  0.00     0.091 C 
ENDROOT
BRANCH   1   7
ATOM      7  O   LIG d   1     -13.906  67.009 119.094  0.00  0.00    -0.368 OA
BRANCH   7   8
ATOM      8  C   LIG d   1     -14.682  67.258 120.292  0.00  0.00     0.119 C 
BRANCH   8   9
ATOM      9  C   LIG d   1     -15.530  68.520 120.041  0.00  0.00     0.028 C 
ATOM     10  C   LIG d   1     -17.023  68.198 119.862  0.00  0.00     0.006 C 
ENDBRANCH   8   9
BRANCH   8  11
ATOM     11  C   LIG d   1     -13.779  67.606 121.479  0.00  0.00     0.028 C 
ATOM     12  C   LIG d   1     -12.297  67.717 121.088  0.00  0.00     0.006 C 
ENDBRANCH   8  11
ENDBRANCH   7   8
ENDBRANCH   1   7
BRANCH   6  13
ATOM     13  N   LIG d   1     -12.800  64.303 119.826  0.00  0.00    -0.311 N 
ATOM     14  C   LIG d   1     -12.438  63.998 121.071  0.00  0.00     0.210 C 
ATOM     15  C   LIG d   1     -10.940  63.746 121.265  0.00  0.00     0.109 C 
ATOM     16  O   LIG d   1     -13.221  63.880 122.026  0.00  0.00    -0.276 OA
ATOM     17  H   LIG d   1     -12.105  64.345 119.107  0.00  0.00     0.149 HD
ENDBRANCH   6  13
BRANCH   5  18
ATOM     18  N   LIG d   1     -15.085  62.275 119.835  0.00  0.00     0.381 N 
ATOM     19  H   LIG d   1     -14.959  61.391 119.384  0.00  0.00    -0.090 HD
ATOM     20  H   LIG d   1     -16.017  62.307 120.210  0.00  0.00    -0.090 HD
ATOM     21  H   LIG d   1     -14.420  62.379 120.570  0.00  0.00    -0.090 HD
ENDBRANCH   5  18
BRANCH   3  22
ATOM     22  C   LIG d   1     -17.323  65.001 116.596  0.00  0.00     0.382 C 
ATOM     23  O   LIG d   1     -18.044  66.027 116.556  0.00  0.00    -0.241 OA
ATOM     24  O   LIG d   1     -17.544  64.065 115.805  0.00  0.00    -0.241 OA
ENDBRANCH   3  22
TORSDOF 7
ENDMDL
MODEL 8
REMARK VINA RESULT:      -4.4      1.908      2.991
REMARK  7 active torsions:
REMARK  status: ('A' for Active; 'I' for Inactive)
REMARK    1  A    between atoms: C_2  and  C_3 
REMARK    2  A    between atoms: C_3  and  O_6 
REMARK    3  A    between atoms: C_3  and  C_4 
REMARK    4  A    between atoms: C_7  and  O_6 
REMARK    5  A    between atoms: C_9  and  C_10 
REMARK    6  A    between atoms: N_15  and  C_14 
REMARK    7  A    between atoms: N_20  and  C_19 
REMARK       I    between atoms: C_22  and  N_20 
ROOT
ATOM      1  C   LIG d   1      -6.650  80.670 118.369  0.00  0.00     0.161 C 
ATOM      2  C   LIG d   1      -7.392  79.502 118.134  0.00  0.00     0.016 C 
ATOM      3  C   LIG d   1      -8.776  79.391 118.404  0.00  0.00     0.038 C 
ATOM      4  C   LIG d   1      -9.547  80.498 118.789  0.00  0.00     0.028 C 
ATOM      5  C   LIG d   1      -8.745  81.568 119.522  0.00  0.00    -0.047 C 
ATOM      6  C   LIG d   1      -7.496  81.922 118.684  0.00  0.00     0.091 C 
ENDROOT
BRANCH   1   7
ATOM      7  O   LIG d   1      -5.774  80.926 117.253  0.00  0.00    -0.368 OA
BRANCH   7   8
ATOM      8  C   LIG d   1      -4.356  80.768 117.506  0.00  0.00     0.119 C 
BRANCH   8   9
ATOM      9  C   LIG d   1      -3.701  82.154 117.348  0.00  0.00     0.028 C 
ATOM     10  C   LIG d   1      -3.368  82.482 115.883  0.00  0.00     0.006 C 
ENDBRANCH   8   9
BRANCH   8  11
ATOM     11  C   LIG d   1      -3.695  79.884 116.445  0.00  0.00     0.028 C 
ATOM     12  C   LIG d   1      -4.175  78.425 116.503  0.00  0.00     0.006 C 
ENDBRANCH   8  11
ENDBRANCH   7   8
ENDBRANCH   1   7
BRANCH   6  13
ATOM     13  N   LIG d   1      -6.612  82.901 119.369  0.00  0.00    -0.311 N 
ATOM     14  C   LIG d   1      -5.926  82.621 120.476  0.00  0.00     0.210 C 
ATOM     15  C   LIG d   1      -5.091  83.779 121.030  0.00  0.00     0.109 C 
ATOM     16  O   LIG d   1      -5.904  81.513 121.032  0.00  0.00    -0.276 OA
ATOM     17  H   LIG d   1      -6.547  83.816 118.967  0.00  0.00     0.149 HD
ENDBRANCH   6  13
BRANCH   5  18
ATOM     18  N   LIG d   1      -9.639  82.721 119.742  0.00  0.00     0.381 N 
ATOM     19  H   LIG d   1      -9.186  83.393 120.329  0.00  0.00    -0.090 HD
ATOM     20  H   LIG d   1     -10.470  82.404 120.210  0.00  0.00    -0.090 HD
ATOM     21  H   LIG d   1      -9.878  83.139 118.870  0.00  0.00    -0.090 HD
ENDBRANCH   5  18
BRANCH   3  22
ATOM     22  C   LIG d   1      -9.394  78.152 118.327  0.00  0.00     0.382 C 
ATOM     23  O   LIG d   1     -10.569  78.011 118.745  0.00  0.00    -0.241 OA
ATOM     24  O   LIG d   1      -8.777  77.164 117.887  0.00  0.00    -0.241 OA
ENDBRANCH   3  22
TORSDOF 7
ENDMDL
MODEL 9
REMARK VINA RESULT:      -4.4     13.360     15.492
REMARK  7 active torsions:
REMARK  status: ('A' for Active; 'I' for Inactive)
REMARK    1  A    between atoms: C_2  and  C_3 
REMARK    2  A    between atoms: C_3  and  O_6 
REMARK    3  A    between atoms: C_3  and  C_4 
REMARK    4  A    between atoms: C_7  and  O_6 
REMARK    5  A    between atoms: C_9  and  C_10 
REMARK    6  A    between atoms: N_15  and  C_14 
REMARK    7  A    between atoms: N_20  and  C_19 
REMARK       I    between atoms: C_22  and  N_20 
ROOT
ATOM      1  C   LIG d   1      -3.221  93.249 118.902  0.00  0.00     0.161 C 
ATOM      2  C   LIG d   1      -4.602  93.470 119.044  0.00  0.00     0.016 C 
ATOM      3  C   LIG d   1      -5.586  92.646 118.452  0.00  0.00     0.038 C 
ATOM      4  C   LIG d   1      -5.256  91.450 117.798  0.00  0.00     0.028 C 
ATOM      5  C   LIG d   1      -3.854  91.454 117.198  0.00  0.00    -0.047 C 
ATOM      6  C   LIG d   1      -2.844  91.886 118.285  0.00  0.00     0.091 C 
ENDROOT
BRANCH   1   7
ATOM      7  O   LIG d   1      -2.566  93.422 120.174  0.00  0.00    -0.368 OA
BRANCH   7   8
ATOM      8  C   LIG d   1      -1.628  94.523 120.263  0.00  0.00     0.119 C 
BRANCH   8   9
ATOM      9  C   LIG d   1      -0.625  94.187 121.384  0.00  0.00     0.028 C 
ATOM     10  C   LIG d   1       0.832  94.202 120.892  0.00  0.00     0.006 C 
ENDBRANCH   8   9
BRANCH   8  11
ATOM     11  C   LIG d   1      -2.322  95.812 120.713  0.00  0.00     0.028 C 
ATOM     12  C   LIG d   1      -2.411  96.862 119.594  0.00  0.00     0.006 C 
ENDBRANCH   8  11
ENDBRANCH   7   8
ENDBRANCH   1   7
BRANCH   6  13
ATOM     13  N   LIG d   1      -1.459  91.998 117.759  0.00  0.00    -0.311 N 
ATOM     14  C   LIG d   1      -0.381  91.623 118.447  0.00  0.00     0.210 C 
ATOM     15  C   LIG d   1       0.953  91.843 117.728  0.00  0.00     0.109 C 
ATOM     16  O   LIG d   1      -0.406  91.100 119.571  0.00  0.00    -0.276 OA
ATOM     17  H   LIG d   1      -1.349  92.383 116.842  0.00  0.00     0.149 HD
ENDBRANCH   6  13
BRANCH   5  18
ATOM     18  N   LIG d   1      -3.592  90.102 116.669  0.00  0.00     0.381 N 
ATOM     19  H   LIG d   1      -4.451  89.596 116.591  0.00  0.00    -0.090 HD
ATOM     20  H   LIG d   1      -2.995  89.612 117.312  0.00  0.00    -0.090 HD
ATOM     21  H   LIG d   1      -3.152  90.164 115.777  0.00  0.00    -0.090 HD
ENDBRANCH   5  18
BRANCH   3  22
ATOM     22  C   LIG d   1      -6.916  93.038 118.477  0.00  0.00     0.382 C 
ATOM     23  O   LIG d   1      -7.364  93.791 117.579  0.00  0.00    -0.241 OA
ATOM     24  O   LIG d   1      -7.662  92.684 119.409  0.00  0.00    -0.241 OA
ENDBRANCH   3  22
TORSDOF 7
ENDMDL
