MODEL 1
REMARK VINA RESULT:      -5.3      0.000      0.000
REMARK  7 active torsions:
REMARK  status: ('A' for Active; 'I' for Inactive)
REMARK    1  A    between atoms: C_2  and  C_3 
REMARK    2  A    between atoms: C_3  and  O_6 
REMARK    3  A    between atoms: C_3  and  C_4 
REMARK    4  A    between atoms: C_7  and  O_6 
REMARK    5  A    between atoms: C_9  and  C_10 
REMARK    6  A    between atoms: N_15  and  C_14 
REMARK    7  A    between atoms: N_20  and  C_19 
REMARK       I    between atoms: C_22  and  N_20 
ROOT
ATOM      1  C   LIG d   1      -0.921  59.460 117.323  0.00  0.00     0.161 C 
ATOM      2  C   LIG d   1      -0.957  58.076 117.087  0.00  0.00     0.016 C 
ATOM      3  C   LIG d   1      -0.090  57.155 117.719  0.00  0.00     0.038 C 
ATOM      4  C   LIG d   1       0.778  57.543 118.750  0.00  0.00     0.028 C 
ATOM      5  C   LIG d   1       1.205  59.005 118.665  0.00  0.00    -0.047 C 
ATOM      6  C   LIG d   1      -0.056  59.888 118.527  0.00  0.00     0.091 C 
ENDROOT
BRANCH   1   7
ATOM      7  O   LIG d   1      -2.263  59.967 117.465  0.00  0.00    -0.368 OA
BRANCH   7   8
ATOM      8  C   LIG d   1      -3.021  59.457 118.588  0.00  0.00     0.119 C 
BRANCH   8   9
ATOM      9  C   LIG d   1      -4.420  59.073 118.067  0.00  0.00     0.028 C 
ATOM     10  C   LIG d   1      -5.365  60.283 117.976  0.00  0.00     0.006 C 
ENDBRANCH   8   9
BRANCH   8  11
ATOM     11  C   LIG d   1      -3.265  60.546 119.637  0.00  0.00     0.028 C 
ATOM     12  C   LIG d   1      -2.859  60.110 121.054  0.00  0.00     0.006 C 
ENDBRANCH   8  11
ENDBRANCH   7   8
ENDBRANCH   1   7
BRANCH   6  13
ATOM     13  N   LIG d   1       0.276  61.326 118.353  0.00  0.00    -0.311 N 
ATOM     14  C   LIG d   1       0.370  62.185 119.367  0.00  0.00     0.210 C 
ATOM     15  C   LIG d   1       0.703  63.625 118.966  0.00  0.00     0.109 C 
ATOM     16  O   LIG d   1       0.241  61.883 120.563  0.00  0.00    -0.276 OA
ATOM     17  H   LIG d   1       0.428  61.650 117.418  0.00  0.00     0.149 HD
ENDBRANCH   6  13
BRANCH   5  18
ATOM     18  N   LIG d   1       1.995  59.309 119.873  0.00  0.00     0.381 N 
ATOM     19  H   LIG d   1       2.604  58.544 120.081  0.00  0.00    -0.090 HD
ATOM     20  H   LIG d   1       1.368  59.433 120.649  0.00  0.00    -0.090 HD
ATOM     21  H   LIG d   1       2.528  60.139 119.732  0.00  0.00    -0.090 HD
ENDBRANCH   5  18
BRANCH   3  22
ATOM     22  C   LIG d   1      -0.058  55.837 117.291  0.00  0.00     0.382 C 
ATOM     23  O   LIG d   1       1.037  55.302 116.990  0.00  0.00    -0.241 OA
ATOM     24  O   LIG d   1      -1.114  55.189 117.161  0.00  0.00    -0.241 OA
ENDBRANCH   3  22
TORSDOF 7
ENDMDL
MODEL 2
REMARK VINA RESULT:      -4.9      2.196      4.932
REMARK  7 active torsions:
REMARK  status: ('A' for Active; 'I' for Inactive)
REMARK    1  A    between atoms: C_2  and  C_3 
REMARK    2  A    between atoms: C_3  and  O_6 
REMARK    3  A    between atoms: C_3  and  C_4 
REMARK    4  A    between atoms: C_7  and  O_6 
REMARK    5  A    between atoms: C_9  and  C_10 
REMARK    6  A    between atoms: N_15  and  C_14 
REMARK    7  A    between atoms: N_20  and  C_19 
REMARK       I    between atoms: C_22  and  N_20 
ROOT
ATOM      1  C   LIG d   1      -1.440  59.190 119.727  0.00  0.00     0.161 C 
ATOM      2  C   LIG d   1      -0.865  60.435 119.420  0.00  0.00     0.016 C 
ATOM      3  C   LIG d   1       0.527  60.633 119.272  0.00  0.00     0.038 C 
ATOM      4  C   LIG d   1       1.433  59.562 119.272  0.00  0.00     0.028 C 
ATOM      5  C   LIG d   1       0.951  58.361 120.079  0.00  0.00    -0.047 C 
ATOM      6  C   LIG d   1      -0.478  57.989 119.621  0.00  0.00     0.091 C 
ENDROOT
BRANCH   1   7
ATOM      7  O   LIG d   1      -2.604  58.974 118.904  0.00  0.00    -0.368 OA
BRANCH   7   8
ATOM      8  C   LIG d   1      -2.365  58.376 117.606  0.00  0.00     0.119 C 
BRANCH   8   9
ATOM      9  C   LIG d   1      -2.837  59.382 116.539  0.00  0.00     0.028 C 
ATOM     10  C   LIG d   1      -1.664  60.103 115.852  0.00  0.00     0.006 C 
ENDBRANCH   8   9
BRANCH   8  11
ATOM     11  C   LIG d   1      -3.230  57.130 117.399  0.00  0.00     0.028 C 
ATOM     12  C   LIG d   1      -4.196  56.874 118.567  0.00  0.00     0.006 C 
ENDBRANCH   8  11
ENDBRANCH   7   8
ENDBRANCH   1   7
BRANCH   6  13
ATOM     13  N   LIG d   1      -1.057  56.877 120.418  0.00  0.00    -0.311 N 
ATOM     14  C   LIG d   1      -1.014  55.601 120.036  0.00  0.00     0.210 C 
ATOM     15  C   LIG d   1      -1.690  54.616 120.996  0.00  0.00     0.109 C 
ATOM     16  O   LIG d   1      -0.453  55.188 119.010  0.00  0.00    -0.276 OA
ATOM     17  H   LIG d   1      -1.505  57.118 121.280  0.00  0.00     0.149 HD
ENDBRANCH   6  13
BRANCH   5  18
ATOM     18  N   LIG d   1       1.924  57.270 119.881  0.00  0.00     0.381 N 
ATOM     19  H   LIG d   1       2.637  57.322 120.581  0.00  0.00    -0.090 HD
ATOM     20  H   LIG d   1       2.357  57.381 118.981  0.00  0.00    -0.090 HD
ATOM     21  H   LIG d   1       1.463  56.389 119.930  0.00  0.00    -0.090 HD
ENDBRANCH   5  18
BRANCH   3  22
ATOM     22  C   LIG d   1       1.030  61.920 119.162  0.00  0.00     0.382 C 
ATOM     23  O   LIG d   1       1.073  62.483 118.041  0.00  0.00    -0.241 OA
ATOM     24  O   LIG d   1       1.483  62.510 120.161  0.00  0.00    -0.241 OA
ENDBRANCH   3  22
TORSDOF 7
ENDMDL
MODEL 3
REMARK VINA RESULT:      -4.8      2.317      4.159
REMARK  7 active torsions:
REMARK  status: ('A' for Active; 'I' for Inactive)
REMARK    1  A    between atoms: C_2  and  C_3 
REMARK    2  A    between atoms: C_3  and  O_6 
REMARK    3  A    between atoms: C_3  and  C_4 
REMARK    4  A    between atoms: C_7  and  O_6 
REMARK    5  A    between atoms: C_9  and  C_10 
REMARK    6  A    between atoms: N_15  and  C_14 
REMARK    7  A    between atoms: N_20  and  C_19 
REMARK       I    between atoms: C_22  and  N_20 
ROOT
ATOM      1  C   LIG d   1      -0.539  58.380 118.537  0.00  0.00     0.161 C 
ATOM      2  C   LIG d   1       0.612  57.576 118.583  0.00  0.00     0.016 C 
ATOM      3  C   LIG d   1       0.622  56.209 118.222  0.00  0.00     0.038 C 
ATOM      4  C   LIG d   1      -0.494  55.587 117.643  0.00  0.00     0.028 C 
ATOM      5  C   LIG d   1      -1.820  56.224 118.048  0.00  0.00    -0.047 C 
ATOM      6  C   LIG d   1      -1.740  57.748 117.803  0.00  0.00     0.091 C 
ENDROOT
BRANCH   1   7
ATOM      7  O   LIG d   1      -0.218  59.662 117.961  0.00  0.00    -0.368 OA
BRANCH   7   8
ATOM      8  C   LIG d   1      -0.416  60.813 118.818  0.00  0.00     0.119 C 
BRANCH   8   9
ATOM      9  C   LIG d   1       0.908  61.601 118.848  0.00  0.00     0.028 C 
ATOM     10  C   LIG d   1       1.992  60.895 119.680  0.00  0.00     0.006 C 
ENDBRANCH   8   9
BRANCH   8  11
ATOM     11  C   LIG d   1      -0.671  60.391 120.268  0.00  0.00     0.028 C 
ATOM     12  C   LIG d   1      -1.971  60.978 120.839  0.00  0.00     0.006 C 
ENDBRANCH   8  11
ENDBRANCH   7   8
ENDBRANCH   1   7
BRANCH   6  13
ATOM     13  N   LIG d   1      -2.966  58.459 118.251  0.00  0.00    -0.311 N 
ATOM     14  C   LIG d   1      -3.553  59.424 117.545  0.00  0.00     0.210 C 
ATOM     15  C   LIG d   1      -4.795  60.038 118.199  0.00  0.00     0.109 C 
ATOM     16  O   LIG d   1      -3.182  59.807 116.426  0.00  0.00    -0.276 OA
ATOM     17  H   LIG d   1      -3.352  58.189 119.134  0.00  0.00     0.149 HD
ENDBRANCH   6  13
BRANCH   5  18
ATOM     18  N   LIG d   1      -2.885  55.568 117.267  0.00  0.00     0.381 N 
ATOM     19  H   LIG d   1      -3.506  56.258 116.894  0.00  0.00    -0.090 HD
ATOM     20  H   LIG d   1      -3.412  54.967 117.877  0.00  0.00    -0.090 HD
ATOM     21  H   LIG d   1      -2.486  55.034 116.526  0.00  0.00    -0.090 HD
ENDBRANCH   5  18
BRANCH   3  22
ATOM     22  C   LIG d   1       1.747  55.439 118.477  0.00  0.00     0.382 C 
ATOM     23  O   LIG d   1       2.414  54.969 117.524  0.00  0.00    -0.241 OA
ATOM     24  O   LIG d   1       2.077  55.172 119.648  0.00  0.00    -0.241 OA
ENDBRANCH   3  22
TORSDOF 7
ENDMDL
MODEL 4
REMARK VINA RESULT:      -4.7     29.851     33.023
REMARK  7 active torsions:
REMARK  status: ('A' for Active; 'I' for Inactive)
REMARK    1  A    between atoms: C_2  and  C_3 
REMARK    2  A    between atoms: C_3  and  O_6 
REMARK    3  A    between atoms: C_3  and  C_4 
REMARK    4  A    between atoms: C_7  and  O_6 
REMARK    5  A    between atoms: C_9  and  C_10 
REMARK    6  A    between atoms: N_15  and  C_14 
REMARK    7  A    between atoms: N_20  and  C_19 
REMARK       I    between atoms: C_22  and  N_20 
ROOT
ATOM      1  C   LIG d   1      -2.335  92.157 117.282  0.00  0.00     0.161 C 
ATOM      2  C   LIG d   1      -3.614  92.735 117.344  0.00  0.00     0.016 C 
ATOM      3  C   LIG d   1      -4.799  92.043 117.003  0.00  0.00     0.038 C 
ATOM      4  C   LIG d   1      -4.799  90.670 116.718  0.00  0.00     0.028 C 
ATOM      5  C   LIG d   1      -3.475  90.168 116.153  0.00  0.00    -0.047 C 
ATOM      6  C   LIG d   1      -2.327  90.627 117.081  0.00  0.00     0.091 C 
ENDROOT
BRANCH   1   7
ATOM      7  O   LIG d   1      -1.581  92.511 118.458  0.00  0.00    -0.368 OA
BRANCH   7   8
ATOM      8  C   LIG d   1      -0.489  93.443 118.258  0.00  0.00     0.119 C 
BRANCH   8   9
ATOM      9  C   LIG d   1       0.797  92.766 118.770  0.00  0.00     0.028 C 
ATOM     10  C   LIG d   1       2.036  93.663 118.608  0.00  0.00     0.006 C 
ENDBRANCH   8   9
BRANCH   8  11
ATOM     11  C   LIG d   1      -0.660  94.696 119.122  0.00  0.00     0.028 C 
ATOM     12  C   LIG d   1      -0.919  95.962 118.291  0.00  0.00     0.006 C 
ENDBRANCH   8  11
ENDBRANCH   7   8
ENDBRANCH   1   7
BRANCH   6  13
ATOM     13  N   LIG d   1      -0.988  90.250 116.556  0.00  0.00    -0.311 N 
ATOM     14  C   LIG d   1      -0.341  89.146 116.925  0.00  0.00     0.210 C 
ATOM     15  C   LIG d   1       1.035  88.957 116.279  0.00  0.00     0.109 C 
ATOM     16  O   LIG d   1      -0.789  88.290 117.702  0.00  0.00    -0.276 OA
ATOM     17  H   LIG d   1      -0.565  90.873 115.897  0.00  0.00     0.149 HD
ENDBRANCH   6  13
BRANCH   5  18
ATOM     18  N   LIG d   1      -3.569  88.701 116.032  0.00  0.00     0.381 N 
ATOM     19  H   LIG d   1      -2.869  88.268 116.601  0.00  0.00    -0.090 HD
ATOM     20  H   LIG d   1      -3.402  88.442 115.075  0.00  0.00    -0.090 HD
ATOM     21  H   LIG d   1      -4.474  88.393 116.313  0.00  0.00    -0.090 HD
ENDBRANCH   5  18
BRANCH   3  22
ATOM     22  C   LIG d   1      -5.995  92.737 116.904  0.00  0.00     0.382 C 
ATOM     23  O   LIG d   1      -6.335  93.533 117.813  0.00  0.00    -0.241 OA
ATOM     24  O   LIG d   1      -6.761  92.543 115.941  0.00  0.00    -0.241 OA
ENDBRANCH   3  22
TORSDOF 7
ENDMDL
MODEL 5
REMARK VINA RESULT:      -4.7     29.760     32.449
REMARK  7 active torsions:
REMARK  status: ('A' for Active; 'I' for Inactive)
REMARK    1  A    between atoms: C_2  and  C_3 
REMARK    2  A    between atoms: C_3  and  O_6 
REMARK    3  A    between atoms: C_3  and  C_4 
REMARK    4  A    between atoms: C_7  and  O_6 
REMARK    5  A    between atoms: C_9  and  C_10 
REMARK    6  A    between atoms: N_15  and  C_14 
REMARK    7  A    between atoms: N_20  and  C_19 
REMARK       I    between atoms: C_22  and  N_20 
ROOT
ATOM      1  C   LIG d   1      -2.455  92.070 117.334  0.00  0.00     0.161 C 
ATOM      2  C   LIG d   1      -3.720  92.681 117.382  0.00  0.00     0.016 C 
ATOM      3  C   LIG d   1      -4.906  92.048 116.946  0.00  0.00     0.038 C 
ATOM      4  C   LIG d   1      -4.931  90.697 116.570  0.00  0.00     0.028 C 
ATOM      5  C   LIG d   1      -3.597  90.194 116.028  0.00  0.00    -0.047 C 
ATOM      6  C   LIG d   1      -2.479  90.557 117.031  0.00  0.00     0.091 C 
ENDROOT
BRANCH   1   7
ATOM      7  O   LIG d   1      -1.743  92.324 118.561  0.00  0.00    -0.368 OA
BRANCH   7   8
ATOM      8  C   LIG d   1      -2.256  91.664 119.744  0.00  0.00     0.119 C 
BRANCH   8   9
ATOM      9  C   LIG d   1      -2.389  92.730 120.849  0.00  0.00     0.028 C 
ATOM     10  C   LIG d   1      -1.813  94.091 120.423  0.00  0.00     0.006 C 
ENDBRANCH   8   9
BRANCH   8  11
ATOM     11  C   LIG d   1      -1.256  90.639 120.288  0.00  0.00     0.028 C 
ATOM     12  C   LIG d   1       0.203  91.006 119.975  0.00  0.00     0.006 C 
ENDBRANCH   8  11
ENDBRANCH   7   8
ENDBRANCH   1   7
BRANCH   6  13
ATOM     13  N   LIG d   1      -1.130  90.176 116.538  0.00  0.00    -0.311 N 
ATOM     14  C   LIG d   1      -0.516  89.045 116.883  0.00  0.00     0.210 C 
ATOM     15  C   LIG d   1       0.879  88.857 116.278  0.00  0.00     0.109 C 
ATOM     16  O   LIG d   1      -1.007  88.166 117.606  0.00  0.00    -0.276 OA
ATOM     17  H   LIG d   1      -0.671  90.818 115.921  0.00  0.00     0.149 HD
ENDBRANCH   6  13
BRANCH   5  18
ATOM     18  N   LIG d   1      -3.726  88.742 115.805  0.00  0.00     0.381 N 
ATOM     19  H   LIG d   1      -4.658  88.447 116.017  0.00  0.00    -0.090 HD
ATOM     20  H   LIG d   1      -3.095  88.261 116.423  0.00  0.00    -0.090 HD
ATOM     21  H   LIG d   1      -3.507  88.521 114.859  0.00  0.00    -0.090 HD
ENDBRANCH   5  18
BRANCH   3  22
ATOM     22  C   LIG d   1      -6.079  92.781 116.845  0.00  0.00     0.382 C 
ATOM     23  O   LIG d   1      -6.781  92.701 115.808  0.00  0.00    -0.241 OA
ATOM     24  O   LIG d   1      -6.421  93.555 117.759  0.00  0.00    -0.241 OA
ENDBRANCH   3  22
TORSDOF 7
ENDMDL
MODEL 6
REMARK VINA RESULT:      -4.5     13.677     16.529
REMARK  7 active torsions:
REMARK  status: ('A' for Active; 'I' for Inactive)
REMARK    1  A    between atoms: C_2  and  C_3 
REMARK    2  A    between atoms: C_3  and  O_6 
REMARK    3  A    between atoms: C_3  and  C_4 
REMARK    4  A    between atoms: C_7  and  O_6 
REMARK    5  A    between atoms: C_9  and  C_10 
REMARK    6  A    between atoms: N_15  and  C_14 
REMARK    7  A    between atoms: N_20  and  C_19 
REMARK       I    between atoms: C_22  and  N_20 
ROOT
ATOM      1  C   LIG d   1     -15.212  65.524 117.943  0.00  0.00     0.161 C 
ATOM      2  C   LIG d   1     -16.337  65.310 117.129  0.00  0.00     0.016 C 
ATOM      3  C   LIG d   1     -17.264  64.263 117.343  0.00  0.00     0.038 C 
ATOM      4  C   LIG d   1     -17.210  63.447 118.482  0.00  0.00     0.028 C 
ATOM      5  C   LIG d   1     -15.807  63.304 119.060  0.00  0.00    -0.047 C 
ATOM      6  C   LIG d   1     -15.199  64.712 119.255  0.00  0.00     0.091 C 
ENDROOT
BRANCH   1   7
ATOM      7  O   LIG d   1     -15.073  66.931 118.223  0.00  0.00    -0.368 OA
BRANCH   7   8
ATOM      8  C   LIG d   1     -16.164  67.547 118.951  0.00  0.00     0.119 C 
BRANCH   8   9
ATOM      9  C   LIG d   1     -16.561  68.829 118.192  0.00  0.00     0.028 C 
ATOM     10  C   LIG d   1     -15.972  68.877 116.772  0.00  0.00     0.006 C 
ENDBRANCH   8   9
BRANCH   8  11
ATOM     11  C   LIG d   1     -15.714  68.019 120.336  0.00  0.00     0.028 C 
ATOM     12  C   LIG d   1     -14.189  68.182 120.444  0.00  0.00     0.006 C 
ENDBRANCH   8  11
ENDBRANCH   7   8
ENDBRANCH   1   7
BRANCH   6  13
ATOM     13  N   LIG d   1     -13.794  64.661 119.738  0.00  0.00    -0.311 N 
ATOM     14  C   LIG d   1     -13.460  64.701 121.027  0.00  0.00     0.210 C 
ATOM     15  C   LIG d   1     -11.955  64.656 121.307  0.00  0.00     0.109 C 
ATOM     16  O   LIG d   1     -14.269  64.736 121.966  0.00  0.00    -0.276 OA
ATOM     17  H   LIG d   1     -13.075  64.601 119.044  0.00  0.00     0.149 HD
ENDBRANCH   6  13
BRANCH   5  18
ATOM     18  N   LIG d   1     -15.918  62.543 120.319  0.00  0.00     0.381 N 
ATOM     19  H   LIG d   1     -15.079  62.650 120.854  0.00  0.00    -0.090 HD
ATOM     20  H   LIG d   1     -16.031  61.569 120.101  0.00  0.00    -0.090 HD
ATOM     21  H   LIG d   1     -16.700  62.867 120.845  0.00  0.00    -0.090 HD
ENDBRANCH   5  18
BRANCH   3  22
ATOM     22  C   LIG d   1     -18.235  64.000 116.389  0.00  0.00     0.382 C 
ATOM     23  O   LIG d   1     -18.940  64.935 115.938  0.00  0.00    -0.241 OA
ATOM     24  O   LIG d   1     -18.445  62.834 116.006  0.00  0.00    -0.241 OA
ENDBRANCH   3  22
TORSDOF 7
ENDMDL
MODEL 7
REMARK VINA RESULT:      -4.5     31.281     33.711
REMARK  7 active torsions:
REMARK  status: ('A' for Active; 'I' for Inactive)
REMARK    1  A    between atoms: C_2  and  C_3 
REMARK    2  A    between atoms: C_3  and  O_6 
REMARK    3  A    between atoms: C_3  and  C_4 
REMARK    4  A    between atoms: C_7  and  O_6 
REMARK    5  A    between atoms: C_9  and  C_10 
REMARK    6  A    between atoms: N_15  and  C_14 
REMARK    7  A    between atoms: N_20  and  C_19 
REMARK       I    between atoms: C_22  and  N_20 
ROOT
ATOM      1  C   LIG d   1      -3.393  93.360 118.805  0.00  0.00     0.161 C 
ATOM      2  C   LIG d   1      -4.559  94.108 119.034  0.00  0.00     0.016 C 
ATOM      3  C   LIG d   1      -5.750  93.939 118.291  0.00  0.00     0.038 C 
ATOM      4  C   LIG d   1      -5.905  92.898 117.364  0.00  0.00     0.028 C 
ATOM      5  C   LIG d   1      -4.589  92.441 116.742  0.00  0.00    -0.047 C 
ATOM      6  C   LIG d   1      -3.577  92.144 117.872  0.00  0.00     0.091 C 
ENDROOT
BRANCH   1   7
ATOM      7  O   LIG d   1      -2.824  92.945 120.062  0.00  0.00    -0.368 OA
BRANCH   7   8
ATOM      8  C   LIG d   1      -3.257  91.657 120.564  0.00  0.00     0.119 C 
BRANCH   8   9
ATOM      9  C   LIG d   1      -3.965  91.899 121.911  0.00  0.00     0.028 C 
ATOM     10  C   LIG d   1      -5.494  91.971 121.767  0.00  0.00     0.006 C 
ENDBRANCH   8   9
BRANCH   8  11
ATOM     11  C   LIG d   1      -2.063  90.755 120.889  0.00  0.00     0.028 C 
ATOM     12  C   LIG d   1      -0.712  91.455 120.675  0.00  0.00     0.006 C 
ENDBRANCH   8  11
ENDBRANCH   7   8
ENDBRANCH   1   7
BRANCH   6  13
ATOM     13  N   LIG d   1      -2.237  91.771 117.349  0.00  0.00    -0.311 N 
ATOM     14  C   LIG d   1      -1.823  90.511 117.226  0.00  0.00     0.210 C 
ATOM     15  C   LIG d   1      -0.399  90.349 116.684  0.00  0.00     0.109 C 
ATOM     16  O   LIG d   1      -2.511  89.512 117.483  0.00  0.00    -0.276 OA
ATOM     17  H   LIG d   1      -1.625  92.519 117.087  0.00  0.00     0.149 HD
ENDBRANCH   6  13
BRANCH   5  18
ATOM     18  N   LIG d   1      -4.879  91.264 115.902  0.00  0.00     0.381 N 
ATOM     19  H   LIG d   1      -5.699  90.799 116.240  0.00  0.00    -0.090 HD
ATOM     20  H   LIG d   1      -4.107  90.624 115.962  0.00  0.00    -0.090 HD
ATOM     21  H   LIG d   1      -5.015  91.545 114.956  0.00  0.00    -0.090 HD
ENDBRANCH   5  18
BRANCH   3  22
ATOM     22  C   LIG d   1      -6.790  94.843 118.446  0.00  0.00     0.382 C 
ATOM     23  O   LIG d   1      -7.977  94.437 118.459  0.00  0.00    -0.241 OA
ATOM     24  O   LIG d   1      -6.559  96.065 118.527  0.00  0.00    -0.241 OA
ENDBRANCH   3  22
TORSDOF 7
ENDMDL
MODEL 8
REMARK VINA RESULT:      -4.4     32.304     34.924
REMARK  7 active torsions:
REMARK  status: ('A' for Active; 'I' for Inactive)
REMARK    1  A    between atoms: C_2  and  C_3 
REMARK    2  A    between atoms: C_3  and  O_6 
REMARK    3  A    between atoms: C_3  and  C_4 
REMARK    4  A    between atoms: C_7  and  O_6 
REMARK    5  A    between atoms: C_9  and  C_10 
REMARK    6  A    between atoms: N_15  and  C_14 
REMARK    7  A    between atoms: N_20  and  C_19 
REMARK       I    between atoms: C_22  and  N_20 
ROOT
ATOM      1  C   LIG d   1      -3.594  93.345 118.610  0.00  0.00     0.161 C 
ATOM      2  C   LIG d   1      -3.614  92.305 117.665  0.00  0.00     0.016 C 
ATOM      3  C   LIG d   1      -4.755  91.970 116.902  0.00  0.00     0.038 C 
ATOM      4  C   LIG d   1      -5.918  92.754 116.923  0.00  0.00     0.028 C 
ATOM      5  C   LIG d   1      -6.115  93.509 118.233  0.00  0.00    -0.047 C 
ATOM      6  C   LIG d   1      -4.819  94.282 118.567  0.00  0.00     0.091 C 
ENDROOT
BRANCH   1   7
ATOM      7  O   LIG d   1      -2.376  94.105 118.475  0.00  0.00    -0.368 OA
BRANCH   7   8
ATOM      8  C   LIG d   1      -1.437  94.004 119.573  0.00  0.00     0.119 C 
BRANCH   8   9
ATOM      9  C   LIG d   1      -1.110  95.438 120.035  0.00  0.00     0.028 C 
ATOM     10  C   LIG d   1      -1.619  96.502 119.049  0.00  0.00     0.006 C 
ENDBRANCH   8   9
BRANCH   8  11
ATOM     11  C   LIG d   1      -0.102  93.412 119.112  0.00  0.00     0.028 C 
ATOM     12  C   LIG d   1       0.015  93.326 117.582  0.00  0.00     0.006 C 
ENDBRANCH   8  11
ENDBRANCH   7   8
ENDBRANCH   1   7
BRANCH   6  13
ATOM     13  N   LIG d   1      -4.897  94.981 119.876  0.00  0.00    -0.311 N 
ATOM     14  C   LIG d   1      -5.243  96.261 120.004  0.00  0.00     0.210 C 
ATOM     15  C   LIG d   1      -5.241  96.790 121.442  0.00  0.00     0.109 C 
ATOM     16  O   LIG d   1      -5.583  96.999 119.067  0.00  0.00    -0.276 OA
ATOM     17  H   LIG d   1      -4.668  94.448 120.692  0.00  0.00     0.149 HD
ENDBRANCH   6  13
BRANCH   5  18
ATOM     18  N   LIG d   1      -7.287  94.391 118.067  0.00  0.00     0.381 N 
ATOM     19  H   LIG d   1      -7.938  94.232 118.810  0.00  0.00    -0.090 HD
ATOM     20  H   LIG d   1      -7.740  94.169 117.198  0.00  0.00    -0.090 HD
ATOM     21  H   LIG d   1      -6.999  95.344 118.066  0.00  0.00    -0.090 HD
ENDBRANCH   5  18
BRANCH   3  22
ATOM     22  C   LIG d   1      -4.754  90.815 116.135  0.00  0.00     0.382 C 
ATOM     23  O   LIG d   1      -5.840  90.279 115.805  0.00  0.00    -0.241 OA
ATOM     24  O   LIG d   1      -3.680  90.276 115.806  0.00  0.00    -0.241 OA
ENDBRANCH   3  22
TORSDOF 7
ENDMDL
MODEL 9
REMARK VINA RESULT:      -4.4     14.200     17.475
REMARK  7 active torsions:
REMARK  status: ('A' for Active; 'I' for Inactive)
REMARK    1  A    between atoms: C_2  and  C_3 
REMARK    2  A    between atoms: C_3  and  O_6 
REMARK    3  A    between atoms: C_3  and  C_4 
REMARK    4  A    between atoms: C_7  and  O_6 
REMARK    5  A    between atoms: C_9  and  C_10 
REMARK    6  A    between atoms: N_15  and  C_14 
REMARK    7  A    between atoms: N_20  and  C_19 
REMARK       I    between atoms: C_22  and  N_20 
ROOT
ATOM      1  C   LIG d   1     -16.343  65.937 118.395  0.00  0.00     0.161 C 
ATOM      2  C   LIG d   1     -15.065  65.403 118.629  0.00  0.00     0.016 C 
ATOM      3  C   LIG d   1     -14.845  64.090 119.104  0.00  0.00     0.038 C 
ATOM      4  C   LIG d   1     -15.891  63.164 119.235  0.00  0.00     0.028 C 
ATOM      5  C   LIG d   1     -17.247  63.814 119.492  0.00  0.00    -0.047 C 
ATOM      6  C   LIG d   1     -17.490  64.906 118.426  0.00  0.00     0.091 C 
ENDROOT
BRANCH   1   7
ATOM      7  O   LIG d   1     -16.350  66.658 117.147  0.00  0.00    -0.368 OA
BRANCH   7   8
ATOM      8  C   LIG d   1     -16.774  68.042 117.212  0.00  0.00     0.119 C 
BRANCH   8   9
ATOM      9  C   LIG d   1     -15.893  68.843 116.235  0.00  0.00     0.028 C 
ATOM     10  C   LIG d   1     -14.615  68.084 115.840  0.00  0.00     0.006 C 
ENDBRANCH   8   9
BRANCH   8  11
ATOM     11  C   LIG d   1     -16.500  68.644 118.594  0.00  0.00     0.028 C 
ATOM     12  C   LIG d   1     -17.764  69.212 119.258  0.00  0.00     0.006 C 
ENDBRANCH   8  11
ENDBRANCH   7   8
ENDBRANCH   1   7
BRANCH   6  13
ATOM     13  N   LIG d   1     -18.757  65.649 118.654  0.00  0.00    -0.311 N 
ATOM     14  C   LIG d   1     -19.675  65.842 117.709  0.00  0.00     0.210 C 
ATOM     15  C   LIG d   1     -20.898  66.652 118.150  0.00  0.00     0.109 C 
ATOM     16  O   LIG d   1     -19.607  65.392 116.555  0.00  0.00    -0.276 OA
ATOM     17  H   LIG d   1     -18.908  66.022 119.571  0.00  0.00     0.149 HD
ENDBRANCH   6  13
BRANCH   5  18
ATOM     18  N   LIG d   1     -18.264  62.746 119.469  0.00  0.00     0.381 N 
ATOM     19  H   LIG d   1     -17.826  61.865 119.291  0.00  0.00    -0.090 HD
ATOM     20  H   LIG d   1     -18.914  62.932 118.726  0.00  0.00    -0.090 HD
ATOM     21  H   LIG d   1     -18.746  62.716 120.341  0.00  0.00    -0.090 HD
ENDBRANCH   5  18
BRANCH   3  22
ATOM     22  C   LIG d   1     -13.572  63.703 119.493  0.00  0.00     0.382 C 
ATOM     23  O   LIG d   1     -13.099  64.107 120.583  0.00  0.00    -0.241 OA
ATOM     24  O   LIG d   1     -12.872  62.993 118.746  0.00  0.00    -0.241 OA
ENDBRANCH   3  22
TORSDOF 7
ENDMDL
