MODEL 1
REMARK VINA RESULT:      -5.6      0.000      0.000
REMARK  7 active torsions:
REMARK  status: ('A' for Active; 'I' for Inactive)
REMARK    1  A    between atoms: C_2  and  C_3 
REMARK    2  A    between atoms: C_3  and  O_6 
REMARK    3  A    between atoms: C_3  and  C_4 
REMARK    4  A    between atoms: C_7  and  O_6 
REMARK    5  A    between atoms: C_9  and  C_10 
REMARK    6  A    between atoms: N_15  and  C_14 
REMARK    7  A    between atoms: N_20  and  C_19 
REMARK       I    between atoms: C_22  and  N_20 
ROOT
ATOM      1  C   LIG d   1      -7.772  77.383 118.131  0.00  0.00     0.161 C 
ATOM      2  C   LIG d   1      -7.652  76.119 117.530  0.00  0.00     0.016 C 
ATOM      3  C   LIG d   1      -8.713  75.187 117.458  0.00  0.00     0.038 C 
ATOM      4  C   LIG d   1     -10.018  75.518 117.851  0.00  0.00     0.028 C 
ATOM      5  C   LIG d   1     -10.071  76.599 118.925  0.00  0.00    -0.047 C 
ATOM      6  C   LIG d   1      -9.218  77.804 118.467  0.00  0.00     0.091 C 
ENDROOT
BRANCH   1   7
ATOM      7  O   LIG d   1      -7.139  78.380 117.305  0.00  0.00    -0.368 OA
BRANCH   7   8
ATOM      8  C   LIG d   1      -5.959  79.012 117.860  0.00  0.00     0.119 C 
BRANCH   8   9
ATOM      9  C   LIG d   1      -6.256  80.519 117.984  0.00  0.00     0.028 C 
ATOM     10  C   LIG d   1      -5.875  81.081 119.364  0.00  0.00     0.006 C 
ENDBRANCH   8   9
BRANCH   8  11
ATOM     11  C   LIG d   1      -4.769  78.910 116.901  0.00  0.00     0.028 C 
ATOM     12  C   LIG d   1      -4.204  77.485 116.801  0.00  0.00     0.006 C 
ENDBRANCH   8  11
ENDBRANCH   7   8
ENDBRANCH   1   7
BRANCH   6  13
ATOM     13  N   LIG d   1      -9.148  78.874 119.497  0.00  0.00    -0.311 N 
ATOM     14  C   LIG d   1      -9.673  80.086 119.332  0.00  0.00     0.210 C 
ATOM     15  C   LIG d   1      -9.470  81.045 120.510  0.00  0.00     0.109 C 
ATOM     16  O   LIG d   1     -10.315  80.449 118.335  0.00  0.00    -0.276 OA
ATOM     17  H   LIG d   1      -8.672  78.654 120.350  0.00  0.00     0.149 HD
ENDBRANCH   6  13
BRANCH   5  18
ATOM     18  N   LIG d   1     -11.489  76.944 119.141  0.00  0.00     0.381 N 
ATOM     19  H   LIG d   1     -11.556  77.823 119.614  0.00  0.00    -0.090 HD
ATOM     20  H   LIG d   1     -11.910  76.240 119.723  0.00  0.00    -0.090 HD
ATOM     21  H   LIG d   1     -11.966  76.991 118.267  0.00  0.00    -0.090 HD
ENDBRANCH   5  18
BRANCH   3  22
ATOM     22  C   LIG d   1      -8.463  73.894 117.024  0.00  0.00     0.382 C 
ATOM     23  O   LIG d   1      -9.387  73.045 117.020  0.00  0.00    -0.241 OA
ATOM     24  O   LIG d   1      -7.316  73.554 116.679  0.00  0.00    -0.241 OA
ENDBRANCH   3  22
TORSDOF 7
ENDMDL
MODEL 2
REMARK VINA RESULT:      -5.4      1.472      2.363
REMARK  7 active torsions:
REMARK  status: ('A' for Active; 'I' for Inactive)
REMARK    1  A    between atoms: C_2  and  C_3 
REMARK    2  A    between atoms: C_3  and  O_6 
REMARK    3  A    between atoms: C_3  and  C_4 
REMARK    4  A    between atoms: C_7  and  O_6 
REMARK    5  A    between atoms: C_9  and  C_10 
REMARK    6  A    between atoms: N_15  and  C_14 
REMARK    7  A    between atoms: N_20  and  C_19 
REMARK       I    between atoms: C_22  and  N_20 
ROOT
ATOM      1  C   LIG d   1      -6.796  77.719 117.639  0.00  0.00     0.161 C 
ATOM      2  C   LIG d   1      -7.171  76.416 117.271  0.00  0.00     0.016 C 
ATOM      3  C   LIG d   1      -8.435  75.858 117.568  0.00  0.00     0.038 C 
ATOM      4  C   LIG d   1      -9.471  76.622 118.125  0.00  0.00     0.028 C 
ATOM      5  C   LIG d   1      -8.975  77.790 118.970  0.00  0.00    -0.047 C 
ATOM      6  C   LIG d   1      -7.951  78.606 118.148  0.00  0.00     0.091 C 
ENDROOT
BRANCH   1   7
ATOM      7  O   LIG d   1      -6.119  78.361 116.540  0.00  0.00    -0.368 OA
BRANCH   7   8
ATOM      8  C   LIG d   1      -4.724  78.691 116.755  0.00  0.00     0.119 C 
BRANCH   8   9
ATOM      9  C   LIG d   1      -3.888  77.813 115.805  0.00  0.00     0.028 C 
ATOM     10  C   LIG d   1      -3.056  76.761 116.558  0.00  0.00     0.006 C 
ENDBRANCH   8   9
BRANCH   8  11
ATOM     11  C   LIG d   1      -4.272  78.306 118.167  0.00  0.00     0.028 C 
ATOM     12  C   LIG d   1      -3.741  79.503 118.971  0.00  0.00     0.006 C 
ENDBRANCH   8  11
ENDBRANCH   7   8
ENDBRANCH   1   7
BRANCH   6  13
ATOM     13  N   LIG d   1      -7.353  79.719 118.930  0.00  0.00    -0.311 N 
ATOM     14  C   LIG d   1      -7.386  80.991 118.538  0.00  0.00     0.210 C 
ATOM     15  C   LIG d   1      -6.693  81.977 119.483  0.00  0.00     0.109 C 
ATOM     16  O   LIG d   1      -7.952  81.401 117.514  0.00  0.00    -0.276 OA
ATOM     17  H   LIG d   1      -6.901  79.480 119.791  0.00  0.00     0.149 HD
ENDBRANCH   6  13
BRANCH   5  18
ATOM     18  N   LIG d   1     -10.154  78.581 119.373  0.00  0.00     0.381 N 
ATOM     19  H   LIG d   1     -10.704  78.059 120.026  0.00  0.00    -0.090 HD
ATOM     20  H   LIG d   1     -10.717  78.762 118.561  0.00  0.00    -0.090 HD
ATOM     21  H   LIG d   1      -9.863  79.440 119.784  0.00  0.00    -0.090 HD
ENDBRANCH   5  18
BRANCH   3  22
ATOM     22  C   LIG d   1      -8.659  74.508 117.345  0.00  0.00     0.382 C 
ATOM     23  O   LIG d   1      -9.798  74.110 116.998  0.00  0.00    -0.241 OA
ATOM     24  O   LIG d   1      -7.750  73.677 117.528  0.00  0.00    -0.241 OA
ENDBRANCH   3  22
TORSDOF 7
ENDMDL
MODEL 3
REMARK VINA RESULT:      -5.0      1.016      1.928
REMARK  7 active torsions:
REMARK  status: ('A' for Active; 'I' for Inactive)
REMARK    1  A    between atoms: C_2  and  C_3 
REMARK    2  A    between atoms: C_3  and  O_6 
REMARK    3  A    between atoms: C_3  and  C_4 
REMARK    4  A    between atoms: C_7  and  O_6 
REMARK    5  A    between atoms: C_9  and  C_10 
REMARK    6  A    between atoms: N_15  and  C_14 
REMARK    7  A    between atoms: N_20  and  C_19 
REMARK       I    between atoms: C_22  and  N_20 
ROOT
ATOM      1  C   LIG d   1      -7.797  77.988 118.427  0.00  0.00     0.161 C 
ATOM      2  C   LIG d   1      -7.582  76.809 117.693  0.00  0.00     0.016 C 
ATOM      3  C   LIG d   1      -8.545  75.780 117.574  0.00  0.00     0.038 C 
ATOM      4  C   LIG d   1      -9.853  75.929 118.059  0.00  0.00     0.028 C 
ATOM      5  C   LIG d   1      -9.955  76.888 119.240  0.00  0.00    -0.047 C 
ATOM      6  C   LIG d   1      -9.257  78.216 118.870  0.00  0.00     0.091 C 
ENDROOT
BRANCH   1   7
ATOM      7  O   LIG d   1      -7.316  79.123 117.680  0.00  0.00    -0.368 OA
BRANCH   7   8
ATOM      8  C   LIG d   1      -6.130  79.772 118.201  0.00  0.00     0.119 C 
BRANCH   8   9
ATOM      9  C   LIG d   1      -5.633  78.938 119.398  0.00  0.00     0.028 C 
ATOM     10  C   LIG d   1      -4.150  78.555 119.271  0.00  0.00     0.006 C 
ENDBRANCH   8   9
BRANCH   8  11
ATOM     11  C   LIG d   1      -6.458  81.153 118.776  0.00  0.00     0.028 C 
ATOM     12  C   LIG d   1      -7.470  81.930 117.920  0.00  0.00     0.006 C 
ENDBRANCH   8  11
ENDBRANCH   7   8
ENDBRANCH   1   7
BRANCH   6  13
ATOM     13  N   LIG d   1      -9.238  79.181 120.001  0.00  0.00    -0.311 N 
ATOM     14  C   LIG d   1      -9.871  80.352 119.976  0.00  0.00     0.210 C 
ATOM     15  C   LIG d   1      -9.706  81.204 121.238  0.00  0.00     0.109 C 
ATOM     16  O   LIG d   1     -10.581  80.753 119.041  0.00  0.00    -0.276 OA
ATOM     17  H   LIG d   1      -8.712  78.922 120.812  0.00  0.00     0.149 HD
ENDBRANCH   6  13
BRANCH   5  18
ATOM     18  N   LIG d   1     -11.387  77.055 119.555  0.00  0.00     0.381 N 
ATOM     19  H   LIG d   1     -11.633  76.474 120.331  0.00  0.00    -0.090 HD
ATOM     20  H   LIG d   1     -11.930  76.768 118.760  0.00  0.00    -0.090 HD
ATOM     21  H   LIG d   1     -11.579  78.009 119.771  0.00  0.00    -0.090 HD
ENDBRANCH   5  18
BRANCH   3  22
ATOM     22  C   LIG d   1      -8.189  74.570 116.998  0.00  0.00     0.382 C 
ATOM     23  O   LIG d   1      -7.056  74.432 116.479  0.00  0.00    -0.241 OA
ATOM     24  O   LIG d   1      -9.004  73.629 116.951  0.00  0.00    -0.241 OA
ENDBRANCH   3  22
TORSDOF 7
ENDMDL
MODEL 4
REMARK VINA RESULT:      -4.9     13.469     15.966
REMARK  7 active torsions:
REMARK  status: ('A' for Active; 'I' for Inactive)
REMARK    1  A    between atoms: C_2  and  C_3 
REMARK    2  A    between atoms: C_3  and  O_6 
REMARK    3  A    between atoms: C_3  and  C_4 
REMARK    4  A    between atoms: C_7  and  O_6 
REMARK    5  A    between atoms: C_9  and  C_10 
REMARK    6  A    between atoms: N_15  and  C_14 
REMARK    7  A    between atoms: N_20  and  C_19 
REMARK       I    between atoms: C_22  and  N_20 
ROOT
ATOM      1  C   LIG d   1      -5.269  92.894 118.311  0.00  0.00     0.161 C 
ATOM      2  C   LIG d   1      -5.385  91.734 117.528  0.00  0.00     0.016 C 
ATOM      3  C   LIG d   1      -6.533  91.423 116.763  0.00  0.00     0.038 C 
ATOM      4  C   LIG d   1      -7.590  92.332 116.609  0.00  0.00     0.028 C 
ATOM      5  C   LIG d   1      -7.737  93.295 117.783  0.00  0.00    -0.047 C 
ATOM      6  C   LIG d   1      -6.366  93.951 118.067  0.00  0.00     0.091 C 
ENDROOT
BRANCH   1   7
ATOM      7  O   LIG d   1      -3.963  93.477 118.129  0.00  0.00    -0.368 OA
BRANCH   7   8
ATOM      8  C   LIG d   1      -2.982  93.174 119.151  0.00  0.00     0.119 C 
BRANCH   8   9
ATOM      9  C   LIG d   1      -2.807  94.439 120.015  0.00  0.00     0.028 C 
ATOM     10  C   LIG d   1      -2.897  95.732 119.187  0.00  0.00     0.006 C 
ENDBRANCH   8   9
BRANCH   8  11
ATOM     11  C   LIG d   1      -1.604  92.908 118.539  0.00  0.00     0.028 C 
ATOM     12  C   LIG d   1      -1.637  91.834 117.440  0.00  0.00     0.006 C 
ENDBRANCH   8  11
ENDBRANCH   7   8
ENDBRANCH   1   7
BRANCH   6  13
ATOM     13  N   LIG d   1      -6.402  94.845 119.255  0.00  0.00    -0.311 N 
ATOM     14  C   LIG d   1      -6.660  96.149 119.183  0.00  0.00     0.210 C 
ATOM     15  C   LIG d   1      -6.627  96.889 120.524  0.00  0.00     0.109 C 
ATOM     16  O   LIG d   1      -6.945  96.758 118.140  0.00  0.00    -0.276 OA
ATOM     17  H   LIG d   1      -6.213  94.428 120.145  0.00  0.00     0.149 HD
ENDBRANCH   6  13
BRANCH   5  18
ATOM     18  N   LIG d   1      -8.784  94.272 117.430  0.00  0.00     0.381 N 
ATOM     19  H   LIG d   1      -8.661  94.573 116.483  0.00  0.00    -0.090 HD
ATOM     20  H   LIG d   1      -8.696  95.073 118.029  0.00  0.00    -0.090 HD
ATOM     21  H   LIG d   1      -9.685  93.861 117.541  0.00  0.00    -0.090 HD
ENDBRANCH   5  18
BRANCH   3  22
ATOM     22  C   LIG d   1      -6.648  90.173 116.174  0.00  0.00     0.382 C 
ATOM     23  O   LIG d   1      -7.777  89.640 116.051  0.00  0.00    -0.241 OA
ATOM     24  O   LIG d   1      -5.633  89.552 115.805  0.00  0.00    -0.241 OA
ENDBRANCH   3  22
TORSDOF 7
ENDMDL
MODEL 5
REMARK VINA RESULT:      -4.7      2.170      5.587
REMARK  7 active torsions:
REMARK  status: ('A' for Active; 'I' for Inactive)
REMARK    1  A    between atoms: C_2  and  C_3 
REMARK    2  A    between atoms: C_3  and  O_6 
REMARK    3  A    between atoms: C_3  and  C_4 
REMARK    4  A    between atoms: C_7  and  O_6 
REMARK    5  A    between atoms: C_9  and  C_10 
REMARK    6  A    between atoms: N_15  and  C_14 
REMARK    7  A    between atoms: N_20  and  C_19 
REMARK       I    between atoms: C_22  and  N_20 
ROOT
ATOM      1  C   LIG d   1      -8.782  80.467 118.357  0.00  0.00     0.161 C 
ATOM      2  C   LIG d   1      -8.817  81.775 118.869  0.00  0.00     0.016 C 
ATOM      3  C   LIG d   1      -9.489  82.125 120.062  0.00  0.00     0.038 C 
ATOM      4  C   LIG d   1     -10.048  81.158 120.910  0.00  0.00     0.028 C 
ATOM      5  C   LIG d   1     -10.474  79.887 120.182  0.00  0.00    -0.047 C 
ATOM      6  C   LIG d   1      -9.291  79.379 119.326  0.00  0.00     0.091 C 
ENDROOT
BRANCH   1   7
ATOM      7  O   LIG d   1      -7.448  80.154 117.909  0.00  0.00    -0.368 OA
BRANCH   7   8
ATOM      8  C   LIG d   1      -6.522  79.705 118.928  0.00  0.00     0.119 C 
BRANCH   8   9
ATOM      9  C   LIG d   1      -5.335  80.687 118.941  0.00  0.00     0.028 C 
ATOM     10  C   LIG d   1      -5.404  81.676 120.117  0.00  0.00     0.006 C 
ENDBRANCH   8   9
BRANCH   8  11
ATOM     11  C   LIG d   1      -5.918  78.343 118.572  0.00  0.00     0.028 C 
ATOM     12  C   LIG d   1      -6.234  77.910 117.131  0.00  0.00     0.006 C 
ENDBRANCH   8  11
ENDBRANCH   7   8
ENDBRANCH   1   7
BRANCH   6  13
ATOM     13  N   LIG d   1      -9.649  78.186 118.515  0.00  0.00    -0.311 N 
ATOM     14  C   LIG d   1      -9.399  76.936 118.900  0.00  0.00     0.210 C 
ATOM     15  C   LIG d   1      -9.832  75.854 117.906  0.00  0.00     0.109 C 
ATOM     16  O   LIG d   1      -8.888  76.619 119.985  0.00  0.00    -0.276 OA
ATOM     17  H   LIG d   1     -10.095  78.351 117.634  0.00  0.00     0.149 HD
ENDBRANCH   6  13
BRANCH   5  18
ATOM     18  N   LIG d   1     -10.909  78.914 121.202  0.00  0.00     0.381 N 
ATOM     19  H   LIG d   1     -11.334  78.125 120.757  0.00  0.00    -0.090 HD
ATOM     20  H   LIG d   1     -11.594  79.349 121.794  0.00  0.00    -0.090 HD
ATOM     21  H   LIG d   1     -10.129  78.617 121.746  0.00  0.00    -0.090 HD
ENDBRANCH   5  18
BRANCH   3  22
ATOM     22  C   LIG d   1      -9.642  83.462 120.398  0.00  0.00     0.382 C 
ATOM     23  O   LIG d   1      -8.870  83.991 121.233  0.00  0.00    -0.241 OA
ATOM     24  O   LIG d   1     -10.570  84.134 119.909  0.00  0.00    -0.241 OA
ENDBRANCH   3  22
TORSDOF 7
ENDMDL
MODEL 6
REMARK VINA RESULT:      -4.6     11.471     13.952
REMARK  7 active torsions:
REMARK  status: ('A' for Active; 'I' for Inactive)
REMARK    1  A    between atoms: C_2  and  C_3 
REMARK    2  A    between atoms: C_3  and  O_6 
REMARK    3  A    between atoms: C_3  and  C_4 
REMARK    4  A    between atoms: C_7  and  O_6 
REMARK    5  A    between atoms: C_9  and  C_10 
REMARK    6  A    between atoms: N_15  and  C_14 
REMARK    7  A    between atoms: N_20  and  C_19 
REMARK       I    between atoms: C_22  and  N_20 
ROOT
ATOM      1  C   LIG d   1     -13.910  66.471 118.841  0.00  0.00     0.161 C 
ATOM      2  C   LIG d   1     -15.056  66.393 118.032  0.00  0.00     0.016 C 
ATOM      3  C   LIG d   1     -15.852  65.230 117.922  0.00  0.00     0.038 C 
ATOM      4  C   LIG d   1     -15.641  64.106 118.735  0.00  0.00     0.028 C 
ATOM      5  C   LIG d   1     -14.195  63.957 119.197  0.00  0.00    -0.047 C 
ATOM      6  C   LIG d   1     -13.727  65.292 119.820  0.00  0.00     0.091 C 
ENDROOT
BRANCH   1   7
ATOM      7  O   LIG d   1     -13.901  67.722 119.556  0.00  0.00    -0.368 OA
BRANCH   7   8
ATOM      8  C   LIG d   1     -14.735  67.786 120.739  0.00  0.00     0.119 C 
BRANCH   8   9
ATOM      9  C   LIG d   1     -15.822  68.848 120.483  0.00  0.00     0.028 C 
ATOM     10  C   LIG d   1     -17.226  68.233 120.361  0.00  0.00     0.006 C 
ENDBRANCH   8   9
BRANCH   8  11
ATOM     11  C   LIG d   1     -13.947  68.295 121.950  0.00  0.00     0.028 C 
ATOM     12  C   LIG d   1     -12.495  68.661 121.605  0.00  0.00     0.006 C 
ENDBRANCH   8  11
ENDBRANCH   7   8
ENDBRANCH   1   7
BRANCH   6  13
ATOM     13  N   LIG d   1     -12.297  65.259 120.222  0.00  0.00    -0.311 N 
ATOM     14  C   LIG d   1     -11.887  64.932 121.446  0.00  0.00     0.210 C 
ATOM     15  C   LIG d   1     -10.370  64.981 121.655  0.00  0.00     0.109 C 
ATOM     16  O   LIG d   1     -12.634  64.575 122.370  0.00  0.00    -0.276 OA
ATOM     17  H   LIG d   1     -11.621  65.505 119.525  0.00  0.00     0.149 HD
ENDBRANCH   6  13
BRANCH   5  18
ATOM     18  N   LIG d   1     -14.145  62.828 120.145  0.00  0.00     0.381 N 
ATOM     19  H   LIG d   1     -14.646  62.048 119.769  0.00  0.00    -0.090 HD
ATOM     20  H   LIG d   1     -14.590  63.104 121.003  0.00  0.00    -0.090 HD
ATOM     21  H   LIG d   1     -13.199  62.572 120.320  0.00  0.00    -0.090 HD
ENDBRANCH   5  18
BRANCH   3  22
ATOM     22  C   LIG d   1     -16.850  65.169 116.961  0.00  0.00     0.382 C 
ATOM     23  O   LIG d   1     -17.551  66.182 116.719  0.00  0.00    -0.241 OA
ATOM     24  O   LIG d   1     -17.088  64.102 116.364  0.00  0.00    -0.241 OA
ENDBRANCH   3  22
TORSDOF 7
ENDMDL
MODEL 7
REMARK VINA RESULT:      -4.5      2.530      3.974
REMARK  7 active torsions:
REMARK  status: ('A' for Active; 'I' for Inactive)
REMARK    1  A    between atoms: C_2  and  C_3 
REMARK    2  A    between atoms: C_3  and  O_6 
REMARK    3  A    between atoms: C_3  and  C_4 
REMARK    4  A    between atoms: C_7  and  O_6 
REMARK    5  A    between atoms: C_9  and  C_10 
REMARK    6  A    between atoms: N_15  and  C_14 
REMARK    7  A    between atoms: N_20  and  C_19 
REMARK       I    between atoms: C_22  and  N_20 
ROOT
ATOM      1  C   LIG d   1      -7.049  79.563 118.370  0.00  0.00     0.161 C 
ATOM      2  C   LIG d   1      -5.948  79.333 117.528  0.00  0.00     0.016 C 
ATOM      3  C   LIG d   1      -5.692  78.090 116.904  0.00  0.00     0.038 C 
ATOM      4  C   LIG d   1      -6.608  77.029 116.960  0.00  0.00     0.028 C 
ATOM      5  C   LIG d   1      -7.482  77.050 118.210  0.00  0.00    -0.047 C 
ATOM      6  C   LIG d   1      -8.118  78.451 118.355  0.00  0.00     0.091 C 
ENDROOT
BRANCH   1   7
ATOM      7  O   LIG d   1      -7.646  80.837 118.058  0.00  0.00    -0.368 OA
BRANCH   7   8
ATOM      8  C   LIG d   1      -7.076  81.989 118.727  0.00  0.00     0.119 C 
BRANCH   8   9
ATOM      9  C   LIG d   1      -6.605  81.529 120.120  0.00  0.00     0.028 C 
ATOM     10  C   LIG d   1      -5.281  82.188 120.539  0.00  0.00     0.006 C 
ENDBRANCH   8   9
BRANCH   8  11
ATOM     11  C   LIG d   1      -8.138  83.060 118.992  0.00  0.00     0.028 C 
ATOM     12  C   LIG d   1      -9.001  82.753 120.225  0.00  0.00     0.006 C 
ENDBRANCH   8  11
ENDBRANCH   7   8
ENDBRANCH   1   7
BRANCH   6  13
ATOM     13  N   LIG d   1      -8.922  78.583 119.598  0.00  0.00    -0.311 N 
ATOM     14  C   LIG d   1     -10.042  79.299 119.674  0.00  0.00     0.210 C 
ATOM     15  C   LIG d   1     -10.705  79.319 121.055  0.00  0.00     0.109 C 
ATOM     16  O   LIG d   1     -10.567  79.895 118.721  0.00  0.00    -0.276 OA
ATOM     17  H   LIG d   1      -8.585  78.106 120.412  0.00  0.00     0.149 HD
ENDBRANCH   6  13
BRANCH   5  18
ATOM     18  N   LIG d   1      -8.480  75.972 118.073  0.00  0.00     0.381 N 
ATOM     19  H   LIG d   1      -8.136  75.269 117.451  0.00  0.00    -0.090 HD
ATOM     20  H   LIG d   1      -9.322  76.357 117.680  0.00  0.00    -0.090 HD
ATOM     21  H   LIG d   1      -8.674  75.572 118.965  0.00  0.00    -0.090 HD
ENDBRANCH   5  18
BRANCH   3  22
ATOM     22  C   LIG d   1      -4.488  77.887 116.246  0.00  0.00     0.382 C 
ATOM     23  O   LIG d   1      -4.025  76.726 116.132  0.00  0.00    -0.241 OA
ATOM     24  O   LIG d   1      -3.838  78.853 115.805  0.00  0.00    -0.241 OA
ENDBRANCH   3  22
TORSDOF 7
ENDMDL
MODEL 8
REMARK VINA RESULT:      -4.4      2.205      3.280
REMARK  7 active torsions:
REMARK  status: ('A' for Active; 'I' for Inactive)
REMARK    1  A    between atoms: C_2  and  C_3 
REMARK    2  A    between atoms: C_3  and  O_6 
REMARK    3  A    between atoms: C_3  and  C_4 
REMARK    4  A    between atoms: C_7  and  O_6 
REMARK    5  A    between atoms: C_9  and  C_10 
REMARK    6  A    between atoms: N_15  and  C_14 
REMARK    7  A    between atoms: N_20  and  C_19 
REMARK       I    between atoms: C_22  and  N_20 
ROOT
ATOM      1  C   LIG d   1      -7.501  79.446 118.762  0.00  0.00     0.161 C 
ATOM      2  C   LIG d   1      -8.153  78.273 118.347  0.00  0.00     0.016 C 
ATOM      3  C   LIG d   1      -9.504  77.984 118.649  0.00  0.00     0.038 C 
ATOM      4  C   LIG d   1     -10.343  78.926 119.263  0.00  0.00     0.028 C 
ATOM      5  C   LIG d   1      -9.596  79.919 120.147  0.00  0.00    -0.047 C 
ATOM      6  C   LIG d   1      -8.432  80.534 119.337  0.00  0.00     0.091 C 
ENDROOT
BRANCH   1   7
ATOM      7  O   LIG d   1      -6.717  79.980 117.676  0.00  0.00    -0.368 OA
BRANCH   7   8
ATOM      8  C   LIG d   1      -5.291  79.735 117.740  0.00  0.00     0.119 C 
BRANCH   8   9
ATOM      9  C   LIG d   1      -5.066  78.235 117.472  0.00  0.00     0.028 C 
ATOM     10  C   LIG d   1      -4.333  77.979 116.144  0.00  0.00     0.006 C 
ENDBRANCH   8   9
BRANCH   8  11
ATOM     11  C   LIG d   1      -4.746  79.981 119.150  0.00  0.00     0.028 C 
ATOM     12  C   LIG d   1      -4.049  78.746 119.744  0.00  0.00     0.006 C 
ENDBRANCH   8  11
ENDBRANCH   7   8
ENDBRANCH   1   7
BRANCH   6  13
ATOM     13  N   LIG d   1      -7.598  81.454 120.153  0.00  0.00    -0.311 N 
ATOM     14  C   LIG d   1      -7.465  82.753 119.888  0.00  0.00     0.210 C 
ATOM     15  C   LIG d   1      -6.542  83.516 120.843  0.00  0.00     0.109 C 
ATOM     16  O   LIG d   1      -8.049  83.351 118.973  0.00  0.00    -0.276 OA
ATOM     17  H   LIG d   1      -7.113  81.058 120.934  0.00  0.00     0.149 HD
ENDBRANCH   6  13
BRANCH   5  18
ATOM     18  N   LIG d   1     -10.571  80.923 120.612  0.00  0.00     0.381 N 
ATOM     19  H   LIG d   1     -10.096  81.652 121.107  0.00  0.00    -0.090 HD
ATOM     20  H   LIG d   1     -11.216  80.481 121.244  0.00  0.00    -0.090 HD
ATOM     21  H   LIG d   1     -11.064  81.305 119.836  0.00  0.00    -0.090 HD
ENDBRANCH   5  18
BRANCH   3  22
ATOM     22  C   LIG d   1     -10.017  76.726 118.372  0.00  0.00     0.382 C 
ATOM     23  O   LIG d   1     -11.258  76.554 118.317  0.00  0.00    -0.241 OA
ATOM     24  O   LIG d   1      -9.254  75.753 118.221  0.00  0.00    -0.241 OA
ENDBRANCH   3  22
TORSDOF 7
ENDMDL
MODEL 9
REMARK VINA RESULT:      -4.4     11.805     14.677
REMARK  7 active torsions:
REMARK  status: ('A' for Active; 'I' for Inactive)
REMARK    1  A    between atoms: C_2  and  C_3 
REMARK    2  A    between atoms: C_3  and  O_6 
REMARK    3  A    between atoms: C_3  and  C_4 
REMARK    4  A    between atoms: C_7  and  O_6 
REMARK    5  A    between atoms: C_9  and  C_10 
REMARK    6  A    between atoms: N_15  and  C_14 
REMARK    7  A    between atoms: N_20  and  C_19 
REMARK       I    between atoms: C_22  and  N_20 
ROOT
ATOM      1  C   LIG d   1     -15.041  66.232 117.951  0.00  0.00     0.161 C 
ATOM      2  C   LIG d   1     -13.982  66.420 118.854  0.00  0.00     0.016 C 
ATOM      3  C   LIG d   1     -14.066  67.260 119.989  0.00  0.00     0.038 C 
ATOM      4  C   LIG d   1     -15.274  67.855 120.382  0.00  0.00     0.028 C 
ATOM      5  C   LIG d   1     -16.236  68.098 119.224  0.00  0.00    -0.047 C 
ATOM      6  C   LIG d   1     -16.401  66.785 118.425  0.00  0.00     0.091 C 
ENDROOT
BRANCH   1   7
ATOM      7  O   LIG d   1     -15.156  64.834 117.619  0.00  0.00    -0.368 OA
BRANCH   7   8
ATOM      8  C   LIG d   1     -15.783  63.991 118.617  0.00  0.00     0.119 C 
BRANCH   8   9
ATOM      9  C   LIG d   1     -14.724  62.980 119.099  0.00  0.00     0.028 C 
ATOM     10  C   LIG d   1     -14.480  63.065 120.615  0.00  0.00     0.006 C 
ENDBRANCH   8   9
BRANCH   8  11
ATOM     11  C   LIG d   1     -16.904  63.144 118.007  0.00  0.00     0.028 C 
ATOM     12  C   LIG d   1     -16.946  63.226 116.473  0.00  0.00     0.006 C 
ENDBRANCH   8  11
ENDBRANCH   7   8
ENDBRANCH   1   7
BRANCH   6  13
ATOM     13  N   LIG d   1     -17.260  66.956 117.225  0.00  0.00    -0.311 N 
ATOM     14  C   LIG d   1     -18.504  66.487 117.140  0.00  0.00     0.210 C 
ATOM     15  C   LIG d   1     -19.207  66.755 115.806  0.00  0.00     0.109 C 
ATOM     16  O   LIG d   1     -19.103  65.902 118.055  0.00  0.00    -0.276 OA
ATOM     17  H   LIG d   1     -16.864  67.446 116.447  0.00  0.00     0.149 HD
ENDBRANCH   6  13
BRANCH   5  18
ATOM     18  N   LIG d   1     -17.504  68.592 119.793  0.00  0.00     0.381 N 
ATOM     19  H   LIG d   1     -18.190  68.675 119.070  0.00  0.00    -0.090 HD
ATOM     20  H   LIG d   1     -17.350  69.503 120.188  0.00  0.00    -0.090 HD
ATOM     21  H   LIG d   1     -17.828  67.967 120.498  0.00  0.00    -0.090 HD
ENDBRANCH   5  18
BRANCH   3  22
ATOM     22  C   LIG d   1     -12.923  67.545 120.720  0.00  0.00     0.382 C 
ATOM     23  O   LIG d   1     -12.588  68.737 120.922  0.00  0.00    -0.241 OA
ATOM     24  O   LIG d   1     -12.199  66.624 121.143  0.00  0.00    -0.241 OA
ENDBRANCH   3  22
TORSDOF 7
ENDMDL
