MODEL 1
REMARK VINA RESULT:      -5.5      0.000      0.000
REMARK  7 active torsions:
REMARK  status: ('A' for Active; 'I' for Inactive)
REMARK    1  A    between atoms: C_2  and  C_3 
REMARK    2  A    between atoms: C_3  and  O_6 
REMARK    3  A    between atoms: C_3  and  C_4 
REMARK    4  A    between atoms: C_7  and  O_6 
REMARK    5  A    between atoms: C_9  and  C_10 
REMARK    6  A    between atoms: N_15  and  C_14 
REMARK    7  A    between atoms: N_20  and  C_19 
REMARK       I    between atoms: C_22  and  N_20 
ROOT
ATOM      1  C   LIG d   1      -7.042  76.166 116.584  0.00  0.00     0.161 C 
ATOM      2  C   LIG d   1      -5.766  75.719 116.204  0.00  0.00     0.016 C 
ATOM      3  C   LIG d   1      -4.606  75.919 116.987  0.00  0.00     0.038 C 
ATOM      4  C   LIG d   1      -4.670  76.451 118.284  0.00  0.00     0.028 C 
ATOM      5  C   LIG d   1      -5.863  77.375 118.502  0.00  0.00    -0.047 C 
ATOM      6  C   LIG d   1      -7.149  76.649 118.046  0.00  0.00     0.091 C 
ENDROOT
BRANCH   1   7
ATOM      7  O   LIG d   1      -8.018  75.137 116.324  0.00  0.00    -0.368 OA
BRANCH   7   8
ATOM      8  C   LIG d   1      -8.028  74.020 117.246  0.00  0.00     0.119 C 
BRANCH   8   9
ATOM      9  C   LIG d   1      -7.423  72.808 116.512  0.00  0.00     0.028 C 
ATOM     10  C   LIG d   1      -8.201  71.509 116.784  0.00  0.00     0.006 C 
ENDBRANCH   8   9
BRANCH   8  11
ATOM     11  C   LIG d   1      -9.458  73.605 117.603  0.00  0.00     0.028 C 
ATOM     12  C   LIG d   1     -10.482  74.725 117.359  0.00  0.00     0.006 C 
ENDBRANCH   8  11
ENDBRANCH   7   8
ENDBRANCH   1   7
BRANCH   6  13
ATOM     13  N   LIG d   1      -8.354  77.514 118.147  0.00  0.00    -0.311 N 
ATOM     14  C   LIG d   1      -9.108  77.596 119.242  0.00  0.00     0.210 C 
ATOM     15  C   LIG d   1     -10.315  78.531 119.127  0.00  0.00     0.109 C 
ATOM     16  O   LIG d   1      -8.873  77.008 120.308  0.00  0.00    -0.276 OA
ATOM     17  H   LIG d   1      -8.600  78.050 117.338  0.00  0.00     0.149 HD
ENDBRANCH   6  13
BRANCH   5  18
ATOM     18  N   LIG d   1      -5.884  77.746 119.930  0.00  0.00     0.381 N 
ATOM     19  H   LIG d   1      -5.129  77.296 120.408  0.00  0.00    -0.090 HD
ATOM     20  H   LIG d   1      -6.747  77.430 120.335  0.00  0.00    -0.090 HD
ATOM     21  H   LIG d   1      -5.806  78.735 120.026  0.00  0.00    -0.090 HD
ENDBRANCH   5  18
BRANCH   3  22
ATOM     22  C   LIG d   1      -3.359  75.622 116.458  0.00  0.00     0.382 C 
ATOM     23  O   LIG d   1      -2.732  76.491 115.805  0.00  0.00    -0.241 OA
ATOM     24  O   LIG d   1      -2.874  74.483 116.586  0.00  0.00    -0.241 OA
ENDBRANCH   3  22
TORSDOF 7
ENDMDL
MODEL 2
REMARK VINA RESULT:      -5.4      2.261      4.735
REMARK  7 active torsions:
REMARK  status: ('A' for Active; 'I' for Inactive)
REMARK    1  A    between atoms: C_2  and  C_3 
REMARK    2  A    between atoms: C_3  and  O_6 
REMARK    3  A    between atoms: C_3  and  C_4 
REMARK    4  A    between atoms: C_7  and  O_6 
REMARK    5  A    between atoms: C_9  and  C_10 
REMARK    6  A    between atoms: N_15  and  C_14 
REMARK    7  A    between atoms: N_20  and  C_19 
REMARK       I    between atoms: C_22  and  N_20 
ROOT
ATOM      1  C   LIG d   1      -6.690  76.921 117.410  0.00  0.00     0.161 C 
ATOM      2  C   LIG d   1      -6.886  75.582 117.031  0.00  0.00     0.016 C 
ATOM      3  C   LIG d   1      -8.105  74.891 117.217  0.00  0.00     0.038 C 
ATOM      4  C   LIG d   1      -9.266  75.541 117.661  0.00  0.00     0.028 C 
ATOM      5  C   LIG d   1      -8.981  76.761 118.530  0.00  0.00    -0.047 C 
ATOM      6  C   LIG d   1      -7.978  77.679 117.795  0.00  0.00     0.091 C 
ENDROOT
BRANCH   1   7
ATOM      7  O   LIG d   1      -5.985  77.626 116.370  0.00  0.00    -0.368 OA
BRANCH   7   8
ATOM      8  C   LIG d   1      -4.604  77.962 116.650  0.00  0.00     0.119 C 
BRANCH   8   9
ATOM      9  C   LIG d   1      -3.719  77.026 115.805  0.00  0.00     0.028 C 
ATOM     10  C   LIG d   1      -3.206  75.819 116.609  0.00  0.00     0.006 C 
ENDBRANCH   8   9
BRANCH   8  11
ATOM     11  C   LIG d   1      -4.241  77.658 118.107  0.00  0.00     0.028 C 
ATOM     12  C   LIG d   1      -3.978  78.927 118.933  0.00  0.00     0.006 C 
ENDBRANCH   8  11
ENDBRANCH   7   8
ENDBRANCH   1   7
BRANCH   6  13
ATOM     13  N   LIG d   1      -7.581  78.855 118.612  0.00  0.00    -0.311 N 
ATOM     14  C   LIG d   1      -7.546  80.099 118.137  0.00  0.00     0.210 C 
ATOM     15  C   LIG d   1      -7.089  81.161 119.142  0.00  0.00     0.109 C 
ATOM     16  O   LIG d   1      -7.881  80.428 116.989  0.00  0.00    -0.276 OA
ATOM     17  H   LIG d   1      -7.324  78.683 119.564  0.00  0.00     0.149 HD
ENDBRANCH   6  13
BRANCH   5  18
ATOM     18  N   LIG d   1     -10.271  77.421 118.808  0.00  0.00     0.381 N 
ATOM     19  H   LIG d   1     -10.979  77.048 118.207  0.00  0.00    -0.090 HD
ATOM     20  H   LIG d   1     -10.181  78.403 118.619  0.00  0.00    -0.090 HD
ATOM     21  H   LIG d   1     -10.528  77.280 119.761  0.00  0.00    -0.090 HD
ENDBRANCH   5  18
BRANCH   3  22
ATOM     22  C   LIG d   1      -8.160  73.523 116.995  0.00  0.00     0.382 C 
ATOM     23  O   LIG d   1      -7.198  72.939 116.440  0.00  0.00    -0.241 OA
ATOM     24  O   LIG d   1      -9.177  72.873 117.303  0.00  0.00    -0.241 OA
ENDBRANCH   3  22
TORSDOF 7
ENDMDL
MODEL 3
REMARK VINA RESULT:      -5.3     15.639     17.846
REMARK  7 active torsions:
REMARK  status: ('A' for Active; 'I' for Inactive)
REMARK    1  A    between atoms: C_2  and  C_3 
REMARK    2  A    between atoms: C_3  and  O_6 
REMARK    3  A    between atoms: C_3  and  C_4 
REMARK    4  A    between atoms: C_7  and  O_6 
REMARK    5  A    between atoms: C_9  and  C_10 
REMARK    6  A    between atoms: N_15  and  C_14 
REMARK    7  A    between atoms: N_20  and  C_19 
REMARK       I    between atoms: C_22  and  N_20 
ROOT
ATOM      1  C   LIG d   1      -6.240  92.787 118.173  0.00  0.00     0.161 C 
ATOM      2  C   LIG d   1      -6.702  91.597 117.586  0.00  0.00     0.016 C 
ATOM      3  C   LIG d   1      -5.860  90.684 116.911  0.00  0.00     0.038 C 
ATOM      4  C   LIG d   1      -4.465  90.826 116.907  0.00  0.00     0.028 C 
ATOM      5  C   LIG d   1      -4.002  92.271 117.052  0.00  0.00    -0.047 C 
ATOM      6  C   LIG d   1      -4.705  92.903 118.276  0.00  0.00     0.091 C 
ENDROOT
BRANCH   1   7
ATOM      7  O   LIG d   1      -6.843  92.958 119.470  0.00  0.00    -0.368 OA
BRANCH   7   8
ATOM      8  C   LIG d   1      -7.772  94.063 119.601  0.00  0.00     0.119 C 
BRANCH   8   9
ATOM      9  C   LIG d   1      -7.943  94.691 118.204  0.00  0.00     0.028 C 
ATOM     10  C   LIG d   1      -7.586  96.187 118.185  0.00  0.00     0.006 C 
ENDBRANCH   8   9
BRANCH   8  11
ATOM     11  C   LIG d   1      -7.193  95.177 120.478  0.00  0.00     0.028 C 
ATOM     12  C   LIG d   1      -6.336  94.640 121.635  0.00  0.00     0.006 C 
ENDBRANCH   8  11
ENDBRANCH   7   8
ENDBRANCH   1   7
BRANCH   6  13
ATOM     13  N   LIG d   1      -4.372  94.342 118.440  0.00  0.00    -0.311 N 
ATOM     14  C   LIG d   1      -3.399  94.784 119.234  0.00  0.00     0.210 C 
ATOM     15  C   LIG d   1      -3.237  96.307 119.273  0.00  0.00     0.109 C 
ATOM     16  O   LIG d   1      -2.633  94.057 119.886  0.00  0.00    -0.276 OA
ATOM     17  H   LIG d   1      -4.924  94.999 117.924  0.00  0.00     0.149 HD
ENDBRANCH   6  13
BRANCH   5  18
ATOM     18  N   LIG d   1      -2.532  92.259 117.172  0.00  0.00     0.381 N 
ATOM     19  H   LIG d   1      -2.192  93.195 117.271  0.00  0.00    -0.090 HD
ATOM     20  H   LIG d   1      -2.140  91.868 116.333  0.00  0.00    -0.090 HD
ATOM     21  H   LIG d   1      -2.259  91.714 117.960  0.00  0.00    -0.090 HD
ENDBRANCH   5  18
BRANCH   3  22
ATOM     22  C   LIG d   1      -6.418  89.636 116.195  0.00  0.00     0.382 C 
ATOM     23  O   LIG d   1      -5.694  88.687 115.806  0.00  0.00    -0.241 OA
ATOM     24  O   LIG d   1      -7.626  89.648 115.894  0.00  0.00    -0.241 OA
ENDBRANCH   3  22
TORSDOF 7
ENDMDL
MODEL 4
REMARK VINA RESULT:      -5.1      2.365      4.785
REMARK  7 active torsions:
REMARK  status: ('A' for Active; 'I' for Inactive)
REMARK    1  A    between atoms: C_2  and  C_3 
REMARK    2  A    between atoms: C_3  and  O_6 
REMARK    3  A    between atoms: C_3  and  C_4 
REMARK    4  A    between atoms: C_7  and  O_6 
REMARK    5  A    between atoms: C_9  and  C_10 
REMARK    6  A    between atoms: N_15  and  C_14 
REMARK    7  A    between atoms: N_20  and  C_19 
REMARK       I    between atoms: C_22  and  N_20 
ROOT
ATOM      1  C   LIG d   1      -7.769  77.121 118.390  0.00  0.00     0.161 C 
ATOM      2  C   LIG d   1      -6.939  76.286 117.625  0.00  0.00     0.016 C 
ATOM      3  C   LIG d   1      -7.413  75.168 116.901  0.00  0.00     0.038 C 
ATOM      4  C   LIG d   1      -8.783  74.896 116.771  0.00  0.00     0.028 C 
ATOM      5  C   LIG d   1      -9.617  75.416 117.938  0.00  0.00    -0.047 C 
ATOM      6  C   LIG d   1      -9.282  76.906 118.170  0.00  0.00     0.091 C 
ENDROOT
BRANCH   1   7
ATOM      7  O   LIG d   1      -7.421  78.501 118.160  0.00  0.00    -0.368 OA
BRANCH   7   8
ATOM      8  C   LIG d   1      -6.543  79.109 119.139  0.00  0.00     0.119 C 
BRANCH   8   9
ATOM      9  C   LIG d   1      -6.817  78.426 120.493  0.00  0.00     0.028 C 
ATOM     10  C   LIG d   1      -7.512  79.365 121.493  0.00  0.00     0.006 C 
ENDBRANCH   8   9
BRANCH   8  11
ATOM     11  C   LIG d   1      -6.885  80.586 119.353  0.00  0.00     0.028 C 
ATOM     12  C   LIG d   1      -7.695  81.184 118.192  0.00  0.00     0.006 C 
ENDBRANCH   8  11
ENDBRANCH   7   8
ENDBRANCH   1   7
BRANCH   6  13
ATOM     13  N   LIG d   1      -9.992  77.471 119.348  0.00  0.00    -0.311 N 
ATOM     14  C   LIG d   1     -10.573  78.669 119.348  0.00  0.00     0.210 C 
ATOM     15  C   LIG d   1     -11.233  79.067 120.672  0.00  0.00     0.109 C 
ATOM     16  O   LIG d   1     -10.632  79.427 118.368  0.00  0.00    -0.276 OA
ATOM     17  H   LIG d   1     -10.019  76.909 120.176  0.00  0.00     0.149 HD
ENDBRANCH   6  13
BRANCH   5  18
ATOM     18  N   LIG d   1     -11.037  75.187 117.607  0.00  0.00     0.381 N 
ATOM     19  H   LIG d   1     -11.518  76.063 117.559  0.00  0.00    -0.090 HD
ATOM     20  H   LIG d   1     -11.456  74.637 118.336  0.00  0.00    -0.090 HD
ATOM     21  H   LIG d   1     -11.111  74.710 116.736  0.00  0.00    -0.090 HD
ENDBRANCH   5  18
BRANCH   3  22
ATOM     22  C   LIG d   1      -6.510  74.284 116.331  0.00  0.00     0.382 C 
ATOM     23  O   LIG d   1      -6.817  73.076 116.192  0.00  0.00    -0.241 OA
ATOM     24  O   LIG d   1      -5.374  74.671 115.995  0.00  0.00    -0.241 OA
ENDBRANCH   3  22
TORSDOF 7
ENDMDL
MODEL 5
REMARK VINA RESULT:      -5.1     15.831     18.001
REMARK  7 active torsions:
REMARK  status: ('A' for Active; 'I' for Inactive)
REMARK    1  A    between atoms: C_2  and  C_3 
REMARK    2  A    between atoms: C_3  and  O_6 
REMARK    3  A    between atoms: C_3  and  C_4 
REMARK    4  A    between atoms: C_7  and  O_6 
REMARK    5  A    between atoms: C_9  and  C_10 
REMARK    6  A    between atoms: N_15  and  C_14 
REMARK    7  A    between atoms: N_20  and  C_19 
REMARK       I    between atoms: C_22  and  N_20 
ROOT
ATOM      1  C   LIG d   1      -4.890  92.823 117.940  0.00  0.00     0.161 C 
ATOM      2  C   LIG d   1      -6.126  93.450 117.707  0.00  0.00     0.016 C 
ATOM      3  C   LIG d   1      -6.463  94.721 118.227  0.00  0.00     0.038 C 
ATOM      4  C   LIG d   1      -5.525  95.522 118.894  0.00  0.00     0.028 C 
ATOM      5  C   LIG d   1      -4.427  94.721 119.587  0.00  0.00    -0.047 C 
ATOM      6  C   LIG d   1      -3.813  93.729 118.572  0.00  0.00     0.091 C 
ENDROOT
BRANCH   1   7
ATOM      7  O   LIG d   1      -4.400  92.241 116.715  0.00  0.00    -0.368 OA
BRANCH   7   8
ATOM      8  C   LIG d   1      -4.494  90.799 116.612  0.00  0.00     0.119 C 
BRANCH   8   9
ATOM      9  C   LIG d   1      -5.768  90.474 115.808  0.00  0.00     0.028 C 
ATOM     10  C   LIG d   1      -6.834  89.764 116.659  0.00  0.00     0.006 C 
ENDBRANCH   8   9
BRANCH   8  11
ATOM     11  C   LIG d   1      -4.706  90.155 117.986  0.00  0.00     0.028 C 
ATOM     12  C   LIG d   1      -3.504  89.313 118.441  0.00  0.00     0.006 C 
ENDBRANCH   8  11
ENDBRANCH   7   8
ENDBRANCH   1   7
BRANCH   6  13
ATOM     13  N   LIG d   1      -2.789  92.848 119.189  0.00  0.00    -0.311 N 
ATOM     14  C   LIG d   1      -1.585  92.640 118.659  0.00  0.00     0.210 C 
ATOM     15  C   LIG d   1      -0.689  91.679 119.447  0.00  0.00     0.109 C 
ATOM     16  O   LIG d   1      -1.162  93.185 117.629  0.00  0.00    -0.276 OA
ATOM     17  H   LIG d   1      -3.037  92.389 120.044  0.00  0.00     0.149 HD
ENDBRANCH   6  13
BRANCH   5  18
ATOM     18  N   LIG d   1      -3.445  95.682 120.123  0.00  0.00     0.381 N 
ATOM     19  H   LIG d   1      -2.627  95.194 120.430  0.00  0.00    -0.090 HD
ATOM     20  H   LIG d   1      -3.848  96.151 120.915  0.00  0.00    -0.090 HD
ATOM     21  H   LIG d   1      -3.201  96.347 119.422  0.00  0.00    -0.090 HD
ENDBRANCH   5  18
BRANCH   3  22
ATOM     22  C   LIG d   1      -7.765  95.185 118.116  0.00  0.00     0.382 C 
ATOM     23  O   LIG d   1      -7.990  96.419 118.088  0.00  0.00    -0.241 OA
ATOM     24  O   LIG d   1      -8.720  94.386 118.089  0.00  0.00    -0.241 OA
ENDBRANCH   3  22
TORSDOF 7
ENDMDL
MODEL 6
REMARK VINA RESULT:      -4.6      1.865      4.628
REMARK  7 active torsions:
REMARK  status: ('A' for Active; 'I' for Inactive)
REMARK    1  A    between atoms: C_2  and  C_3 
REMARK    2  A    between atoms: C_3  and  O_6 
REMARK    3  A    between atoms: C_3  and  C_4 
REMARK    4  A    between atoms: C_7  and  O_6 
REMARK    5  A    between atoms: C_9  and  C_10 
REMARK    6  A    between atoms: N_15  and  C_14 
REMARK    7  A    between atoms: N_20  and  C_19 
REMARK       I    between atoms: C_22  and  N_20 
ROOT
ATOM      1  C   LIG d   1      -6.862  75.398 117.027  0.00  0.00     0.161 C 
ATOM      2  C   LIG d   1      -7.113  74.034 116.800  0.00  0.00     0.016 C 
ATOM      3  C   LIG d   1      -8.376  73.432 116.998  0.00  0.00     0.038 C 
ATOM      4  C   LIG d   1      -9.520  74.188 117.296  0.00  0.00     0.028 C 
ATOM      5  C   LIG d   1      -9.212  75.490 118.027  0.00  0.00    -0.047 C 
ATOM      6  C   LIG d   1      -8.123  76.260 117.245  0.00  0.00     0.091 C 
ENDROOT
BRANCH   1   7
ATOM      7  O   LIG d   1      -6.068  75.935 115.951  0.00  0.00    -0.368 OA
BRANCH   7   8
ATOM      8  C   LIG d   1      -4.687  76.239 116.268  0.00  0.00     0.119 C 
BRANCH   8   9
ATOM      9  C   LIG d   1      -4.411  75.711 117.689  0.00  0.00     0.028 C 
ATOM     10  C   LIG d   1      -3.259  74.692 117.724  0.00  0.00     0.006 C 
ENDBRANCH   8   9
BRANCH   8  11
ATOM     11  C   LIG d   1      -4.453  77.750 116.345  0.00  0.00     0.028 C 
ATOM     12  C   LIG d   1      -4.148  78.235 117.771  0.00  0.00     0.006 C 
ENDBRANCH   8  11
ENDBRANCH   7   8
ENDBRANCH   1   7
BRANCH   6  13
ATOM     13  N   LIG d   1      -7.702  77.506 117.936  0.00  0.00    -0.311 N 
ATOM     14  C   LIG d   1      -7.701  77.645 119.261  0.00  0.00     0.210 C 
ATOM     15  C   LIG d   1      -7.249  79.018 119.767  0.00  0.00     0.109 C 
ATOM     16  O   LIG d   1      -8.000  76.750 120.066  0.00  0.00    -0.276 OA
ATOM     17  H   LIG d   1      -7.415  78.272 117.360  0.00  0.00     0.149 HD
ENDBRANCH   6  13
BRANCH   5  18
ATOM     18  N   LIG d   1     -10.475  76.241 118.151  0.00  0.00     0.381 N 
ATOM     19  H   LIG d   1     -10.525  76.940 117.437  0.00  0.00    -0.090 HD
ATOM     20  H   LIG d   1     -10.493  76.701 119.044  0.00  0.00    -0.090 HD
ATOM     21  H   LIG d   1     -11.250  75.620 118.074  0.00  0.00    -0.090 HD
ENDBRANCH   5  18
BRANCH   3  22
ATOM     22  C   LIG d   1      -8.496  72.051 116.939  0.00  0.00     0.382 C 
ATOM     23  O   LIG d   1      -7.553  71.359 116.487  0.00  0.00    -0.241 OA
ATOM     24  O   LIG d   1      -9.553  71.494 117.290  0.00  0.00    -0.241 OA
ENDBRANCH   3  22
TORSDOF 7
ENDMDL
MODEL 7
REMARK VINA RESULT:      -4.6     15.114     17.335
REMARK  7 active torsions:
REMARK  status: ('A' for Active; 'I' for Inactive)
REMARK    1  A    between atoms: C_2  and  C_3 
REMARK    2  A    between atoms: C_3  and  O_6 
REMARK    3  A    between atoms: C_3  and  C_4 
REMARK    4  A    between atoms: C_7  and  O_6 
REMARK    5  A    between atoms: C_9  and  C_10 
REMARK    6  A    between atoms: N_15  and  C_14 
REMARK    7  A    between atoms: N_20  and  C_19 
REMARK       I    between atoms: C_22  and  N_20 
ROOT
ATOM      1  C   LIG d   1      -3.724  92.598 117.352  0.00  0.00     0.161 C 
ATOM      2  C   LIG d   1      -4.847  91.865 116.937  0.00  0.00     0.016 C 
ATOM      3  C   LIG d   1      -4.924  90.455 117.001  0.00  0.00     0.038 C 
ATOM      4  C   LIG d   1      -3.933  89.687 117.630  0.00  0.00     0.028 C 
ATOM      5  C   LIG d   1      -2.555  90.340 117.610  0.00  0.00    -0.047 C 
ATOM      6  C   LIG d   1      -2.678  91.785 118.144  0.00  0.00     0.091 C 
ENDROOT
BRANCH   1   7
ATOM      7  O   LIG d   1      -4.144  93.748 118.112  0.00  0.00    -0.368 OA
BRANCH   7   8
ATOM      8  C   LIG d   1      -5.375  93.601 118.863  0.00  0.00     0.119 C 
BRANCH   8   9
ATOM      9  C   LIG d   1      -6.211  94.875 118.636  0.00  0.00     0.028 C 
ATOM     10  C   LIG d   1      -7.551  94.582 117.940  0.00  0.00     0.006 C 
ENDBRANCH   8   9
BRANCH   8  11
ATOM     11  C   LIG d   1      -5.106  93.555 120.370  0.00  0.00     0.028 C 
ATOM     12  C   LIG d   1      -3.785  94.237 120.761  0.00  0.00     0.006 C 
ENDBRANCH   8  11
ENDBRANCH   7   8
ENDBRANCH   1   7
BRANCH   6  13
ATOM     13  N   LIG d   1      -1.390  92.525 118.079  0.00  0.00    -0.311 N 
ATOM     14  C   LIG d   1      -0.546  92.618 119.105  0.00  0.00     0.210 C 
ATOM     15  C   LIG d   1       0.715  93.444 118.832  0.00  0.00     0.109 C 
ATOM     16  O   LIG d   1      -0.707  92.069 120.206  0.00  0.00    -0.276 OA
ATOM     17  H   LIG d   1      -1.166  92.975 117.214  0.00  0.00     0.149 HD
ENDBRANCH   6  13
BRANCH   5  18
ATOM     18  N   LIG d   1      -1.651  89.500 118.417  0.00  0.00     0.381 N 
ATOM     19  H   LIG d   1      -1.885  88.535 118.292  0.00  0.00    -0.090 HD
ATOM     20  H   LIG d   1      -1.773  89.731 119.387  0.00  0.00    -0.090 HD
ATOM     21  H   LIG d   1      -0.706  89.658 118.146  0.00  0.00    -0.090 HD
ENDBRANCH   5  18
BRANCH   3  22
ATOM     22  C   LIG d   1      -5.983  89.796 116.395  0.00  0.00     0.382 C 
ATOM     23  O   LIG d   1      -5.802  88.673 115.866  0.00  0.00    -0.241 OA
ATOM     24  O   LIG d   1      -7.106  90.330 116.332  0.00  0.00    -0.241 OA
ENDBRANCH   3  22
TORSDOF 7
ENDMDL
MODEL 8
REMARK VINA RESULT:      -4.5     15.124     17.434
REMARK  7 active torsions:
REMARK  status: ('A' for Active; 'I' for Inactive)
REMARK    1  A    between atoms: C_2  and  C_3 
REMARK    2  A    between atoms: C_3  and  O_6 
REMARK    3  A    between atoms: C_3  and  C_4 
REMARK    4  A    between atoms: C_7  and  O_6 
REMARK    5  A    between atoms: C_9  and  C_10 
REMARK    6  A    between atoms: N_15  and  C_14 
REMARK    7  A    between atoms: N_20  and  C_19 
REMARK       I    between atoms: C_22  and  N_20 
ROOT
ATOM      1  C   LIG d   1      -3.734  93.137 118.587  0.00  0.00     0.161 C 
ATOM      2  C   LIG d   1      -4.922  93.883 118.661  0.00  0.00     0.016 C 
ATOM      3  C   LIG d   1      -6.065  93.606 117.877  0.00  0.00     0.038 C 
ATOM      4  C   LIG d   1      -6.150  92.464 117.067  0.00  0.00     0.028 C 
ATOM      5  C   LIG d   1      -4.794  91.965 116.579  0.00  0.00    -0.047 C 
ATOM      6  C   LIG d   1      -3.846  91.820 117.791  0.00  0.00     0.091 C 
ENDROOT
BRANCH   1   7
ATOM      7  O   LIG d   1      -3.234  92.880 119.914  0.00  0.00    -0.368 OA
BRANCH   7   8
ATOM      8  C   LIG d   1      -3.669  91.643 120.530  0.00  0.00     0.119 C 
BRANCH   8   9
ATOM      9  C   LIG d   1      -4.715  92.003 121.603  0.00  0.00     0.028 C 
ATOM     10  C   LIG d   1      -6.109  91.442 121.276  0.00  0.00     0.006 C 
ENDBRANCH   8   9
BRANCH   8  11
ATOM     11  C   LIG d   1      -2.525  90.965 121.290  0.00  0.00     0.028 C 
ATOM     12  C   LIG d   1      -2.824  89.498 121.634  0.00  0.00     0.006 C 
ENDBRANCH   8  11
ENDBRANCH   7   8
ENDBRANCH   1   7
BRANCH   6  13
ATOM     13  N   LIG d   1      -2.472  91.417 117.391  0.00  0.00    -0.311 N 
ATOM     14  C   LIG d   1      -1.974  90.200 117.603  0.00  0.00     0.210 C 
ATOM     15  C   LIG d   1      -0.530  90.001 117.132  0.00  0.00     0.109 C 
ATOM     16  O   LIG d   1      -2.602  89.257 118.108  0.00  0.00    -0.276 OA
ATOM     17  H   LIG d   1      -1.905  92.112 116.947  0.00  0.00     0.149 HD
ENDBRANCH   6  13
BRANCH   5  18
ATOM     18  N   LIG d   1      -5.017  90.695 115.864  0.00  0.00     0.381 N 
ATOM     19  H   LIG d   1      -4.713  90.782 114.915  0.00  0.00    -0.090 HD
ATOM     20  H   LIG d   1      -6.001  90.491 115.862  0.00  0.00    -0.090 HD
ATOM     21  H   LIG d   1      -4.519  89.958 116.313  0.00  0.00    -0.090 HD
ENDBRANCH   5  18
BRANCH   3  22
ATOM     22  C   LIG d   1      -7.124  94.501 117.867  0.00  0.00     0.382 C 
ATOM     23  O   LIG d   1      -6.915  95.722 118.061  0.00  0.00    -0.241 OA
ATOM     24  O   LIG d   1      -8.292  94.095 117.710  0.00  0.00    -0.241 OA
ENDBRANCH   3  22
TORSDOF 7
ENDMDL
MODEL 9
REMARK VINA RESULT:      -4.5     13.528     15.675
REMARK  7 active torsions:
REMARK  status: ('A' for Active; 'I' for Inactive)
REMARK    1  A    between atoms: C_2  and  C_3 
REMARK    2  A    between atoms: C_3  and  O_6 
REMARK    3  A    between atoms: C_3  and  C_4 
REMARK    4  A    between atoms: C_7  and  O_6 
REMARK    5  A    between atoms: C_9  and  C_10 
REMARK    6  A    between atoms: N_15  and  C_14 
REMARK    7  A    between atoms: N_20  and  C_19 
REMARK       I    between atoms: C_22  and  N_20 
ROOT
ATOM      1  C   LIG d   1      -2.568  89.775 118.111  0.00  0.00     0.161 C 
ATOM      2  C   LIG d   1      -3.809  89.429 117.551  0.00  0.00     0.016 C 
ATOM      3  C   LIG d   1      -4.723  90.378 117.038  0.00  0.00     0.038 C 
ATOM      4  C   LIG d   1      -4.391  91.735 116.912  0.00  0.00     0.028 C 
ATOM      5  C   LIG d   1      -3.351  92.200 117.926  0.00  0.00    -0.047 C 
ATOM      6  C   LIG d   1      -2.141  91.239 117.881  0.00  0.00     0.091 C 
ENDROOT
BRANCH   1   7
ATOM      7  O   LIG d   1      -1.549  88.874 117.633  0.00  0.00    -0.368 OA
BRANCH   7   8
ATOM      8  C   LIG d   1      -1.744  87.471 117.938  0.00  0.00     0.119 C 
BRANCH   8   9
ATOM      9  C   LIG d   1      -1.529  87.292 119.453  0.00  0.00     0.028 C 
ATOM     10  C   LIG d   1      -2.625  86.430 120.103  0.00  0.00     0.006 C 
ENDBRANCH   8   9
BRANCH   8  11
ATOM     11  C   LIG d   1      -0.674  86.602 117.271  0.00  0.00     0.028 C 
ATOM     12  C   LIG d   1       0.666  87.335 117.099  0.00  0.00     0.006 C 
ENDBRANCH   8  11
ENDBRANCH   7   8
ENDBRANCH   1   7
BRANCH   6  13
ATOM     13  N   LIG d   1      -1.113  91.573 118.902  0.00  0.00    -0.311 N 
ATOM     14  C   LIG d   1       0.122  91.966 118.597  0.00  0.00     0.210 C 
ATOM     15  C   LIG d   1       1.029  92.241 119.800  0.00  0.00     0.109 C 
ATOM     16  O   LIG d   1       0.543  92.144 117.444  0.00  0.00    -0.276 OA
ATOM     17  H   LIG d   1      -1.380  91.486 119.863  0.00  0.00     0.149 HD
ENDBRANCH   6  13
BRANCH   5  18
ATOM     18  N   LIG d   1      -2.996  93.593 117.594  0.00  0.00     0.381 N 
ATOM     19  H   LIG d   1      -2.003  93.706 117.627  0.00  0.00    -0.090 HD
ATOM     20  H   LIG d   1      -3.407  94.205 118.277  0.00  0.00    -0.090 HD
ATOM     21  H   LIG d   1      -3.334  93.823 116.685  0.00  0.00    -0.090 HD
ENDBRANCH   5  18
BRANCH   3  22
ATOM     22  C   LIG d   1      -6.002  89.977 116.681  0.00  0.00     0.382 C 
ATOM     23  O   LIG d   1      -6.970  90.760 116.837  0.00  0.00    -0.241 OA
ATOM     24  O   LIG d   1      -6.206  88.828 116.247  0.00  0.00    -0.241 OA
ENDBRANCH   3  22
TORSDOF 7
ENDMDL
