MODEL 1
REMARK VINA RESULT:      -5.0      0.000      0.000
REMARK  7 active torsions:
REMARK  status: ('A' for Active; 'I' for Inactive)
REMARK    1  A    between atoms: C_2  and  C_3 
REMARK    2  A    between atoms: C_3  and  O_6 
REMARK    3  A    between atoms: C_3  and  C_4 
REMARK    4  A    between atoms: C_7  and  O_6 
REMARK    5  A    between atoms: C_9  and  C_10 
REMARK    6  A    between atoms: N_15  and  C_14 
REMARK    7  A    between atoms: N_20  and  C_19 
REMARK       I    between atoms: C_22  and  N_20 
ROOT
ATOM      1  C   LIG d   1      -6.037  79.550 118.024  0.00  0.00     0.161 C 
ATOM      2  C   LIG d   1      -7.415  79.476 117.762  0.00  0.00     0.016 C 
ATOM      3  C   LIG d   1      -8.284  80.588 117.850  0.00  0.00     0.038 C 
ATOM      4  C   LIG d   1      -7.804  81.889 118.061  0.00  0.00     0.028 C 
ATOM      5  C   LIG d   1      -6.488  81.932 118.830  0.00  0.00    -0.047 C 
ATOM      6  C   LIG d   1      -5.477  80.982 118.147  0.00  0.00     0.091 C 
ENDROOT
BRANCH   1   7
ATOM      7  O   LIG d   1      -5.309  78.812 117.023  0.00  0.00    -0.368 OA
BRANCH   7   8
ATOM      8  C   LIG d   1      -4.710  77.566 117.459  0.00  0.00     0.119 C 
BRANCH   8   9
ATOM      9  C   LIG d   1      -3.197  77.659 117.185  0.00  0.00     0.028 C 
ATOM     10  C   LIG d   1      -2.358  77.505 118.465  0.00  0.00     0.006 C 
ENDBRANCH   8   9
BRANCH   8  11
ATOM     11  C   LIG d   1      -5.203  76.386 116.615  0.00  0.00     0.028 C 
ATOM     12  C   LIG d   1      -6.579  75.868 117.062  0.00  0.00     0.006 C 
ENDBRANCH   8  11
ENDBRANCH   7   8
ENDBRANCH   1   7
BRANCH   6  13
ATOM     13  N   LIG d   1      -4.190  80.900 118.885  0.00  0.00    -0.311 N 
ATOM     14  C   LIG d   1      -3.023  81.285 118.369  0.00  0.00     0.210 C 
ATOM     15  C   LIG d   1      -1.815  81.097 119.291  0.00  0.00     0.109 C 
ATOM     16  O   LIG d   1      -2.880  81.795 117.248  0.00  0.00    -0.276 OA
ATOM     17  H   LIG d   1      -4.219  80.528 119.814  0.00  0.00     0.149 HD
ENDBRANCH   6  13
BRANCH   5  18
ATOM     18  N   LIG d   1      -6.034  83.336 118.858  0.00  0.00     0.381 N 
ATOM     19  H   LIG d   1      -5.080  83.377 119.155  0.00  0.00    -0.090 HD
ATOM     20  H   LIG d   1      -6.593  83.845 119.520  0.00  0.00    -0.090 HD
ATOM     21  H   LIG d   1      -6.126  83.742 117.953  0.00  0.00    -0.090 HD
ENDBRANCH   5  18
BRANCH   3  22
ATOM     22  C   LIG d   1      -9.655  80.397 117.766  0.00  0.00     0.382 C 
ATOM     23  O   LIG d   1     -10.390  81.314 117.327  0.00  0.00    -0.241 OA
ATOM     24  O   LIG d   1     -10.170  79.335 118.164  0.00  0.00    -0.241 OA
ENDBRANCH   3  22
TORSDOF 7
ENDMDL
MODEL 2
REMARK VINA RESULT:      -5.0     11.040     13.340
REMARK  7 active torsions:
REMARK  status: ('A' for Active; 'I' for Inactive)
REMARK    1  A    between atoms: C_2  and  C_3 
REMARK    2  A    between atoms: C_3  and  O_6 
REMARK    3  A    between atoms: C_3  and  C_4 
REMARK    4  A    between atoms: C_7  and  O_6 
REMARK    5  A    between atoms: C_9  and  C_10 
REMARK    6  A    between atoms: N_15  and  C_14 
REMARK    7  A    between atoms: N_20  and  C_19 
REMARK       I    between atoms: C_22  and  N_20 
ROOT
ATOM      1  C   LIG d   1      -4.301  92.090 119.392  0.00  0.00     0.161 C 
ATOM      2  C   LIG d   1      -4.276  91.142 118.356  0.00  0.00     0.016 C 
ATOM      3  C   LIG d   1      -5.137  91.190 117.236  0.00  0.00     0.038 C 
ATOM      4  C   LIG d   1      -5.986  92.281 116.999  0.00  0.00     0.028 C 
ATOM      5  C   LIG d   1      -6.406  93.009 118.272  0.00  0.00    -0.047 C 
ATOM      6  C   LIG d   1      -5.143  93.349 119.096  0.00  0.00     0.091 C 
ENDROOT
BRANCH   1   7
ATOM      7  O   LIG d   1      -2.954  92.461 119.748  0.00  0.00    -0.368 OA
BRANCH   7   8
ATOM      8  C   LIG d   1      -1.916  92.057 118.822  0.00  0.00     0.119 C 
BRANCH   8   9
ATOM      9  C   LIG d   1      -0.940  91.145 119.591  0.00  0.00     0.028 C 
ATOM     10  C   LIG d   1      -0.907  89.714 119.028  0.00  0.00     0.006 C 
ENDBRANCH   8   9
BRANCH   8  11
ATOM     11  C   LIG d   1      -1.078  93.255 118.366  0.00  0.00     0.028 C 
ATOM     12  C   LIG d   1      -1.863  94.224 117.468  0.00  0.00     0.006 C 
ENDBRANCH   8  11
ENDBRANCH   7   8
ENDBRANCH   1   7
BRANCH   6  13
ATOM     13  N   LIG d   1      -5.471  93.987 120.397  0.00  0.00    -0.311 N 
ATOM     14  C   LIG d   1      -5.525  95.306 120.574  0.00  0.00     0.210 C 
ATOM     15  C   LIG d   1      -5.861  95.754 122.000  0.00  0.00     0.109 C 
ATOM     16  O   LIG d   1      -5.359  96.147 119.678  0.00  0.00    -0.276 OA
ATOM     17  H   LIG d   1      -5.651  93.378 121.172  0.00  0.00     0.149 HD
ENDBRANCH   6  13
BRANCH   5  18
ATOM     18  N   LIG d   1      -7.174  94.203 117.870  0.00  0.00     0.381 N 
ATOM     19  H   LIG d   1      -8.104  94.145 118.232  0.00  0.00    -0.090 HD
ATOM     20  H   LIG d   1      -7.226  94.233 116.867  0.00  0.00    -0.090 HD
ATOM     21  H   LIG d   1      -6.727  95.025 118.212  0.00  0.00    -0.090 HD
ENDBRANCH   5  18
BRANCH   3  22
ATOM     22  C   LIG d   1      -5.184  90.117 116.358  0.00  0.00     0.382 C 
ATOM     23  O   LIG d   1      -6.275  89.543 116.127  0.00  0.00    -0.241 OA
ATOM     24  O   LIG d   1      -4.141  89.689 115.828  0.00  0.00    -0.241 OA
ENDBRANCH   3  22
TORSDOF 7
ENDMDL
MODEL 3
REMARK VINA RESULT:      -4.5     10.957     13.284
REMARK  7 active torsions:
REMARK  status: ('A' for Active; 'I' for Inactive)
REMARK    1  A    between atoms: C_2  and  C_3 
REMARK    2  A    between atoms: C_3  and  O_6 
REMARK    3  A    between atoms: C_3  and  C_4 
REMARK    4  A    between atoms: C_7  and  O_6 
REMARK    5  A    between atoms: C_9  and  C_10 
REMARK    6  A    between atoms: N_15  and  C_14 
REMARK    7  A    between atoms: N_20  and  C_19 
REMARK       I    between atoms: C_22  and  N_20 
ROOT
ATOM      1  C   LIG d   1      -3.499  92.485 118.221  0.00  0.00     0.161 C 
ATOM      2  C   LIG d   1      -4.791  92.470 117.670  0.00  0.00     0.016 C 
ATOM      3  C   LIG d   1      -5.256  91.453 116.804  0.00  0.00     0.038 C 
ATOM      4  C   LIG d   1      -4.504  90.296 116.549  0.00  0.00     0.028 C 
ATOM      5  C   LIG d   1      -3.000  90.510 116.679  0.00  0.00    -0.047 C 
ATOM      6  C   LIG d   1      -2.704  91.175 118.042  0.00  0.00     0.091 C 
ENDROOT
BRANCH   1   7
ATOM      7  O   LIG d   1      -3.566  92.845 119.615  0.00  0.00    -0.368 OA
BRANCH   7   8
ATOM      8  C   LIG d   1      -2.849  94.043 119.999  0.00  0.00     0.119 C 
BRANCH   8   9
ATOM      9  C   LIG d   1      -3.857  94.985 120.688  0.00  0.00     0.028 C 
ATOM     10  C   LIG d   1      -5.162  94.268 121.071  0.00  0.00     0.006 C 
ENDBRANCH   8   9
BRANCH   8  11
ATOM     11  C   LIG d   1      -2.349  94.812 118.772  0.00  0.00     0.028 C 
ATOM     12  C   LIG d   1      -2.769  96.290 118.783  0.00  0.00     0.006 C 
ENDBRANCH   8  11
ENDBRANCH   7   8
ENDBRANCH   1   7
BRANCH   6  13
ATOM     13  N   LIG d   1      -1.263  91.496 118.215  0.00  0.00    -0.311 N 
ATOM     14  C   LIG d   1      -0.391  90.667 118.786  0.00  0.00     0.210 C 
ATOM     15  C   LIG d   1       1.042  91.202 118.882  0.00  0.00     0.109 C 
ATOM     16  O   LIG d   1      -0.660  89.527 119.193  0.00  0.00    -0.276 OA
ATOM     17  H   LIG d   1      -0.952  92.388 117.885  0.00  0.00     0.149 HD
ENDBRANCH   6  13
BRANCH   5  18
ATOM     18  N   LIG d   1      -2.348  89.196 116.523  0.00  0.00     0.381 N 
ATOM     19  H   LIG d   1      -2.906  88.487 116.956  0.00  0.00    -0.090 HD
ATOM     20  H   LIG d   1      -1.455  89.219 116.982  0.00  0.00    -0.090 HD
ATOM     21  H   LIG d   1      -2.227  88.988 115.556  0.00  0.00    -0.090 HD
ENDBRANCH   5  18
BRANCH   3  22
ATOM     22  C   LIG d   1      -6.469  91.608 116.152  0.00  0.00     0.382 C 
ATOM     23  O   LIG d   1      -7.160  90.600 115.865  0.00  0.00    -0.241 OA
ATOM     24  O   LIG d   1      -6.861  92.738 115.807  0.00  0.00    -0.241 OA
ENDBRANCH   3  22
TORSDOF 7
ENDMDL
MODEL 4
REMARK VINA RESULT:      -4.5     13.935     16.383
REMARK  7 active torsions:
REMARK  status: ('A' for Active; 'I' for Inactive)
REMARK    1  A    between atoms: C_2  and  C_3 
REMARK    2  A    between atoms: C_3  and  O_6 
REMARK    3  A    between atoms: C_3  and  C_4 
REMARK    4  A    between atoms: C_7  and  O_6 
REMARK    5  A    between atoms: C_9  and  C_10 
REMARK    6  A    between atoms: N_15  and  C_14 
REMARK    7  A    between atoms: N_20  and  C_19 
REMARK       I    between atoms: C_22  and  N_20 
ROOT
ATOM      1  C   LIG d   1     -15.561  68.378 119.336  0.00  0.00     0.161 C 
ATOM      2  C   LIG d   1     -16.539  67.997 118.403  0.00  0.00     0.016 C 
ATOM      3  C   LIG d   1     -16.734  66.662 117.981  0.00  0.00     0.038 C 
ATOM      4  C   LIG d   1     -16.060  65.589 118.581  0.00  0.00     0.028 C 
ATOM      5  C   LIG d   1     -14.706  65.976 119.167  0.00  0.00    -0.047 C 
ATOM      6  C   LIG d   1     -14.890  67.207 120.084  0.00  0.00     0.091 C 
ENDROOT
BRANCH   1   7
ATOM      7  O   LIG d   1     -16.121  69.317 120.275  0.00  0.00    -0.368 OA
BRANCH   7   8
ATOM      8  C   LIG d   1     -17.055  70.282 119.732  0.00  0.00     0.119 C 
BRANCH   8   9
ATOM      9  C   LIG d   1     -16.371  71.662 119.772  0.00  0.00     0.028 C 
ATOM     10  C   LIG d   1     -16.420  72.382 118.414  0.00  0.00     0.006 C 
ENDBRANCH   8   9
BRANCH   8  11
ATOM     11  C   LIG d   1     -18.296  70.418 120.620  0.00  0.00     0.028 C 
ATOM     12  C   LIG d   1     -19.439  69.484 120.194  0.00  0.00     0.006 C 
ENDBRANCH   8  11
ENDBRANCH   7   8
ENDBRANCH   1   7
BRANCH   6  13
ATOM     13  N   LIG d   1     -13.601  67.703 120.633  0.00  0.00    -0.311 N 
ATOM     14  C   LIG d   1     -13.109  67.318 121.809  0.00  0.00     0.210 C 
ATOM     15  C   LIG d   1     -11.775  67.966 122.195  0.00  0.00     0.109 C 
ATOM     16  O   LIG d   1     -13.633  66.477 122.554  0.00  0.00    -0.276 OA
ATOM     17  H   LIG d   1     -13.094  68.365 120.079  0.00  0.00     0.149 HD
ENDBRANCH   6  13
BRANCH   5  18
ATOM     18  N   LIG d   1     -14.176  64.798 119.880  0.00  0.00     0.381 N 
ATOM     19  H   LIG d   1     -13.397  65.068 120.447  0.00  0.00    -0.090 HD
ATOM     20  H   LIG d   1     -13.857  64.126 119.205  0.00  0.00    -0.090 HD
ATOM     21  H   LIG d   1     -14.887  64.396 120.450  0.00  0.00    -0.090 HD
ENDBRANCH   5  18
BRANCH   3  22
ATOM     22  C   LIG d   1     -17.585  66.394 116.919  0.00  0.00     0.382 C 
ATOM     23  O   LIG d   1     -18.752  66.855 116.918  0.00  0.00    -0.241 OA
ATOM     24  O   LIG d   1     -17.215  65.661 115.982  0.00  0.00    -0.241 OA
ENDBRANCH   3  22
TORSDOF 7
ENDMDL
MODEL 5
REMARK VINA RESULT:      -4.5      2.044      3.063
REMARK  7 active torsions:
REMARK  status: ('A' for Active; 'I' for Inactive)
REMARK    1  A    between atoms: C_2  and  C_3 
REMARK    2  A    between atoms: C_3  and  O_6 
REMARK    3  A    between atoms: C_3  and  C_4 
REMARK    4  A    between atoms: C_7  and  O_6 
REMARK    5  A    between atoms: C_9  and  C_10 
REMARK    6  A    between atoms: N_15  and  C_14 
REMARK    7  A    between atoms: N_20  and  C_19 
REMARK       I    between atoms: C_22  and  N_20 
ROOT
ATOM      1  C   LIG d   1      -6.217  81.455 118.053  0.00  0.00     0.161 C 
ATOM      2  C   LIG d   1      -7.443  80.946 117.593  0.00  0.00     0.016 C 
ATOM      3  C   LIG d   1      -8.698  81.391 118.069  0.00  0.00     0.038 C 
ATOM      4  C   LIG d   1      -8.816  82.489 118.933  0.00  0.00     0.028 C 
ATOM      5  C   LIG d   1      -7.588  82.704 119.811  0.00  0.00    -0.047 C 
ATOM      6  C   LIG d   1      -6.329  82.730 118.914  0.00  0.00     0.091 C 
ENDROOT
BRANCH   1   7
ATOM      7  O   LIG d   1      -5.332  81.679 116.938  0.00  0.00    -0.368 OA
BRANCH   7   8
ATOM      8  C   LIG d   1      -4.165  80.824 116.869  0.00  0.00     0.119 C 
BRANCH   8   9
ATOM      9  C   LIG d   1      -4.368  79.681 117.881  0.00  0.00     0.028 C 
ATOM     10  C   LIG d   1      -3.082  79.349 118.657  0.00  0.00     0.006 C 
ENDBRANCH   8   9
BRANCH   8  11
ATOM     11  C   LIG d   1      -2.906  81.561 117.336  0.00  0.00     0.028 C 
ATOM     12  C   LIG d   1      -1.994  81.980 116.172  0.00  0.00     0.006 C 
ENDBRANCH   8  11
ENDBRANCH   7   8
ENDBRANCH   1   7
BRANCH   6  13
ATOM     13  N   LIG d   1      -5.075  82.852 119.702  0.00  0.00    -0.311 N 
ATOM     14  C   LIG d   1      -4.739  82.014 120.681  0.00  0.00     0.210 C 
ATOM     15  C   LIG d   1      -3.413  82.332 121.379  0.00  0.00     0.109 C 
ATOM     16  O   LIG d   1      -5.399  81.019 121.018  0.00  0.00    -0.276 OA
ATOM     17  H   LIG d   1      -4.465  83.614 119.475  0.00  0.00     0.149 HD
ENDBRANCH   6  13
BRANCH   5  18
ATOM     18  N   LIG d   1      -7.790  83.958 120.561  0.00  0.00     0.381 N 
ATOM     19  H   LIG d   1      -8.573  83.862 121.176  0.00  0.00    -0.090 HD
ATOM     20  H   LIG d   1      -7.988  84.698 119.910  0.00  0.00    -0.090 HD
ATOM     21  H   LIG d   1      -6.971  84.177 121.085  0.00  0.00    -0.090 HD
ENDBRANCH   5  18
BRANCH   3  22
ATOM     22  C   LIG d   1      -9.851  80.708 117.710  0.00  0.00     0.382 C 
ATOM     23  O   LIG d   1     -10.681  81.244 116.937  0.00  0.00    -0.241 OA
ATOM     24  O   LIG d   1     -10.091  79.582 118.184  0.00  0.00    -0.241 OA
ENDBRANCH   3  22
TORSDOF 7
ENDMDL
MODEL 6
REMARK VINA RESULT:      -4.5     11.481     14.028
REMARK  7 active torsions:
REMARK  status: ('A' for Active; 'I' for Inactive)
REMARK    1  A    between atoms: C_2  and  C_3 
REMARK    2  A    between atoms: C_3  and  O_6 
REMARK    3  A    between atoms: C_3  and  C_4 
REMARK    4  A    between atoms: C_7  and  O_6 
REMARK    5  A    between atoms: C_9  and  C_10 
REMARK    6  A    between atoms: N_15  and  C_14 
REMARK    7  A    between atoms: N_20  and  C_19 
REMARK       I    between atoms: C_22  and  N_20 
ROOT
ATOM      1  C   LIG d   1      -2.724  93.300 117.798  0.00  0.00     0.161 C 
ATOM      2  C   LIG d   1      -1.394  92.846 117.796  0.00  0.00     0.016 C 
ATOM      3  C   LIG d   1      -0.611  92.727 118.967  0.00  0.00     0.038 C 
ATOM      4  C   LIG d   1      -1.157  92.912 120.246  0.00  0.00     0.028 C 
ATOM      5  C   LIG d   1      -2.353  93.858 120.263  0.00  0.00    -0.047 C 
ATOM      6  C   LIG d   1      -3.371  93.400 119.195  0.00  0.00     0.091 C 
ENDROOT
BRANCH   1   7
ATOM      7  O   LIG d   1      -3.524  92.471 116.932  0.00  0.00    -0.368 OA
BRANCH   7   8
ATOM      8  C   LIG d   1      -3.947  91.198 117.482  0.00  0.00     0.119 C 
BRANCH   8   9
ATOM      9  C   LIG d   1      -3.267  90.089 116.657  0.00  0.00     0.028 C 
ATOM     10  C   LIG d   1      -2.228  89.303 117.474  0.00  0.00     0.006 C 
ENDBRANCH   8   9
BRANCH   8  11
ATOM     11  C   LIG d   1      -5.451  90.981 117.291  0.00  0.00     0.028 C 
ATOM     12  C   LIG d   1      -6.088  92.018 116.352  0.00  0.00     0.006 C 
ENDBRANCH   8  11
ENDBRANCH   7   8
ENDBRANCH   1   7
BRANCH   6  13
ATOM     13  N   LIG d   1      -4.533  94.321 119.087  0.00  0.00    -0.311 N 
ATOM     14  C   LIG d   1      -5.707  94.091 119.673  0.00  0.00     0.210 C 
ATOM     15  C   LIG d   1      -6.776  95.158 119.417  0.00  0.00     0.109 C 
ATOM     16  O   LIG d   1      -5.954  93.122 120.406  0.00  0.00    -0.276 OA
ATOM     17  H   LIG d   1      -4.410  95.148 118.536  0.00  0.00     0.149 HD
ENDBRANCH   6  13
BRANCH   5  18
ATOM     18  N   LIG d   1      -2.907  93.852 121.630  0.00  0.00     0.381 N 
ATOM     19  H   LIG d   1      -3.500  93.055 121.752  0.00  0.00    -0.090 HD
ATOM     20  H   LIG d   1      -3.460  94.680 121.761  0.00  0.00    -0.090 HD
ATOM     21  H   LIG d   1      -2.168  93.829 122.298  0.00  0.00    -0.090 HD
ENDBRANCH   5  18
BRANCH   3  22
ATOM     22  C   LIG d   1       0.745  92.459 118.863  0.00  0.00     0.382 C 
ATOM     23  O   LIG d   1       1.470  92.484 119.887  0.00  0.00    -0.241 OA
ATOM     24  O   LIG d   1       1.261  92.235 117.752  0.00  0.00    -0.241 OA
ENDBRANCH   3  22
TORSDOF 7
ENDMDL
MODEL 7
REMARK VINA RESULT:      -4.5     13.870     16.697
REMARK  7 active torsions:
REMARK  status: ('A' for Active; 'I' for Inactive)
REMARK    1  A    between atoms: C_2  and  C_3 
REMARK    2  A    between atoms: C_3  and  O_6 
REMARK    3  A    between atoms: C_3  and  C_4 
REMARK    4  A    between atoms: C_7  and  O_6 
REMARK    5  A    between atoms: C_9  and  C_10 
REMARK    6  A    between atoms: N_15  and  C_14 
REMARK    7  A    between atoms: N_20  and  C_19 
REMARK       I    between atoms: C_22  and  N_20 
ROOT
ATOM      1  C   LIG d   1     -16.072  68.512 119.600  0.00  0.00     0.161 C 
ATOM      2  C   LIG d   1     -14.886  68.533 120.353  0.00  0.00     0.016 C 
ATOM      3  C   LIG d   1     -14.040  67.411 120.503  0.00  0.00     0.038 C 
ATOM      4  C   LIG d   1     -14.245  66.226 119.781  0.00  0.00     0.028 C 
ATOM      5  C   LIG d   1     -15.704  65.992 119.403  0.00  0.00    -0.047 C 
ATOM      6  C   LIG d   1     -16.254  67.262 118.715  0.00  0.00     0.091 C 
ENDROOT
BRANCH   1   7
ATOM      7  O   LIG d   1     -16.165  69.709 118.802  0.00  0.00    -0.368 OA
BRANCH   7   8
ATOM      8  C   LIG d   1     -16.462  70.932 119.519  0.00  0.00     0.119 C 
BRANCH   8   9
ATOM      9  C   LIG d   1     -17.909  70.823 120.039  0.00  0.00     0.028 C 
ATOM     10  C   LIG d   1     -17.998  70.996 121.565  0.00  0.00     0.006 C 
ENDBRANCH   8   9
BRANCH   8  11
ATOM     11  C   LIG d   1     -16.458  72.143 118.581  0.00  0.00     0.028 C 
ATOM     12  C   LIG d   1     -16.377  73.480 119.334  0.00  0.00     0.006 C 
ENDBRANCH   8  11
ENDBRANCH   7   8
ENDBRANCH   1   7
BRANCH   6  13
ATOM     13  N   LIG d   1     -17.699  67.148 118.388  0.00  0.00    -0.311 N 
ATOM     14  C   LIG d   1     -18.154  66.672 117.230  0.00  0.00     0.210 C 
ATOM     15  C   LIG d   1     -19.679  66.661 117.090  0.00  0.00     0.109 C 
ATOM     16  O   LIG d   1     -17.440  66.229 116.318  0.00  0.00    -0.276 OA
ATOM     17  H   LIG d   1     -18.350  67.457 119.084  0.00  0.00     0.149 HD
ENDBRANCH   6  13
BRANCH   5  18
ATOM     18  N   LIG d   1     -15.754  64.798 118.538  0.00  0.00     0.381 N 
ATOM     19  H   LIG d   1     -14.832  64.566 118.226  0.00  0.00    -0.090 HD
ATOM     20  H   LIG d   1     -16.317  65.004 117.732  0.00  0.00    -0.090 HD
ATOM     21  H   LIG d   1     -16.145  64.030 119.038  0.00  0.00    -0.090 HD
ENDBRANCH   5  18
BRANCH   3  22
ATOM     22  C   LIG d   1     -12.996  67.454 121.415  0.00  0.00     0.382 C 
ATOM     23  O   LIG d   1     -12.768  68.507 122.057  0.00  0.00    -0.241 OA
ATOM     24  O   LIG d   1     -12.251  66.468 121.570  0.00  0.00    -0.241 OA
ENDBRANCH   3  22
TORSDOF 7
ENDMDL
MODEL 8
REMARK VINA RESULT:      -4.5     11.604     13.529
REMARK  7 active torsions:
REMARK  status: ('A' for Active; 'I' for Inactive)
REMARK    1  A    between atoms: C_2  and  C_3 
REMARK    2  A    between atoms: C_3  and  O_6 
REMARK    3  A    between atoms: C_3  and  C_4 
REMARK    4  A    between atoms: C_7  and  O_6 
REMARK    5  A    between atoms: C_9  and  C_10 
REMARK    6  A    between atoms: N_15  and  C_14 
REMARK    7  A    between atoms: N_20  and  C_19 
REMARK       I    between atoms: C_22  and  N_20 
ROOT
ATOM      1  C   LIG d   1      -3.239  92.732 118.064  0.00  0.00     0.161 C 
ATOM      2  C   LIG d   1      -4.267  93.175 118.913  0.00  0.00     0.016 C 
ATOM      3  C   LIG d   1      -4.268  94.442 119.540  0.00  0.00     0.038 C 
ATOM      4  C   LIG d   1      -3.307  95.418 119.239  0.00  0.00     0.028 C 
ATOM      5  C   LIG d   1      -1.975  94.836 118.777  0.00  0.00    -0.047 C 
ATOM      6  C   LIG d   1      -2.238  93.826 117.637  0.00  0.00     0.091 C 
ENDROOT
BRANCH   1   7
ATOM      7  O   LIG d   1      -3.804  92.090 116.905  0.00  0.00    -0.368 OA
BRANCH   7   8
ATOM      8  C   LIG d   1      -4.050  90.667 117.021  0.00  0.00     0.119 C 
BRANCH   8   9
ATOM      9  C   LIG d   1      -2.688  89.953 116.930  0.00  0.00     0.028 C 
ATOM     10  C   LIG d   1      -2.301  89.255 118.245  0.00  0.00     0.006 C 
ENDBRANCH   8   9
BRANCH   8  11
ATOM     11  C   LIG d   1      -4.863  90.143 115.833  0.00  0.00     0.028 C 
ATOM     12  C   LIG d   1      -6.298  90.691 115.805  0.00  0.00     0.006 C 
ENDBRANCH   8  11
ENDBRANCH   7   8
ENDBRANCH   1   7
BRANCH   6  13
ATOM     13  N   LIG d   1      -0.996  93.147 117.184  0.00  0.00    -0.311 N 
ATOM     14  C   LIG d   1      -0.221  92.423 117.989  0.00  0.00     0.210 C 
ATOM     15  C   LIG d   1       1.024  91.826 117.324  0.00  0.00     0.109 C 
ATOM     16  O   LIG d   1      -0.462  92.193 119.184  0.00  0.00    -0.276 OA
ATOM     17  H   LIG d   1      -0.742  93.255 116.221  0.00  0.00     0.149 HD
ENDBRANCH   6  13
BRANCH   5  18
ATOM     18  N   LIG d   1      -1.115  95.961 118.367  0.00  0.00     0.381 N 
ATOM     19  H   LIG d   1      -1.226  96.723 119.005  0.00  0.00    -0.090 HD
ATOM     20  H   LIG d   1      -1.398  96.270 117.453  0.00  0.00    -0.090 HD
ATOM     21  H   LIG d   1      -0.161  95.672 118.346  0.00  0.00    -0.090 HD
ENDBRANCH   5  18
BRANCH   3  22
ATOM     22  C   LIG d   1      -5.216  94.728 120.510  0.00  0.00     0.382 C 
ATOM     23  O   LIG d   1      -5.492  93.876 121.389  0.00  0.00    -0.241 OA
ATOM     24  O   LIG d   1      -5.832  95.811 120.492  0.00  0.00    -0.241 OA
ENDBRANCH   3  22
TORSDOF 7
ENDMDL
MODEL 9
REMARK VINA RESULT:      -4.4     11.966     14.151
REMARK  7 active torsions:
REMARK  status: ('A' for Active; 'I' for Inactive)
REMARK    1  A    between atoms: C_2  and  C_3 
REMARK    2  A    between atoms: C_3  and  O_6 
REMARK    3  A    between atoms: C_3  and  C_4 
REMARK    4  A    between atoms: C_7  and  O_6 
REMARK    5  A    between atoms: C_9  and  C_10 
REMARK    6  A    between atoms: N_15  and  C_14 
REMARK    7  A    between atoms: N_20  and  C_19 
REMARK       I    between atoms: C_22  and  N_20 
ROOT
ATOM      1  C   LIG d   1      -2.421  92.884 117.600  0.00  0.00     0.161 C 
ATOM      2  C   LIG d   1      -1.741  91.657 117.674  0.00  0.00     0.016 C 
ATOM      3  C   LIG d   1      -0.764  91.366 118.653  0.00  0.00     0.038 C 
ATOM      4  C   LIG d   1      -0.508  92.234 119.725  0.00  0.00     0.028 C 
ATOM      5  C   LIG d   1      -0.805  93.695 119.406  0.00  0.00    -0.047 C 
ATOM      6  C   LIG d   1      -2.235  93.801 118.827  0.00  0.00     0.091 C 
ENDROOT
BRANCH   1   7
ATOM      7  O   LIG d   1      -3.823  92.653 117.356  0.00  0.00    -0.368 OA
BRANCH   7   8
ATOM      8  C   LIG d   1      -4.388  91.467 117.967  0.00  0.00     0.119 C 
BRANCH   8   9
ATOM      9  C   LIG d   1      -5.355  90.837 116.945  0.00  0.00     0.028 C 
ATOM     10  C   LIG d   1      -6.017  91.888 116.038  0.00  0.00     0.006 C 
ENDBRANCH   8   9
BRANCH   8  11
ATOM     11  C   LIG d   1      -5.255  91.824 119.178  0.00  0.00     0.028 C 
ATOM     12  C   LIG d   1      -4.589  91.459 120.515  0.00  0.00     0.006 C 
ENDBRANCH   8  11
ENDBRANCH   7   8
ENDBRANCH   1   7
BRANCH   6  13
ATOM     13  N   LIG d   1      -2.576  95.186 118.410  0.00  0.00    -0.311 N 
ATOM     14  C   LIG d   1      -3.161  96.071 119.214  0.00  0.00     0.210 C 
ATOM     15  C   LIG d   1      -3.443  97.436 118.578  0.00  0.00     0.109 C 
ATOM     16  O   LIG d   1      -3.445  95.866 120.404  0.00  0.00    -0.276 OA
ATOM     17  H   LIG d   1      -2.352  95.447 117.469  0.00  0.00     0.149 HD
ENDBRANCH   6  13
BRANCH   5  18
ATOM     18  N   LIG d   1      -0.626  94.468 120.650  0.00  0.00     0.381 N 
ATOM     19  H   LIG d   1       0.140  95.103 120.546  0.00  0.00    -0.090 HD
ATOM     20  H   LIG d   1      -0.411  93.834 121.399  0.00  0.00    -0.090 HD
ATOM     21  H   LIG d   1      -1.459  94.973 120.860  0.00  0.00    -0.090 HD
ENDBRANCH   5  18
BRANCH   3  22
ATOM     22  C   LIG d   1      -0.003  90.212 118.544  0.00  0.00     0.382 C 
ATOM     23  O   LIG d   1       0.246  89.731 117.412  0.00  0.00    -0.241 OA
ATOM     24  O   LIG d   1       0.399  89.621 119.564  0.00  0.00    -0.241 OA
ENDBRANCH   3  22
TORSDOF 7
ENDMDL
