MODEL 1
REMARK VINA RESULT:      -4.6      0.000      0.000
REMARK  7 active torsions:
REMARK  status: ('A' for Active; 'I' for Inactive)
REMARK    1  A    between atoms: C_2  and  C_3 
REMARK    2  A    between atoms: C_3  and  O_6 
REMARK    3  A    between atoms: C_3  and  C_4 
REMARK    4  A    between atoms: C_7  and  O_6 
REMARK    5  A    between atoms: C_9  and  C_10 
REMARK    6  A    between atoms: N_15  and  C_14 
REMARK    7  A    between atoms: N_20  and  C_19 
REMARK       I    between atoms: C_22  and  N_20 
ROOT
ATOM      1  C   LIG d   1      -6.011  93.265 119.807  0.00  0.00     0.161 C 
ATOM      2  C   LIG d   1      -4.893  92.511 119.416  0.00  0.00     0.016 C 
ATOM      3  C   LIG d   1      -4.790  91.864 118.162  0.00  0.00     0.038 C 
ATOM      4  C   LIG d   1      -5.741  92.055 117.149  0.00  0.00     0.028 C 
ATOM      5  C   LIG d   1      -7.129  92.398 117.679  0.00  0.00    -0.047 C 
ATOM      6  C   LIG d   1      -7.010  93.576 118.673  0.00  0.00     0.091 C 
ENDROOT
BRANCH   1   7
ATOM      7  O   LIG d   1      -5.580  94.484 120.443  0.00  0.00    -0.368 OA
BRANCH   7   8
ATOM      8  C   LIG d   1      -5.295  95.598 119.561  0.00  0.00     0.119 C 
BRANCH   8   9
ATOM      9  C   LIG d   1      -3.814  95.975 119.756  0.00  0.00     0.028 C 
ATOM     10  C   LIG d   1      -2.939  95.558 118.561  0.00  0.00     0.006 C 
ENDBRANCH   8   9
BRANCH   8  11
ATOM     11  C   LIG d   1      -6.088  96.845 119.963  0.00  0.00     0.028 C 
ATOM     12  C   LIG d   1      -6.430  97.745 118.765  0.00  0.00     0.006 C 
ENDBRANCH   8  11
ENDBRANCH   7   8
ENDBRANCH   1   7
BRANCH   6  13
ATOM     13  N   LIG d   1      -8.312  93.921 119.302  0.00  0.00    -0.311 N 
ATOM     14  C   LIG d   1      -9.144  94.837 118.809  0.00  0.00     0.210 C 
ATOM     15  C   LIG d   1     -10.424  95.052 119.624  0.00  0.00     0.109 C 
ATOM     16  O   LIG d   1      -8.960  95.467 117.758  0.00  0.00    -0.276 OA
ATOM     17  H   LIG d   1      -8.555  93.435 120.142  0.00  0.00     0.149 HD
ENDBRANCH   6  13
BRANCH   5  18
ATOM     18  N   LIG d   1      -7.986  92.706 116.518  0.00  0.00     0.381 N 
ATOM     19  H   LIG d   1      -7.658  93.535 116.065  0.00  0.00    -0.090 HD
ATOM     20  H   LIG d   1      -8.923  92.872 116.841  0.00  0.00    -0.090 HD
ATOM     21  H   LIG d   1      -7.978  91.943 115.877  0.00  0.00    -0.090 HD
ENDBRANCH   5  18
BRANCH   3  22
ATOM     22  C   LIG d   1      -3.745  90.984 117.927  0.00  0.00     0.382 C 
ATOM     23  O   LIG d   1      -2.673  91.402 117.427  0.00  0.00    -0.241 OA
ATOM     24  O   LIG d   1      -3.876  89.769 118.167  0.00  0.00    -0.241 OA
ENDBRANCH   3  22
TORSDOF 7
ENDMDL
MODEL 2
REMARK VINA RESULT:      -4.6      2.022      3.071
REMARK  7 active torsions:
REMARK  status: ('A' for Active; 'I' for Inactive)
REMARK    1  A    between atoms: C_2  and  C_3 
REMARK    2  A    between atoms: C_3  and  O_6 
REMARK    3  A    between atoms: C_3  and  C_4 
REMARK    4  A    between atoms: C_7  and  O_6 
REMARK    5  A    between atoms: C_9  and  C_10 
REMARK    6  A    between atoms: N_15  and  C_14 
REMARK    7  A    between atoms: N_20  and  C_19 
REMARK       I    between atoms: C_22  and  N_20 
ROOT
ATOM      1  C   LIG d   1      -6.089  93.215 119.062  0.00  0.00     0.161 C 
ATOM      2  C   LIG d   1      -5.912  92.216 118.090  0.00  0.00     0.016 C 
ATOM      3  C   LIG d   1      -6.789  92.030 116.997  0.00  0.00     0.038 C 
ATOM      4  C   LIG d   1      -7.825  92.933 116.716  0.00  0.00     0.028 C 
ATOM      5  C   LIG d   1      -8.346  93.660 117.950  0.00  0.00    -0.047 C 
ATOM      6  C   LIG d   1      -7.150  94.278 118.711  0.00  0.00     0.091 C 
ENDROOT
BRANCH   1   7
ATOM      7  O   LIG d   1      -4.825  93.845 119.351  0.00  0.00    -0.368 OA
BRANCH   7   8
ATOM      8  C   LIG d   1      -3.649  93.185 118.822  0.00  0.00     0.119 C 
BRANCH   8   9
ATOM      9  C   LIG d   1      -2.877  92.587 120.015  0.00  0.00     0.028 C 
ATOM     10  C   LIG d   1      -2.723  91.061 119.908  0.00  0.00     0.006 C 
ENDBRANCH   8   9
BRANCH   8  11
ATOM     11  C   LIG d   1      -2.688  94.190 118.181  0.00  0.00     0.028 C 
ATOM     12  C   LIG d   1      -1.768  94.873 119.205  0.00  0.00     0.006 C 
ENDBRANCH   8  11
ENDBRANCH   7   8
ENDBRANCH   1   7
BRANCH   6  13
ATOM     13  N   LIG d   1      -7.563  94.937 119.977  0.00  0.00    -0.311 N 
ATOM     14  C   LIG d   1      -7.875  96.229 120.064  0.00  0.00     0.210 C 
ATOM     15  C   LIG d   1      -8.255  96.710 121.467  0.00  0.00     0.109 C 
ATOM     16  O   LIG d   1      -7.904  97.015 119.105  0.00  0.00    -0.276 OA
ATOM     17  H   LIG d   1      -7.597  94.366 120.799  0.00  0.00     0.149 HD
ENDBRANCH   6  13
BRANCH   5  18
ATOM     18  N   LIG d   1      -9.324  94.667 117.495  0.00  0.00     0.381 N 
ATOM     19  H   LIG d   1      -9.529  95.302 118.241  0.00  0.00    -0.090 HD
ATOM     20  H   LIG d   1     -10.175  94.199 117.236  0.00  0.00    -0.090 HD
ATOM     21  H   LIG d   1      -8.960  95.166 116.714  0.00  0.00    -0.090 HD
ENDBRANCH   5  18
BRANCH   3  22
ATOM     22  C   LIG d   1      -6.657  90.908 116.193  0.00  0.00     0.382 C 
ATOM     23  O   LIG d   1      -5.519  90.539 115.813  0.00  0.00    -0.241 OA
ATOM     24  O   LIG d   1      -7.664  90.285 115.808  0.00  0.00    -0.241 OA
ENDBRANCH   3  22
TORSDOF 7
ENDMDL
MODEL 3
REMARK VINA RESULT:      -4.5      2.690      4.732
REMARK  7 active torsions:
REMARK  status: ('A' for Active; 'I' for Inactive)
REMARK    1  A    between atoms: C_2  and  C_3 
REMARK    2  A    between atoms: C_3  and  O_6 
REMARK    3  A    between atoms: C_3  and  C_4 
REMARK    4  A    between atoms: C_7  and  O_6 
REMARK    5  A    between atoms: C_9  and  C_10 
REMARK    6  A    between atoms: N_15  and  C_14 
REMARK    7  A    between atoms: N_20  and  C_19 
REMARK       I    between atoms: C_22  and  N_20 
ROOT
ATOM      1  C   LIG d   1      -5.404  93.270 119.196  0.00  0.00     0.161 C 
ATOM      2  C   LIG d   1      -6.472  92.797 118.416  0.00  0.00     0.016 C 
ATOM      3  C   LIG d   1      -6.304  91.939 117.305  0.00  0.00     0.038 C 
ATOM      4  C   LIG d   1      -5.061  91.372 116.988  0.00  0.00     0.028 C 
ATOM      5  C   LIG d   1      -3.876  92.218 117.440  0.00  0.00    -0.047 C 
ATOM      6  C   LIG d   1      -4.053  92.573 118.934  0.00  0.00     0.091 C 
ENDROOT
BRANCH   1   7
ATOM      7  O   LIG d   1      -5.747  93.189 120.594  0.00  0.00    -0.368 OA
BRANCH   7   8
ATOM      8  C   LIG d   1      -5.926  94.452 121.281  0.00  0.00     0.119 C 
BRANCH   8   9
ATOM      9  C   LIG d   1      -7.423  94.586 121.621  0.00  0.00     0.028 C 
ATOM     10  C   LIG d   1      -8.190  95.416 120.578  0.00  0.00     0.006 C 
ENDBRANCH   8   9
BRANCH   8  11
ATOM     11  C   LIG d   1      -5.612  95.636 120.361  0.00  0.00     0.028 C 
ATOM     12  C   LIG d   1      -4.440  96.490 120.869  0.00  0.00     0.006 C 
ENDBRANCH   8  11
ENDBRANCH   7   8
ENDBRANCH   1   7
BRANCH   6  13
ATOM     13  N   LIG d   1      -2.979  93.470 119.435  0.00  0.00    -0.311 N 
ATOM     14  C   LIG d   1      -1.879  93.029 120.043  0.00  0.00     0.210 C 
ATOM     15  C   LIG d   1      -0.909  94.123 120.498  0.00  0.00     0.109 C 
ATOM     16  O   LIG d   1      -1.600  91.833 120.219  0.00  0.00    -0.276 OA
ATOM     17  H   LIG d   1      -3.110  94.454 119.306  0.00  0.00     0.149 HD
ENDBRANCH   6  13
BRANCH   5  18
ATOM     18  N   LIG d   1      -2.648  91.445 117.171  0.00  0.00     0.381 N 
ATOM     19  H   LIG d   1      -2.721  90.992 116.282  0.00  0.00    -0.090 HD
ATOM     20  H   LIG d   1      -2.547  90.739 117.878  0.00  0.00    -0.090 HD
ATOM     21  H   LIG d   1      -1.856  92.050 117.180  0.00  0.00    -0.090 HD
ENDBRANCH   5  18
BRANCH   3  22
ATOM     22  C   LIG d   1      -7.381  91.673 116.473  0.00  0.00     0.382 C 
ATOM     23  O   LIG d   1      -8.249  92.556 116.270  0.00  0.00    -0.241 OA
ATOM     24  O   LIG d   1      -7.518  90.547 115.958  0.00  0.00    -0.241 OA
ENDBRANCH   3  22
TORSDOF 7
ENDMDL
MODEL 4
REMARK VINA RESULT:      -4.4     20.002     22.162
REMARK  7 active torsions:
REMARK  status: ('A' for Active; 'I' for Inactive)
REMARK    1  A    between atoms: C_2  and  C_3 
REMARK    2  A    between atoms: C_3  and  O_6 
REMARK    3  A    between atoms: C_3  and  C_4 
REMARK    4  A    between atoms: C_7  and  O_6 
REMARK    5  A    between atoms: C_9  and  C_10 
REMARK    6  A    between atoms: N_15  and  C_14 
REMARK    7  A    between atoms: N_20  and  C_19 
REMARK       I    between atoms: C_22  and  N_20 
ROOT
ATOM      1  C   LIG d   1     -17.128  75.789 121.634  0.00  0.00     0.161 C 
ATOM      2  C   LIG d   1     -18.503  75.935 121.381  0.00  0.00     0.016 C 
ATOM      3  C   LIG d   1     -19.024  76.789 120.382  0.00  0.00     0.038 C 
ATOM      4  C   LIG d   1     -18.194  77.445 119.461  0.00  0.00     0.028 C 
ATOM      5  C   LIG d   1     -16.794  77.723 119.998  0.00  0.00    -0.047 C 
ATOM      6  C   LIG d   1     -16.205  76.412 120.566  0.00  0.00     0.091 C 
ENDROOT
BRANCH   1   7
ATOM      7  O   LIG d   1     -16.811  74.395 121.819  0.00  0.00    -0.368 OA
BRANCH   7   8
ATOM      8  C   LIG d   1     -17.081  73.524 120.693  0.00  0.00     0.119 C 
BRANCH   8   9
ATOM      9  C   LIG d   1     -17.975  72.376 121.201  0.00  0.00     0.028 C 
ATOM     10  C   LIG d   1     -19.406  72.455 120.642  0.00  0.00     0.006 C 
ENDBRANCH   8   9
BRANCH   8  11
ATOM     11  C   LIG d   1     -15.802  72.850 120.191  0.00  0.00     0.028 C 
ATOM     12  C   LIG d   1     -15.824  71.323 120.367  0.00  0.00     0.006 C 
ENDBRANCH   8  11
ENDBRANCH   7   8
ENDBRANCH   1   7
BRANCH   6  13
ATOM     13  N   LIG d   1     -14.870  76.613 121.188  0.00  0.00    -0.311 N 
ATOM     14  C   LIG d   1     -13.724  76.327 120.572  0.00  0.00     0.210 C 
ATOM     15  C   LIG d   1     -12.462  76.591 121.400  0.00  0.00     0.109 C 
ATOM     16  O   LIG d   1     -13.631  75.911 119.408  0.00  0.00    -0.276 OA
ATOM     17  H   LIG d   1     -14.852  76.976 122.121  0.00  0.00     0.149 HD
ENDBRANCH   6  13
BRANCH   5  18
ATOM     18  N   LIG d   1     -15.995  78.284 118.892  0.00  0.00     0.381 N 
ATOM     19  H   LIG d   1     -15.346  78.956 119.249  0.00  0.00    -0.090 HD
ATOM     20  H   LIG d   1     -16.612  78.751 118.250  0.00  0.00    -0.090 HD
ATOM     21  H   LIG d   1     -15.505  77.555 118.421  0.00  0.00    -0.090 HD
ENDBRANCH   5  18
BRANCH   3  22
ATOM     22  C   LIG d   1     -20.389  77.024 120.322  0.00  0.00     0.382 C 
ATOM     23  O   LIG d   1     -21.168  76.108 119.965  0.00  0.00    -0.241 OA
ATOM     24  O   LIG d   1     -20.847  78.154 120.579  0.00  0.00    -0.241 OA
ENDBRANCH   3  22
TORSDOF 7
ENDMDL
MODEL 5
REMARK VINA RESULT:      -4.3      3.712      5.343
REMARK  7 active torsions:
REMARK  status: ('A' for Active; 'I' for Inactive)
REMARK    1  A    between atoms: C_2  and  C_3 
REMARK    2  A    between atoms: C_3  and  O_6 
REMARK    3  A    between atoms: C_3  and  C_4 
REMARK    4  A    between atoms: C_7  and  O_6 
REMARK    5  A    between atoms: C_9  and  C_10 
REMARK    6  A    between atoms: N_15  and  C_14 
REMARK    7  A    between atoms: N_20  and  C_19 
REMARK       I    between atoms: C_22  and  N_20 
ROOT
ATOM      1  C   LIG d   1      -1.026  93.429 117.786  0.00  0.00     0.161 C 
ATOM      2  C   LIG d   1       0.297  93.070 117.478  0.00  0.00     0.016 C 
ATOM      3  C   LIG d   1       0.701  91.741 117.216  0.00  0.00     0.038 C 
ATOM      4  C   LIG d   1      -0.225  90.694 117.095  0.00  0.00     0.028 C 
ATOM      5  C   LIG d   1      -1.504  90.922 117.894  0.00  0.00    -0.047 C 
ATOM      6  C   LIG d   1      -2.070  92.318 117.549  0.00  0.00     0.091 C 
ENDROOT
BRANCH   1   7
ATOM      7  O   LIG d   1      -1.390  94.621 117.061  0.00  0.00    -0.368 OA
BRANCH   7   8
ATOM      8  C   LIG d   1      -1.630  95.805 117.861  0.00  0.00     0.119 C 
BRANCH   8   9
ATOM      9  C   LIG d   1      -0.505  96.811 117.548  0.00  0.00     0.028 C 
ATOM     10  C   LIG d   1      -0.918  98.263 117.840  0.00  0.00     0.006 C 
ENDBRANCH   8   9
BRANCH   8  11
ATOM     11  C   LIG d   1      -1.500  95.503 119.356  0.00  0.00     0.028 C 
ATOM     12  C   LIG d   1      -2.791  95.795 120.138  0.00  0.00     0.006 C 
ENDBRANCH   8  11
ENDBRANCH   7   8
ENDBRANCH   1   7
BRANCH   6  13
ATOM     13  N   LIG d   1      -3.275  92.655 118.351  0.00  0.00    -0.311 N 
ATOM     14  C   LIG d   1      -4.520  92.456 117.922  0.00  0.00     0.210 C 
ATOM     15  C   LIG d   1      -5.618  92.892 118.897  0.00  0.00     0.109 C 
ATOM     16  O   LIG d   1      -4.820  91.930 116.839  0.00  0.00    -0.276 OA
ATOM     17  H   LIG d   1      -3.124  93.057 119.255  0.00  0.00     0.149 HD
ENDBRANCH   6  13
BRANCH   5  18
ATOM     18  N   LIG d   1      -2.434  89.824 117.569  0.00  0.00     0.381 N 
ATOM     19  H   LIG d   1      -2.804  89.432 118.412  0.00  0.00    -0.090 HD
ATOM     20  H   LIG d   1      -1.930  89.104 117.081  0.00  0.00    -0.090 HD
ATOM     21  H   LIG d   1      -3.177  90.164 116.999  0.00  0.00    -0.090 HD
ENDBRANCH   5  18
BRANCH   3  22
ATOM     22  C   LIG d   1       2.051  91.441 117.111  0.00  0.00     0.382 C 
ATOM     23  O   LIG d   1       2.441  90.255 117.232  0.00  0.00    -0.241 OA
ATOM     24  O   LIG d   1       2.888  92.348 116.941  0.00  0.00    -0.241 OA
ENDBRANCH   3  22
TORSDOF 7
ENDMDL
MODEL 6
REMARK VINA RESULT:      -4.2      3.482      5.920
REMARK  7 active torsions:
REMARK  status: ('A' for Active; 'I' for Inactive)
REMARK    1  A    between atoms: C_2  and  C_3 
REMARK    2  A    between atoms: C_3  and  O_6 
REMARK    3  A    between atoms: C_3  and  C_4 
REMARK    4  A    between atoms: C_7  and  O_6 
REMARK    5  A    between atoms: C_9  and  C_10 
REMARK    6  A    between atoms: N_15  and  C_14 
REMARK    7  A    between atoms: N_20  and  C_19 
REMARK       I    between atoms: C_22  and  N_20 
ROOT
ATOM      1  C   LIG d   1      -2.438  93.880 117.634  0.00  0.00     0.161 C 
ATOM      2  C   LIG d   1      -1.384  92.972 117.440  0.00  0.00     0.016 C 
ATOM      3  C   LIG d   1      -0.037  93.262 117.761  0.00  0.00     0.038 C 
ATOM      4  C   LIG d   1       0.327  94.432 118.444  0.00  0.00     0.028 C 
ATOM      5  C   LIG d   1      -0.631  95.595 118.207  0.00  0.00    -0.047 C 
ATOM      6  C   LIG d   1      -2.076  95.119 118.481  0.00  0.00     0.091 C 
ENDROOT
BRANCH   1   7
ATOM      7  O   LIG d   1      -3.572  93.198 118.204  0.00  0.00    -0.368 OA
BRANCH   7   8
ATOM      8  C   LIG d   1      -3.790  91.838 117.754  0.00  0.00     0.119 C 
BRANCH   8   9
ATOM      9  C   LIG d   1      -5.209  91.769 117.159  0.00  0.00     0.028 C 
ATOM     10  C   LIG d   1      -6.257  92.443 118.061  0.00  0.00     0.006 C 
ENDBRANCH   8   9
BRANCH   8  11
ATOM     11  C   LIG d   1      -3.795  90.856 118.929  0.00  0.00     0.028 C 
ATOM     12  C   LIG d   1      -3.094  89.528 118.599  0.00  0.00     0.006 C 
ENDBRANCH   8  11
ENDBRANCH   7   8
ENDBRANCH   1   7
BRANCH   6  13
ATOM     13  N   LIG d   1      -3.084  96.172 118.191  0.00  0.00    -0.311 N 
ATOM     14  C   LIG d   1      -3.555  97.010 119.113  0.00  0.00     0.210 C 
ATOM     15  C   LIG d   1      -4.603  98.005 118.607  0.00  0.00     0.109 C 
ATOM     16  O   LIG d   1      -3.180  97.044 120.295  0.00  0.00    -0.276 OA
ATOM     17  H   LIG d   1      -3.420  96.235 117.250  0.00  0.00     0.149 HD
ENDBRANCH   6  13
BRANCH   5  18
ATOM     18  N   LIG d   1      -0.211  96.704 119.084  0.00  0.00     0.381 N 
ATOM     19  H   LIG d   1      -0.570  97.569 118.732  0.00  0.00    -0.090 HD
ATOM     20  H   LIG d   1       0.792  96.756 119.084  0.00  0.00    -0.090 HD
ATOM     21  H   LIG d   1      -0.544  96.550 120.010  0.00  0.00    -0.090 HD
ENDBRANCH   5  18
BRANCH   3  22
ATOM     22  C   LIG d   1       0.967  92.393 117.362  0.00  0.00     0.382 C 
ATOM     23  O   LIG d   1       0.672  91.314 116.792  0.00  0.00    -0.241 OA
ATOM     24  O   LIG d   1       2.160  92.653 117.604  0.00  0.00    -0.241 OA
ENDBRANCH   3  22
TORSDOF 7
ENDMDL
MODEL 7
REMARK VINA RESULT:      -4.2      9.397     11.473
REMARK  7 active torsions:
REMARK  status: ('A' for Active; 'I' for Inactive)
REMARK    1  A    between atoms: C_2  and  C_3 
REMARK    2  A    between atoms: C_3  and  O_6 
REMARK    3  A    between atoms: C_3  and  C_4 
REMARK    4  A    between atoms: C_7  and  O_6 
REMARK    5  A    between atoms: C_9  and  C_10 
REMARK    6  A    between atoms: N_15  and  C_14 
REMARK    7  A    between atoms: N_20  and  C_19 
REMARK       I    between atoms: C_22  and  N_20 
ROOT
ATOM      1  C   LIG d   1      -6.846  82.832 119.634  0.00  0.00     0.161 C 
ATOM      2  C   LIG d   1      -6.414  81.654 119.002  0.00  0.00     0.016 C 
ATOM      3  C   LIG d   1      -7.165  80.982 118.010  0.00  0.00     0.038 C 
ATOM      4  C   LIG d   1      -8.338  81.530 117.471  0.00  0.00     0.028 C 
ATOM      5  C   LIG d   1      -9.070  82.459 118.433  0.00  0.00    -0.047 C 
ATOM      6  C   LIG d   1      -8.071  83.504 118.979  0.00  0.00     0.091 C 
ENDROOT
BRANCH   1   7
ATOM      7  O   LIG d   1      -5.752  83.766 119.727  0.00  0.00    -0.368 OA
BRANCH   7   8
ATOM      8  C   LIG d   1      -4.745  83.470 120.726  0.00  0.00     0.119 C 
BRANCH   8   9
ATOM      9  C   LIG d   1      -4.993  84.406 121.925  0.00  0.00     0.028 C 
ATOM     10  C   LIG d   1      -5.684  85.717 121.513  0.00  0.00     0.006 C 
ENDBRANCH   8   9
BRANCH   8  11
ATOM     11  C   LIG d   1      -3.341  83.820 120.222  0.00  0.00     0.028 C 
ATOM     12  C   LIG d   1      -2.783  82.776 119.242  0.00  0.00     0.006 C 
ENDBRANCH   8  11
ENDBRANCH   7   8
ENDBRANCH   1   7
BRANCH   6  13
ATOM     13  N   LIG d   1      -8.686  84.401 119.992  0.00  0.00    -0.311 N 
ATOM     14  C   LIG d   1      -9.207  83.965 121.138  0.00  0.00     0.210 C 
ATOM     15  C   LIG d   1      -9.808  85.055 122.031  0.00  0.00     0.109 C 
ATOM     16  O   LIG d   1      -9.199  82.784 121.514  0.00  0.00    -0.276 OA
ATOM     17  H   LIG d   1      -8.707  85.380 119.782  0.00  0.00     0.149 HD
ENDBRANCH   6  13
BRANCH   5  18
ATOM     18  N   LIG d   1     -10.196  83.065 117.697  0.00  0.00     0.381 N 
ATOM     19  H   LIG d   1     -10.766  83.596 118.325  0.00  0.00    -0.090 HD
ATOM     20  H   LIG d   1     -10.759  82.332 117.303  0.00  0.00    -0.090 HD
ATOM     21  H   LIG d   1      -9.851  83.655 116.972  0.00  0.00    -0.090 HD
ENDBRANCH   5  18
BRANCH   3  22
ATOM     22  C   LIG d   1      -6.763  79.728 117.576  0.00  0.00     0.382 C 
ATOM     23  O   LIG d   1      -7.059  78.708 118.245  0.00  0.00    -0.241 OA
ATOM     24  O   LIG d   1      -6.070  79.607 116.548  0.00  0.00    -0.241 OA
ENDBRANCH   3  22
TORSDOF 7
ENDMDL
MODEL 8
REMARK VINA RESULT:      -4.2      4.595      7.061
REMARK  7 active torsions:
REMARK  status: ('A' for Active; 'I' for Inactive)
REMARK    1  A    between atoms: C_2  and  C_3 
REMARK    2  A    between atoms: C_3  and  O_6 
REMARK    3  A    between atoms: C_3  and  C_4 
REMARK    4  A    between atoms: C_7  and  O_6 
REMARK    5  A    between atoms: C_9  and  C_10 
REMARK    6  A    between atoms: N_15  and  C_14 
REMARK    7  A    between atoms: N_20  and  C_19 
REMARK       I    between atoms: C_22  and  N_20 
ROOT
ATOM      1  C   LIG d   1      -0.532  90.041 117.573  0.00  0.00     0.161 C 
ATOM      2  C   LIG d   1       0.872  90.088 117.596  0.00  0.00     0.016 C 
ATOM      3  C   LIG d   1       1.613  91.281 117.433  0.00  0.00     0.038 C 
ATOM      4  C   LIG d   1       0.993  92.539 117.386  0.00  0.00     0.028 C 
ATOM      5  C   LIG d   1      -0.435  92.490 116.853  0.00  0.00    -0.047 C 
ATOM      6  C   LIG d   1      -1.227  91.417 117.634  0.00  0.00     0.091 C 
ENDROOT
BRANCH   1   7
ATOM      7  O   LIG d   1      -1.010  89.191 118.634  0.00  0.00    -0.368 OA
BRANCH   7   8
ATOM      8  C   LIG d   1      -1.107  89.801 119.945  0.00  0.00     0.119 C 
BRANCH   8   9
ATOM      9  C   LIG d   1      -0.146  89.043 120.881  0.00  0.00     0.028 C 
ATOM     10  C   LIG d   1      -0.536  87.566 121.052  0.00  0.00     0.006 C 
ENDBRANCH   8   9
BRANCH   8  11
ATOM     11  C   LIG d   1      -2.501  89.604 120.548  0.00  0.00     0.028 C 
ATOM     12  C   LIG d   1      -2.982  90.825 121.348  0.00  0.00     0.006 C 
ENDBRANCH   8  11
ENDBRANCH   7   8
ENDBRANCH   1   7
BRANCH   6  13
ATOM     13  N   LIG d   1      -2.610  91.246 117.119  0.00  0.00    -0.311 N 
ATOM     14  C   LIG d   1      -3.661  91.902 117.608  0.00  0.00     0.210 C 
ATOM     15  C   LIG d   1      -5.000  91.563 116.946  0.00  0.00     0.109 C 
ATOM     16  O   LIG d   1      -3.607  92.755 118.506  0.00  0.00    -0.276 OA
ATOM     17  H   LIG d   1      -2.740  90.595 116.369  0.00  0.00     0.149 HD
ENDBRANCH   6  13
BRANCH   5  18
ATOM     18  N   LIG d   1      -1.007  93.843 116.988  0.00  0.00     0.381 N 
ATOM     19  H   LIG d   1      -1.963  93.838 116.694  0.00  0.00    -0.090 HD
ATOM     20  H   LIG d   1      -0.498  94.472 116.392  0.00  0.00    -0.090 HD
ATOM     21  H   LIG d   1      -0.944  94.147 117.935  0.00  0.00    -0.090 HD
ENDBRANCH   5  18
BRANCH   3  22
ATOM     22  C   LIG d   1       2.989  91.219 117.275  0.00  0.00     0.382 C 
ATOM     23  O   LIG d   1       3.599  92.164 116.719  0.00  0.00    -0.241 OA
ATOM     24  O   LIG d   1       3.622  90.211 117.642  0.00  0.00    -0.241 OA
ENDBRANCH   3  22
TORSDOF 7
ENDMDL
MODEL 9
REMARK VINA RESULT:      -4.1      2.546      4.369
REMARK  7 active torsions:
REMARK  status: ('A' for Active; 'I' for Inactive)
REMARK    1  A    between atoms: C_2  and  C_3 
REMARK    2  A    between atoms: C_3  and  O_6 
REMARK    3  A    between atoms: C_3  and  C_4 
REMARK    4  A    between atoms: C_7  and  O_6 
REMARK    5  A    between atoms: C_9  and  C_10 
REMARK    6  A    between atoms: N_15  and  C_14 
REMARK    7  A    between atoms: N_20  and  C_19 
REMARK       I    between atoms: C_22  and  N_20 
ROOT
ATOM      1  C   LIG d   1      -6.431  93.839 118.844  0.00  0.00     0.161 C 
ATOM      2  C   LIG d   1      -7.242  93.066 117.997  0.00  0.00     0.016 C 
ATOM      3  C   LIG d   1      -6.751  92.002 117.207  0.00  0.00     0.038 C 
ATOM      4  C   LIG d   1      -5.433  91.536 117.327  0.00  0.00     0.028 C 
ATOM      5  C   LIG d   1      -4.453  92.607 117.796  0.00  0.00    -0.047 C 
ATOM      6  C   LIG d   1      -5.013  93.275 119.072  0.00  0.00     0.091 C 
ENDROOT
BRANCH   1   7
ATOM      7  O   LIG d   1      -7.097  94.043 120.106  0.00  0.00    -0.368 OA
BRANCH   7   8
ATOM      8  C   LIG d   1      -7.551  95.392 120.376  0.00  0.00     0.119 C 
BRANCH   8   9
ATOM      9  C   LIG d   1      -9.091  95.382 120.323  0.00  0.00     0.028 C 
ATOM     10  C   LIG d   1      -9.723  95.029 121.681  0.00  0.00     0.006 C 
ENDBRANCH   8   9
BRANCH   8  11
ATOM     11  C   LIG d   1      -7.114  96.359 119.271  0.00  0.00     0.028 C 
ATOM     12  C   LIG d   1      -8.300  96.941 118.485  0.00  0.00     0.006 C 
ENDBRANCH   8  11
ENDBRANCH   7   8
ENDBRANCH   1   7
BRANCH   6  13
ATOM     13  N   LIG d   1      -4.156  94.392 119.550  0.00  0.00    -0.311 N 
ATOM     14  C   LIG d   1      -3.711  94.491 120.801  0.00  0.00     0.210 C 
ATOM     15  C   LIG d   1      -2.859  95.731 121.088  0.00  0.00     0.109 C 
ATOM     16  O   LIG d   1      -3.914  93.653 121.693  0.00  0.00    -0.276 OA
ATOM     17  H   LIG d   1      -3.917  95.100 118.884  0.00  0.00     0.149 HD
ENDBRANCH   6  13
BRANCH   5  18
ATOM     18  N   LIG d   1      -3.148  91.953 118.010  0.00  0.00     0.381 N 
ATOM     19  H   LIG d   1      -2.991  91.823 118.989  0.00  0.00    -0.090 HD
ATOM     20  H   LIG d   1      -2.423  92.550 117.651  0.00  0.00    -0.090 HD
ATOM     21  H   LIG d   1      -3.126  91.074 117.542  0.00  0.00    -0.090 HD
ENDBRANCH   5  18
BRANCH   3  22
ATOM     22  C   LIG d   1      -7.572  91.416 116.256  0.00  0.00     0.382 C 
ATOM     23  O   LIG d   1      -7.299  90.276 115.807  0.00  0.00    -0.241 OA
ATOM     24  O   LIG d   1      -8.558  92.031 115.807  0.00  0.00    -0.241 OA
ENDBRANCH   3  22
TORSDOF 7
ENDMDL
