MODEL 1
REMARK VINA RESULT:      -4.9      0.000      0.000
REMARK  7 active torsions:
REMARK  status: ('A' for Active; 'I' for Inactive)
REMARK    1  A    between atoms: C_2  and  C_3 
REMARK    2  A    between atoms: C_3  and  O_6 
REMARK    3  A    between atoms: C_3  and  C_4 
REMARK    4  A    between atoms: C_7  and  O_6 
REMARK    5  A    between atoms: C_9  and  C_10 
REMARK    6  A    between atoms: N_15  and  C_14 
REMARK    7  A    between atoms: N_20  and  C_19 
REMARK       I    between atoms: C_22  and  N_20 
ROOT
ATOM      1  C   LIG d   1       1.532  59.190 118.382  0.00  0.00     0.161 C 
ATOM      2  C   LIG d   1       0.506  60.021 118.862  0.00  0.00     0.016 C 
ATOM      3  C   LIG d   1      -0.833  59.594 119.015  0.00  0.00     0.038 C 
ATOM      4  C   LIG d   1      -1.210  58.255 118.839  0.00  0.00     0.028 C 
ATOM      5  C   LIG d   1      -0.311  57.496 117.868  0.00  0.00    -0.047 C 
ATOM      6  C   LIG d   1       1.163  57.694 118.290  0.00  0.00     0.091 C 
ENDROOT
BRANCH   1   7
ATOM      7  O   LIG d   1       2.718  59.365 119.182  0.00  0.00    -0.368 OA
BRANCH   7   8
ATOM      8  C   LIG d   1       2.507  59.527 120.606  0.00  0.00     0.119 C 
BRANCH   8   9
ATOM      9  C   LIG d   1       3.383  60.707 121.072  0.00  0.00     0.028 C 
ATOM     10  C   LIG d   1       4.242  61.285 119.934  0.00  0.00     0.006 C 
ENDBRANCH   8   9
BRANCH   8  11
ATOM     11  C   LIG d   1       3.017  58.312 121.387  0.00  0.00     0.028 C 
ATOM     12  C   LIG d   1       4.098  57.527 120.628  0.00  0.00     0.006 C 
ENDBRANCH   8  11
ENDBRANCH   7   8
ENDBRANCH   1   7
BRANCH   6  13
ATOM     13  N   LIG d   1       2.114  57.054 117.344  0.00  0.00    -0.311 N 
ATOM     14  C   LIG d   1       2.624  55.837 117.529  0.00  0.00     0.210 C 
ATOM     15  C   LIG d   1       3.601  55.374 116.444  0.00  0.00     0.109 C 
ATOM     16  O   LIG d   1       2.334  55.084 118.472  0.00  0.00    -0.276 OA
ATOM     17  H   LIG d   1       2.379  57.582 116.536  0.00  0.00     0.149 HD
ENDBRANCH   6  13
BRANCH   5  18
ATOM     18  N   LIG d   1      -0.732  56.082 117.885  0.00  0.00     0.381 N 
ATOM     19  H   LIG d   1      -1.704  56.015 117.660  0.00  0.00    -0.090 HD
ATOM     20  H   LIG d   1      -0.596  55.713 118.809  0.00  0.00    -0.090 HD
ATOM     21  H   LIG d   1      -0.195  55.559 117.228  0.00  0.00    -0.090 HD
ENDBRANCH   5  18
BRANCH   3  22
ATOM     22  C   LIG d   1      -1.821  60.523 119.309  0.00  0.00     0.382 C 
ATOM     23  O   LIG d   1      -1.659  61.331 120.255  0.00  0.00    -0.241 OA
ATOM     24  O   LIG d   1      -2.889  60.533 118.669  0.00  0.00    -0.241 OA
ENDBRANCH   3  22
TORSDOF 7
ENDMDL
MODEL 2
REMARK VINA RESULT:      -4.9      2.305      4.309
REMARK  7 active torsions:
REMARK  status: ('A' for Active; 'I' for Inactive)
REMARK    1  A    between atoms: C_2  and  C_3 
REMARK    2  A    between atoms: C_3  and  O_6 
REMARK    3  A    between atoms: C_3  and  C_4 
REMARK    4  A    between atoms: C_7  and  O_6 
REMARK    5  A    between atoms: C_9  and  C_10 
REMARK    6  A    between atoms: N_15  and  C_14 
REMARK    7  A    between atoms: N_20  and  C_19 
REMARK       I    between atoms: C_22  and  N_20 
ROOT
ATOM      1  C   LIG d   1      -0.315  58.360 118.886  0.00  0.00     0.161 C 
ATOM      2  C   LIG d   1      -1.600  58.451 118.326  0.00  0.00     0.016 C 
ATOM      3  C   LIG d   1      -2.592  59.343 118.794  0.00  0.00     0.038 C 
ATOM      4  C   LIG d   1      -2.315  60.318 119.763  0.00  0.00     0.028 C 
ATOM      5  C   LIG d   1      -1.183  59.928 120.708  0.00  0.00    -0.047 C 
ATOM      6  C   LIG d   1       0.042  59.493 119.871  0.00  0.00     0.091 C 
ENDROOT
BRANCH   1   7
ATOM      7  O   LIG d   1       0.670  58.279 117.838  0.00  0.00    -0.368 OA
BRANCH   7   8
ATOM      8  C   LIG d   1       1.203  56.959 117.565  0.00  0.00     0.119 C 
BRANCH   8   9
ATOM      9  C   LIG d   1       0.322  55.941 118.315  0.00  0.00     0.028 C 
ATOM     10  C   LIG d   1      -0.384  54.962 117.362  0.00  0.00     0.006 C 
ENDBRANCH   8   9
BRANCH   8  11
ATOM     11  C   LIG d   1       2.607  56.792 118.153  0.00  0.00     0.028 C 
ATOM     12  C   LIG d   1       2.629  55.882 119.392  0.00  0.00     0.006 C 
ENDBRANCH   8  11
ENDBRANCH   7   8
ENDBRANCH   1   7
BRANCH   6  13
ATOM     13  N   LIG d   1       1.166  59.016 120.718  0.00  0.00    -0.311 N 
ATOM     14  C   LIG d   1       2.415  59.463 120.599  0.00  0.00     0.210 C 
ATOM     15  C   LIG d   1       3.425  58.823 121.557  0.00  0.00     0.109 C 
ATOM     16  O   LIG d   1       2.776  60.351 119.813  0.00  0.00    -0.276 OA
ATOM     17  H   LIG d   1       0.956  58.317 121.403  0.00  0.00     0.149 HD
ENDBRANCH   6  13
BRANCH   5  18
ATOM     18  N   LIG d   1      -0.908  61.089 121.576  0.00  0.00     0.381 N 
ATOM     19  H   LIG d   1      -0.396  60.794 122.383  0.00  0.00    -0.090 HD
ATOM     20  H   LIG d   1      -1.781  61.480 121.882  0.00  0.00    -0.090 HD
ATOM     21  H   LIG d   1      -0.386  61.773 121.075  0.00  0.00    -0.090 HD
ENDBRANCH   5  18
BRANCH   3  22
ATOM     22  C   LIG d   1      -3.891  59.238 118.318  0.00  0.00     0.382 C 
ATOM     23  O   LIG d   1      -4.562  58.204 118.551  0.00  0.00    -0.241 OA
ATOM     24  O   LIG d   1      -4.383  60.145 117.621  0.00  0.00    -0.241 OA
ENDBRANCH   3  22
TORSDOF 7
ENDMDL
MODEL 3
REMARK VINA RESULT:      -4.8     33.729     35.976
REMARK  7 active torsions:
REMARK  status: ('A' for Active; 'I' for Inactive)
REMARK    1  A    between atoms: C_2  and  C_3 
REMARK    2  A    between atoms: C_3  and  O_6 
REMARK    3  A    between atoms: C_3  and  C_4 
REMARK    4  A    between atoms: C_7  and  O_6 
REMARK    5  A    between atoms: C_9  and  C_10 
REMARK    6  A    between atoms: N_15  and  C_14 
REMARK    7  A    between atoms: N_20  and  C_19 
REMARK       I    between atoms: C_22  and  N_20 
ROOT
ATOM      1  C   LIG d   1      -5.184  93.485 119.187  0.00  0.00     0.161 C 
ATOM      2  C   LIG d   1      -5.224  92.456 118.232  0.00  0.00     0.016 C 
ATOM      3  C   LIG d   1      -6.283  92.291 117.310  0.00  0.00     0.038 C 
ATOM      4  C   LIG d   1      -7.308  93.239 117.180  0.00  0.00     0.028 C 
ATOM      5  C   LIG d   1      -7.575  94.022 118.462  0.00  0.00    -0.047 C 
ATOM      6  C   LIG d   1      -6.239  94.594 118.987  0.00  0.00     0.091 C 
ENDROOT
BRANCH   1   7
ATOM      7  O   LIG d   1      -3.861  94.055 119.237  0.00  0.00    -0.368 OA
BRANCH   7   8
ATOM      8  C   LIG d   1      -2.807  93.273 118.624  0.00  0.00     0.119 C 
BRANCH   8   9
ATOM      9  C   LIG d   1      -1.909  92.739 119.756  0.00  0.00     0.028 C 
ATOM     10  C   LIG d   1      -2.253  91.291 120.144  0.00  0.00     0.006 C 
ENDBRANCH   8   9
BRANCH   8  11
ATOM     11  C   LIG d   1      -1.894  94.148 117.760  0.00  0.00     0.028 C 
ATOM     12  C   LIG d   1      -0.461  93.602 117.665  0.00  0.00     0.006 C 
ENDBRANCH   8  11
ENDBRANCH   7   8
ENDBRANCH   1   7
BRANCH   6  13
ATOM     13  N   LIG d   1      -6.397  95.303 120.284  0.00  0.00    -0.311 N 
ATOM     14  C   LIG d   1      -5.861  96.496 120.537  0.00  0.00     0.210 C 
ATOM     15  C   LIG d   1      -6.129  97.040 121.944  0.00  0.00     0.109 C 
ATOM     16  O   LIG d   1      -5.217  97.170 119.719  0.00  0.00    -0.276 OA
ATOM     17  H   LIG d   1      -6.931  94.842 120.994  0.00  0.00     0.149 HD
ENDBRANCH   6  13
BRANCH   5  18
ATOM     18  N   LIG d   1      -8.568  95.067 118.147  0.00  0.00     0.381 N 
ATOM     19  H   LIG d   1      -8.441  95.849 118.758  0.00  0.00    -0.090 HD
ATOM     20  H   LIG d   1      -9.489  94.695 118.297  0.00  0.00    -0.090 HD
ATOM     21  H   LIG d   1      -8.469  95.357 117.199  0.00  0.00    -0.090 HD
ENDBRANCH   5  18
BRANCH   3  22
ATOM     22  C   LIG d   1      -6.344  91.144 116.532  0.00  0.00     0.382 C 
ATOM     23  O   LIG d   1      -7.458  90.657 116.221  0.00  0.00    -0.241 OA
ATOM     24  O   LIG d   1      -5.300  90.567 116.175  0.00  0.00    -0.241 OA
ENDBRANCH   3  22
TORSDOF 7
ENDMDL
MODEL 4
REMARK VINA RESULT:      -4.8     32.567     34.581
REMARK  7 active torsions:
REMARK  status: ('A' for Active; 'I' for Inactive)
REMARK    1  A    between atoms: C_2  and  C_3 
REMARK    2  A    between atoms: C_3  and  O_6 
REMARK    3  A    between atoms: C_3  and  C_4 
REMARK    4  A    between atoms: C_7  and  O_6 
REMARK    5  A    between atoms: C_9  and  C_10 
REMARK    6  A    between atoms: N_15  and  C_14 
REMARK    7  A    between atoms: N_20  and  C_19 
REMARK       I    between atoms: C_22  and  N_20 
ROOT
ATOM      1  C   LIG d   1      -4.622  93.104 119.206  0.00  0.00     0.161 C 
ATOM      2  C   LIG d   1      -5.856  93.761 119.348  0.00  0.00     0.016 C 
ATOM      3  C   LIG d   1      -6.917  93.632 118.424  0.00  0.00     0.038 C 
ATOM      4  C   LIG d   1      -6.871  92.712 117.366  0.00  0.00     0.028 C 
ATOM      5  C   LIG d   1      -5.454  92.401 116.895  0.00  0.00    -0.047 C 
ATOM      6  C   LIG d   1      -4.593  92.011 118.118  0.00  0.00     0.091 C 
ENDROOT
BRANCH   1   7
ATOM      7  O   LIG d   1      -4.209  92.560 120.475  0.00  0.00    -0.368 OA
BRANCH   7   8
ATOM      8  C   LIG d   1      -3.036  93.162 121.076  0.00  0.00     0.119 C 
BRANCH   8   9
ATOM      9  C   LIG d   1      -2.534  94.257 120.115  0.00  0.00     0.028 C 
ATOM     10  C   LIG d   1      -1.065  94.052 119.709  0.00  0.00     0.006 C 
ENDBRANCH   8   9
BRANCH   8  11
ATOM     11  C   LIG d   1      -1.886  92.156 121.181  0.00  0.00     0.028 C 
ATOM     12  C   LIG d   1      -2.364  90.739 121.538  0.00  0.00     0.006 C 
ENDBRANCH   8  11
ENDBRANCH   7   8
ENDBRANCH   1   7
BRANCH   6  13
ATOM     13  N   LIG d   1      -3.172  91.772 117.758  0.00  0.00    -0.311 N 
ATOM     14  C   LIG d   1      -2.584  90.579 117.842  0.00  0.00     0.210 C 
ATOM     15  C   LIG d   1      -1.106  90.557 117.441  0.00  0.00     0.109 C 
ATOM     16  O   LIG d   1      -3.156  89.532 118.179  0.00  0.00    -0.276 OA
ATOM     17  H   LIG d   1      -2.642  92.561 117.444  0.00  0.00     0.149 HD
ENDBRANCH   6  13
BRANCH   5  18
ATOM     18  N   LIG d   1      -5.545  91.328 115.886  0.00  0.00     0.381 N 
ATOM     19  H   LIG d   1      -4.630  91.093 115.559  0.00  0.00    -0.090 HD
ATOM     20  H   LIG d   1      -6.083  91.661 115.106  0.00  0.00    -0.090 HD
ATOM     21  H   LIG d   1      -5.982  90.525 116.281  0.00  0.00    -0.090 HD
ENDBRANCH   5  18
BRANCH   3  22
ATOM     22  C   LIG d   1      -8.026  94.458 118.530  0.00  0.00     0.382 C 
ATOM     23  O   LIG d   1      -8.036  95.389 119.371  0.00  0.00    -0.241 OA
ATOM     24  O   LIG d   1      -9.034  94.257 117.826  0.00  0.00    -0.241 OA
ENDBRANCH   3  22
TORSDOF 7
ENDMDL
MODEL 5
REMARK VINA RESULT:      -4.7      2.946      5.344
REMARK  7 active torsions:
REMARK  status: ('A' for Active; 'I' for Inactive)
REMARK    1  A    between atoms: C_2  and  C_3 
REMARK    2  A    between atoms: C_3  and  O_6 
REMARK    3  A    between atoms: C_3  and  C_4 
REMARK    4  A    between atoms: C_7  and  O_6 
REMARK    5  A    between atoms: C_9  and  C_10 
REMARK    6  A    between atoms: N_15  and  C_14 
REMARK    7  A    between atoms: N_20  and  C_19 
REMARK       I    between atoms: C_22  and  N_20 
ROOT
ATOM      1  C   LIG d   1      -0.916  59.879 118.949  0.00  0.00     0.161 C 
ATOM      2  C   LIG d   1       0.236  59.928 119.753  0.00  0.00     0.016 C 
ATOM      3  C   LIG d   1       0.203  60.163 121.146  0.00  0.00     0.038 C 
ATOM      4  C   LIG d   1      -1.003  60.216 121.861  0.00  0.00     0.028 C 
ATOM      5  C   LIG d   1      -2.187  60.676 121.018  0.00  0.00    -0.047 C 
ATOM      6  C   LIG d   1      -2.246  59.824 119.729  0.00  0.00     0.091 C 
ENDROOT
BRANCH   1   7
ATOM      7  O   LIG d   1      -0.826  58.770 118.033  0.00  0.00    -0.368 OA
BRANCH   7   8
ATOM      8  C   LIG d   1      -0.020  57.647 118.468  0.00  0.00     0.119 C 
BRANCH   8   9
ATOM      9  C   LIG d   1       1.254  57.628 117.602  0.00  0.00     0.028 C 
ATOM     10  C   LIG d   1       2.536  57.528 118.446  0.00  0.00     0.006 C 
ENDBRANCH   8   9
BRANCH   8  11
ATOM     11  C   LIG d   1      -0.722  56.315 118.187  0.00  0.00     0.028 C 
ATOM     12  C   LIG d   1       0.103  55.100 118.638  0.00  0.00     0.006 C 
ENDBRANCH   8  11
ENDBRANCH   7   8
ENDBRANCH   1   7
BRANCH   6  13
ATOM     13  N   LIG d   1      -3.326  60.264 118.808  0.00  0.00    -0.311 N 
ATOM     14  C   LIG d   1      -4.296  59.459 118.377  0.00  0.00     0.210 C 
ATOM     15  C   LIG d   1      -5.297  60.109 117.416  0.00  0.00     0.109 C 
ATOM     16  O   LIG d   1      -4.440  58.277 118.724  0.00  0.00    -0.276 OA
ATOM     17  H   LIG d   1      -3.304  61.217 118.501  0.00  0.00     0.149 HD
ENDBRANCH   6  13
BRANCH   5  18
ATOM     18  N   LIG d   1      -3.400  60.553 121.848  0.00  0.00     0.381 N 
ATOM     19  H   LIG d   1      -3.276  59.826 122.524  0.00  0.00    -0.090 HD
ATOM     20  H   LIG d   1      -4.175  60.305 121.258  0.00  0.00    -0.090 HD
ATOM     21  H   LIG d   1      -3.587  61.416 122.309  0.00  0.00    -0.090 HD
ENDBRANCH   5  18
BRANCH   3  22
ATOM     22  C   LIG d   1       1.386  60.388 121.833  0.00  0.00     0.382 C 
ATOM     23  O   LIG d   1       1.509  61.409 122.552  0.00  0.00    -0.241 OA
ATOM     24  O   LIG d   1       2.348  59.606 121.708  0.00  0.00    -0.241 OA
ENDBRANCH   3  22
TORSDOF 7
ENDMDL
MODEL 6
REMARK VINA RESULT:      -4.7      2.233      5.178
REMARK  7 active torsions:
REMARK  status: ('A' for Active; 'I' for Inactive)
REMARK    1  A    between atoms: C_2  and  C_3 
REMARK    2  A    between atoms: C_3  and  O_6 
REMARK    3  A    between atoms: C_3  and  C_4 
REMARK    4  A    between atoms: C_7  and  O_6 
REMARK    5  A    between atoms: C_9  and  C_10 
REMARK    6  A    between atoms: N_15  and  C_14 
REMARK    7  A    between atoms: N_20  and  C_19 
REMARK       I    between atoms: C_22  and  N_20 
ROOT
ATOM      1  C   LIG d   1       0.919  59.452 118.020  0.00  0.00     0.161 C 
ATOM      2  C   LIG d   1       2.197  59.615 118.581  0.00  0.00     0.016 C 
ATOM      3  C   LIG d   1       2.415  59.964 119.934  0.00  0.00     0.038 C 
ATOM      4  C   LIG d   1       1.364  60.025 120.862  0.00  0.00     0.028 C 
ATOM      5  C   LIG d   1       0.018  60.362 120.231  0.00  0.00    -0.047 C 
ATOM      6  C   LIG d   1      -0.234  59.405 119.044  0.00  0.00     0.091 C 
ENDROOT
BRANCH   1   7
ATOM      7  O   LIG d   1       0.898  58.276 117.187  0.00  0.00    -0.368 OA
BRANCH   7   8
ATOM      8  C   LIG d   1       1.072  57.009 117.869  0.00  0.00     0.119 C 
BRANCH   8   9
ATOM      9  C   LIG d   1       2.143  56.212 117.098  0.00  0.00     0.028 C 
ATOM     10  C   LIG d   1       3.350  55.848 117.979  0.00  0.00     0.006 C 
ENDBRANCH   8   9
BRANCH   8  11
ATOM     11  C   LIG d   1      -0.199  56.157 117.795  0.00  0.00     0.028 C 
ATOM     12  C   LIG d   1       0.001  54.856 117.002  0.00  0.00     0.006 C 
ENDBRANCH   8  11
ENDBRANCH   7   8
ENDBRANCH   1   7
BRANCH   6  13
ATOM     13  N   LIG d   1      -1.492  59.721 118.318  0.00  0.00    -0.311 N 
ATOM     14  C   LIG d   1      -2.661  59.143 118.590  0.00  0.00     0.210 C 
ATOM     15  C   LIG d   1      -3.828  59.599 117.709  0.00  0.00     0.109 C 
ATOM     16  O   LIG d   1      -2.848  58.319 119.498  0.00  0.00    -0.276 OA
ATOM     17  H   LIG d   1      -1.438  60.402 117.586  0.00  0.00     0.149 HD
ENDBRANCH   6  13
BRANCH   5  18
ATOM     18  N   LIG d   1      -1.008  60.257 121.286  0.00  0.00     0.381 N 
ATOM     19  H   LIG d   1      -1.915  60.413 120.894  0.00  0.00    -0.090 HD
ATOM     20  H   LIG d   1      -0.837  60.966 121.978  0.00  0.00    -0.090 HD
ATOM     21  H   LIG d   1      -0.971  59.355 121.709  0.00  0.00    -0.090 HD
ENDBRANCH   5  18
BRANCH   3  22
ATOM     22  C   LIG d   1       3.691  60.295 120.362  0.00  0.00     0.382 C 
ATOM     23  O   LIG d   1       3.984  61.492 120.594  0.00  0.00    -0.241 OA
ATOM     24  O   LIG d   1       4.567  59.416 120.476  0.00  0.00    -0.241 OA
ENDBRANCH   3  22
TORSDOF 7
ENDMDL
MODEL 7
REMARK VINA RESULT:      -4.6      1.986      4.445
REMARK  7 active torsions:
REMARK  status: ('A' for Active; 'I' for Inactive)
REMARK    1  A    between atoms: C_2  and  C_3 
REMARK    2  A    between atoms: C_3  and  O_6 
REMARK    3  A    between atoms: C_3  and  C_4 
REMARK    4  A    between atoms: C_7  and  O_6 
REMARK    5  A    between atoms: C_9  and  C_10 
REMARK    6  A    between atoms: N_15  and  C_14 
REMARK    7  A    between atoms: N_20  and  C_19 
REMARK       I    between atoms: C_22  and  N_20 
ROOT
ATOM      1  C   LIG d   1      -0.003  57.604 119.303  0.00  0.00     0.161 C 
ATOM      2  C   LIG d   1      -1.389  57.786 119.158  0.00  0.00     0.016 C 
ATOM      3  C   LIG d   1      -1.961  58.841 118.411  0.00  0.00     0.038 C 
ATOM      4  C   LIG d   1      -1.180  59.704 117.628  0.00  0.00     0.028 C 
ATOM      5  C   LIG d   1       0.245  59.869 118.146  0.00  0.00    -0.047 C 
ATOM      6  C   LIG d   1       0.864  58.470 118.365  0.00  0.00     0.091 C 
ENDROOT
BRANCH   1   7
ATOM      7  O   LIG d   1       0.326  56.210 119.145  0.00  0.00    -0.368 OA
BRANCH   7   8
ATOM      8  C   LIG d   1       0.532  55.754 117.785  0.00  0.00     0.119 C 
BRANCH   8   9
ATOM      9  C   LIG d   1      -0.599  54.761 117.453  0.00  0.00     0.028 C 
ATOM     10  C   LIG d   1      -0.170  53.708 116.418  0.00  0.00     0.006 C 
ENDBRANCH   8   9
BRANCH   8  11
ATOM     11  C   LIG d   1       1.829  54.949 117.658  0.00  0.00     0.028 C 
ATOM     12  C   LIG d   1       2.910  55.685 116.851  0.00  0.00     0.006 C 
ENDBRANCH   8  11
ENDBRANCH   7   8
ENDBRANCH   1   7
BRANCH   6  13
ATOM     13  N   LIG d   1       2.228  58.539 118.951  0.00  0.00    -0.311 N 
ATOM     14  C   LIG d   1       2.511  59.197 120.074  0.00  0.00     0.210 C 
ATOM     15  C   LIG d   1       3.985  59.159 120.492  0.00  0.00     0.109 C 
ATOM     16  O   LIG d   1       1.676  59.782 120.781  0.00  0.00    -0.276 OA
ATOM     17  H   LIG d   1       2.961  58.066 118.459  0.00  0.00     0.149 HD
ENDBRANCH   6  13
BRANCH   5  18
ATOM     18  N   LIG d   1       0.985  60.682 117.163  0.00  0.00     0.381 N 
ATOM     19  H   LIG d   1       1.798  61.077 117.593  0.00  0.00    -0.090 HD
ATOM     20  H   LIG d   1       0.395  61.434 116.853  0.00  0.00    -0.090 HD
ATOM     21  H   LIG d   1       1.253  60.117 116.386  0.00  0.00    -0.090 HD
ENDBRANCH   5  18
BRANCH   3  22
ATOM     22  C   LIG d   1      -3.328  59.065 118.475  0.00  0.00     0.382 C 
ATOM     23  O   LIG d   1      -3.772  60.238 118.460  0.00  0.00    -0.241 OA
ATOM     24  O   LIG d   1      -4.120  58.111 118.591  0.00  0.00    -0.241 OA
ENDBRANCH   3  22
TORSDOF 7
ENDMDL
MODEL 8
REMARK VINA RESULT:      -4.6     23.556     26.041
REMARK  7 active torsions:
REMARK  status: ('A' for Active; 'I' for Inactive)
REMARK    1  A    between atoms: C_2  and  C_3 
REMARK    2  A    between atoms: C_3  and  O_6 
REMARK    3  A    between atoms: C_3  and  C_4 
REMARK    4  A    between atoms: C_7  and  O_6 
REMARK    5  A    between atoms: C_9  and  C_10 
REMARK    6  A    between atoms: N_15  and  C_14 
REMARK    7  A    between atoms: N_20  and  C_19 
REMARK       I    between atoms: C_22  and  N_20 
ROOT
ATOM      1  C   LIG d   1      -8.014  82.335 119.919  0.00  0.00     0.161 C 
ATOM      2  C   LIG d   1      -8.156  81.004 119.495  0.00  0.00     0.016 C 
ATOM      3  C   LIG d   1      -9.273  80.534 118.766  0.00  0.00     0.038 C 
ATOM      4  C   LIG d   1     -10.259  81.404 118.279  0.00  0.00     0.028 C 
ATOM      5  C   LIG d   1     -10.416  82.670 119.114  0.00  0.00    -0.047 C 
ATOM      6  C   LIG d   1      -9.027  83.322 119.301  0.00  0.00     0.091 C 
ENDROOT
BRANCH   1   7
ATOM      7  O   LIG d   1      -6.666  82.784 119.678  0.00  0.00    -0.368 OA
BRANCH   7   8
ATOM      8  C   LIG d   1      -5.791  82.822 120.832  0.00  0.00     0.119 C 
BRANCH   8   9
ATOM      9  C   LIG d   1      -5.554  84.303 121.185  0.00  0.00     0.028 C 
ATOM     10  C   LIG d   1      -6.144  84.681 122.554  0.00  0.00     0.006 C 
ENDBRANCH   8   9
BRANCH   8  11
ATOM     11  C   LIG d   1      -4.406  82.258 120.499  0.00  0.00     0.028 C 
ATOM     12  C   LIG d   1      -4.471  80.889 119.804  0.00  0.00     0.006 C 
ENDBRANCH   8  11
ENDBRANCH   7   8
ENDBRANCH   1   7
BRANCH   6  13
ATOM     13  N   LIG d   1      -9.077  84.522 120.177  0.00  0.00    -0.311 N 
ATOM     14  C   LIG d   1      -9.619  84.519 121.394  0.00  0.00     0.210 C 
ATOM     15  C   LIG d   1      -9.584  85.867 122.121  0.00  0.00     0.109 C 
ATOM     16  O   LIG d   1     -10.095  83.520 121.954  0.00  0.00    -0.276 OA
ATOM     17  H   LIG d   1      -8.685  85.368 119.814  0.00  0.00     0.149 HD
ENDBRANCH   6  13
BRANCH   5  18
ATOM     18  N   LIG d   1     -11.377  83.547 118.417  0.00  0.00     0.381 N 
ATOM     19  H   LIG d   1     -12.126  83.787 119.036  0.00  0.00    -0.090 HD
ATOM     20  H   LIG d   1     -11.762  83.050 117.634  0.00  0.00    -0.090 HD
ATOM     21  H   LIG d   1     -10.918  84.373 118.103  0.00  0.00    -0.090 HD
ENDBRANCH   5  18
BRANCH   3  22
ATOM     22  C   LIG d   1      -9.431  79.173 118.553  0.00  0.00     0.382 C 
ATOM     23  O   LIG d   1     -10.577  78.663 118.578  0.00  0.00    -0.241 OA
ATOM     24  O   LIG d   1      -8.437  78.441 118.379  0.00  0.00    -0.241 OA
ENDBRANCH   3  22
TORSDOF 7
ENDMDL
MODEL 9
REMARK VINA RESULT:      -4.5     14.698     17.878
REMARK  7 active torsions:
REMARK  status: ('A' for Active; 'I' for Inactive)
REMARK    1  A    between atoms: C_2  and  C_3 
REMARK    2  A    between atoms: C_3  and  O_6 
REMARK    3  A    between atoms: C_3  and  C_4 
REMARK    4  A    between atoms: C_7  and  O_6 
REMARK    5  A    between atoms: C_9  and  C_10 
REMARK    6  A    between atoms: N_15  and  C_14 
REMARK    7  A    between atoms: N_20  and  C_19 
REMARK       I    between atoms: C_22  and  N_20 
ROOT
ATOM      1  C   LIG d   1     -14.739  65.426 119.776  0.00  0.00     0.161 C 
ATOM      2  C   LIG d   1     -13.637  65.464 120.646  0.00  0.00     0.016 C 
ATOM      3  C   LIG d   1     -12.710  64.404 120.773  0.00  0.00     0.038 C 
ATOM      4  C   LIG d   1     -12.737  63.289 119.922  0.00  0.00     0.028 C 
ATOM      5  C   LIG d   1     -14.126  62.978 119.374  0.00  0.00    -0.047 C 
ATOM      6  C   LIG d   1     -14.722  64.265 118.759  0.00  0.00     0.091 C 
ENDROOT
BRANCH   1   7
ATOM      7  O   LIG d   1     -14.864  66.689 119.092  0.00  0.00    -0.368 OA
BRANCH   7   8
ATOM      8  C   LIG d   1     -16.112  67.399 119.288  0.00  0.00     0.119 C 
BRANCH   8   9
ATOM      9  C   LIG d   1     -16.450  68.114 117.966  0.00  0.00     0.028 C 
ATOM     10  C   LIG d   1     -15.783  67.448 116.751  0.00  0.00     0.006 C 
ENDBRANCH   8   9
BRANCH   8  11
ATOM     11  C   LIG d   1     -15.960  68.515 120.325  0.00  0.00     0.028 C 
ATOM     12  C   LIG d   1     -16.814  69.751 120.000  0.00  0.00     0.006 C 
ENDBRANCH   8  11
ENDBRANCH   7   8
ENDBRANCH   1   7
BRANCH   6  13
ATOM     13  N   LIG d   1     -16.113  64.070 118.275  0.00  0.00    -0.311 N 
ATOM     14  C   LIG d   1     -16.416  63.785 117.010  0.00  0.00     0.210 C 
ATOM     15  C   LIG d   1     -17.914  63.644 116.720  0.00  0.00     0.109 C 
ATOM     16  O   LIG d   1     -15.585  63.603 116.108  0.00  0.00    -0.276 OA
ATOM     17  H   LIG d   1     -16.848  64.169 118.948  0.00  0.00     0.149 HD
ENDBRANCH   6  13
BRANCH   5  18
ATOM     18  N   LIG d   1     -13.985  61.882 118.398  0.00  0.00     0.381 N 
ATOM     19  H   LIG d   1     -13.459  62.198 117.607  0.00  0.00    -0.090 HD
ATOM     20  H   LIG d   1     -14.898  61.611 118.080  0.00  0.00    -0.090 HD
ATOM     21  H   LIG d   1     -13.528  61.105 118.821  0.00  0.00    -0.090 HD
ENDBRANCH   5  18
BRANCH   3  22
ATOM     22  C   LIG d   1     -11.765  64.435 121.788  0.00  0.00     0.382 C 
ATOM     23  O   LIG d   1     -11.701  65.426 122.555  0.00  0.00    -0.241 OA
ATOM     24  O   LIG d   1     -10.947  63.505 121.918  0.00  0.00    -0.241 OA
ENDBRANCH   3  22
TORSDOF 7
ENDMDL
