MODEL 1
REMARK VINA RESULT:      -5.1      0.000      0.000
REMARK  7 active torsions:
REMARK  status: ('A' for Active; 'I' for Inactive)
REMARK    1  A    between atoms: C_2  and  C_3 
REMARK    2  A    between atoms: C_3  and  O_6 
REMARK    3  A    between atoms: C_3  and  C_4 
REMARK    4  A    between atoms: C_7  and  O_6 
REMARK    5  A    between atoms: C_9  and  C_10 
REMARK    6  A    between atoms: N_15  and  C_14 
REMARK    7  A    between atoms: N_20  and  C_19 
REMARK       I    between atoms: C_22  and  N_20 
ROOT
ATOM      1  C   LIG d   1      -4.563  75.813 116.435  0.00  0.00     0.161 C 
ATOM      2  C   LIG d   1      -3.708  74.703 116.533  0.00  0.00     0.016 C 
ATOM      3  C   LIG d   1      -2.705  74.578 117.522  0.00  0.00     0.038 C 
ATOM      4  C   LIG d   1      -2.590  75.492 118.580  0.00  0.00     0.028 C 
ATOM      5  C   LIG d   1      -3.102  76.886 118.235  0.00  0.00    -0.047 C 
ATOM      6  C   LIG d   1      -4.526  76.767 117.647  0.00  0.00     0.091 C 
ENDROOT
BRANCH   1   7
ATOM      7  O   LIG d   1      -5.912  75.369 116.188  0.00  0.00    -0.368 OA
BRANCH   7   8
ATOM      8  C   LIG d   1      -6.456  74.421 117.139  0.00  0.00     0.119 C 
BRANCH   8   9
ATOM      9  C   LIG d   1      -6.841  73.150 116.357  0.00  0.00     0.028 C 
ATOM     10  C   LIG d   1      -7.951  72.345 117.056  0.00  0.00     0.006 C 
ENDBRANCH   8   9
BRANCH   8  11
ATOM     11  C   LIG d   1      -7.763  74.933 117.751  0.00  0.00     0.028 C 
ATOM     12  C   LIG d   1      -8.264  76.227 117.089  0.00  0.00     0.006 C 
ENDBRANCH   8  11
ENDBRANCH   7   8
ENDBRANCH   1   7
BRANCH   6  13
ATOM     13  N   LIG d   1      -5.069  78.078 117.204  0.00  0.00    -0.311 N 
ATOM     14  C   LIG d   1      -5.843  78.847 117.968  0.00  0.00     0.210 C 
ATOM     15  C   LIG d   1      -6.310  80.149 117.311  0.00  0.00     0.109 C 
ATOM     16  O   LIG d   1      -6.160  78.589 119.139  0.00  0.00    -0.276 OA
ATOM     17  H   LIG d   1      -4.835  78.379 116.278  0.00  0.00     0.149 HD
ENDBRANCH   6  13
BRANCH   5  18
ATOM     18  N   LIG d   1      -3.050  77.698 119.466  0.00  0.00     0.381 N 
ATOM     19  H   LIG d   1      -2.637  78.587 119.268  0.00  0.00    -0.090 HD
ATOM     20  H   LIG d   1      -2.475  77.226 120.142  0.00  0.00    -0.090 HD
ATOM     21  H   LIG d   1      -3.969  77.823 119.830  0.00  0.00    -0.090 HD
ENDBRANCH   5  18
BRANCH   3  22
ATOM     22  C   LIG d   1      -1.779  73.550 117.436  0.00  0.00     0.382 C 
ATOM     23  O   LIG d   1      -1.192  73.325 116.350  0.00  0.00    -0.241 OA
ATOM     24  O   LIG d   1      -1.555  72.817 118.417  0.00  0.00    -0.241 OA
ENDBRANCH   3  22
TORSDOF 7
ENDMDL
MODEL 2
REMARK VINA RESULT:      -4.7      0.741      1.782
REMARK  7 active torsions:
REMARK  status: ('A' for Active; 'I' for Inactive)
REMARK    1  A    between atoms: C_2  and  C_3 
REMARK    2  A    between atoms: C_3  and  O_6 
REMARK    3  A    between atoms: C_3  and  C_4 
REMARK    4  A    between atoms: C_7  and  O_6 
REMARK    5  A    between atoms: C_9  and  C_10 
REMARK    6  A    between atoms: N_15  and  C_14 
REMARK    7  A    between atoms: N_20  and  C_19 
REMARK       I    between atoms: C_22  and  N_20 
ROOT
ATOM      1  C   LIG d   1      -4.483  75.640 117.153  0.00  0.00     0.161 C 
ATOM      2  C   LIG d   1      -3.639  74.517 117.175  0.00  0.00     0.016 C 
ATOM      3  C   LIG d   1      -2.284  74.570 117.572  0.00  0.00     0.038 C 
ATOM      4  C   LIG d   1      -1.717  75.729 118.122  0.00  0.00     0.028 C 
ATOM      5  C   LIG d   1      -2.387  77.015 117.649  0.00  0.00    -0.047 C 
ATOM      6  C   LIG d   1      -3.914  76.891 117.855  0.00  0.00     0.091 C 
ENDROOT
BRANCH   1   7
ATOM      7  O   LIG d   1      -5.769  75.297 117.707  0.00  0.00    -0.368 OA
BRANCH   7   8
ATOM      8  C   LIG d   1      -6.788  74.902 116.756  0.00  0.00     0.119 C 
BRANCH   8   9
ATOM      9  C   LIG d   1      -8.158  75.162 117.411  0.00  0.00     0.028 C 
ATOM     10  C   LIG d   1      -8.580  76.638 117.322  0.00  0.00     0.006 C 
ENDBRANCH   8   9
BRANCH   8  11
ATOM     11  C   LIG d   1      -6.746  73.395 116.487  0.00  0.00     0.028 C 
ATOM     12  C   LIG d   1      -7.777  72.613 117.316  0.00  0.00     0.006 C 
ENDBRANCH   8  11
ENDBRANCH   7   8
ENDBRANCH   1   7
BRANCH   6  13
ATOM     13  N   LIG d   1      -4.653  78.072 117.340  0.00  0.00    -0.311 N 
ATOM     14  C   LIG d   1      -5.529  78.764 118.067  0.00  0.00     0.210 C 
ATOM     15  C   LIG d   1      -6.195  79.934 117.337  0.00  0.00     0.109 C 
ATOM     16  O   LIG d   1      -5.793  78.538 119.258  0.00  0.00    -0.276 OA
ATOM     17  H   LIG d   1      -4.476  78.344 116.393  0.00  0.00     0.149 HD
ENDBRANCH   6  13
BRANCH   5  18
ATOM     18  N   LIG d   1      -1.790  78.133 118.403  0.00  0.00     0.381 N 
ATOM     19  H   LIG d   1      -2.277  78.981 118.194  0.00  0.00    -0.090 HD
ATOM     20  H   LIG d   1      -0.832  78.242 118.120  0.00  0.00    -0.090 HD
ATOM     21  H   LIG d   1      -1.836  77.947 119.381  0.00  0.00    -0.090 HD
ENDBRANCH   5  18
BRANCH   3  22
ATOM     22  C   LIG d   1      -1.468  73.465 117.383  0.00  0.00     0.382 C 
ATOM     23  O   LIG d   1      -1.229  72.691 118.341  0.00  0.00    -0.241 OA
ATOM     24  O   LIG d   1      -0.934  73.256 116.277  0.00  0.00    -0.241 OA
ENDBRANCH   3  22
TORSDOF 7
ENDMDL
MODEL 3
REMARK VINA RESULT:      -4.7      2.608      5.606
REMARK  7 active torsions:
REMARK  status: ('A' for Active; 'I' for Inactive)
REMARK    1  A    between atoms: C_2  and  C_3 
REMARK    2  A    between atoms: C_3  and  O_6 
REMARK    3  A    between atoms: C_3  and  C_4 
REMARK    4  A    between atoms: C_7  and  O_6 
REMARK    5  A    between atoms: C_9  and  C_10 
REMARK    6  A    between atoms: N_15  and  C_14 
REMARK    7  A    between atoms: N_20  and  C_19 
REMARK       I    between atoms: C_22  and  N_20 
ROOT
ATOM      1  C   LIG d   1      -6.725  77.418 117.689  0.00  0.00     0.161 C 
ATOM      2  C   LIG d   1      -8.028  77.871 117.954  0.00  0.00     0.016 C 
ATOM      3  C   LIG d   1      -8.377  79.239 118.025  0.00  0.00     0.038 C 
ATOM      4  C   LIG d   1      -7.471  80.254 117.685  0.00  0.00     0.028 C 
ATOM      5  C   LIG d   1      -6.013  79.863 117.903  0.00  0.00    -0.047 C 
ATOM      6  C   LIG d   1      -5.747  78.509 117.205  0.00  0.00     0.091 C 
ENDROOT
BRANCH   1   7
ATOM      7  O   LIG d   1      -6.769  76.330 116.745  0.00  0.00    -0.368 OA
BRANCH   7   8
ATOM      8  C   LIG d   1      -6.422  75.022 117.263  0.00  0.00     0.119 C 
BRANCH   8   9
ATOM      9  C   LIG d   1      -5.528  74.331 116.215  0.00  0.00     0.028 C 
ATOM     10  C   LIG d   1      -4.033  74.430 116.562  0.00  0.00     0.006 C 
ENDBRANCH   8   9
BRANCH   8  11
ATOM     11  C   LIG d   1      -7.659  74.129 117.394  0.00  0.00     0.028 C 
ATOM     12  C   LIG d   1      -7.421  72.702 116.874  0.00  0.00     0.006 C 
ENDBRANCH   8  11
ENDBRANCH   7   8
ENDBRANCH   1   7
BRANCH   6  13
ATOM     13  N   LIG d   1      -4.366  78.012 117.440  0.00  0.00    -0.311 N 
ATOM     14  C   LIG d   1      -3.316  78.396 116.716  0.00  0.00     0.210 C 
ATOM     15  C   LIG d   1      -1.986  77.746 117.112  0.00  0.00     0.109 C 
ATOM     16  O   LIG d   1      -3.354  79.236 115.805  0.00  0.00    -0.276 OA
ATOM     17  H   LIG d   1      -4.240  77.350 118.181  0.00  0.00     0.149 HD
ENDBRANCH   6  13
BRANCH   5  18
ATOM     18  N   LIG d   1      -5.174  80.958 117.379  0.00  0.00     0.381 N 
ATOM     19  H   LIG d   1      -4.438  81.160 118.026  0.00  0.00    -0.090 HD
ATOM     20  H   LIG d   1      -5.741  81.781 117.279  0.00  0.00    -0.090 HD
ATOM     21  H   LIG d   1      -4.790  80.701 116.497  0.00  0.00    -0.090 HD
ENDBRANCH   5  18
BRANCH   3  22
ATOM     22  C   LIG d   1      -9.635  79.605 118.480  0.00  0.00     0.382 C 
ATOM     23  O   LIG d   1     -10.582  78.784 118.431  0.00  0.00    -0.241 OA
ATOM     24  O   LIG d   1      -9.845  80.760 118.897  0.00  0.00    -0.241 OA
ENDBRANCH   3  22
TORSDOF 7
ENDMDL
MODEL 4
REMARK VINA RESULT:      -4.7      3.149      5.905
REMARK  7 active torsions:
REMARK  status: ('A' for Active; 'I' for Inactive)
REMARK    1  A    between atoms: C_2  and  C_3 
REMARK    2  A    between atoms: C_3  and  O_6 
REMARK    3  A    between atoms: C_3  and  C_4 
REMARK    4  A    between atoms: C_7  and  O_6 
REMARK    5  A    between atoms: C_9  and  C_10 
REMARK    6  A    between atoms: N_15  and  C_14 
REMARK    7  A    between atoms: N_20  and  C_19 
REMARK       I    between atoms: C_22  and  N_20 
ROOT
ATOM      1  C   LIG d   1      -5.883  78.740 117.320  0.00  0.00     0.161 C 
ATOM      2  C   LIG d   1      -7.179  78.205 117.413  0.00  0.00     0.016 C 
ATOM      3  C   LIG d   1      -8.318  78.977 117.739  0.00  0.00     0.038 C 
ATOM      4  C   LIG d   1      -8.261  80.374 117.847  0.00  0.00     0.028 C 
ATOM      5  C   LIG d   1      -6.888  80.894 118.259  0.00  0.00    -0.047 C 
ATOM      6  C   LIG d   1      -5.818  80.282 117.325  0.00  0.00     0.091 C 
ENDROOT
BRANCH   1   7
ATOM      7  O   LIG d   1      -5.220  78.215 116.153  0.00  0.00    -0.368 OA
BRANCH   7   8
ATOM      8  C   LIG d   1      -4.199  77.216 116.396  0.00  0.00     0.119 C 
BRANCH   8   9
ATOM      9  C   LIG d   1      -4.819  75.838 116.097  0.00  0.00     0.028 C 
ATOM     10  C   LIG d   1      -3.958  74.679 116.627  0.00  0.00     0.006 C 
ENDBRANCH   8   9
BRANCH   8  11
ATOM     11  C   LIG d   1      -3.804  77.171 117.876  0.00  0.00     0.028 C 
ATOM     12  C   LIG d   1      -2.387  77.707 118.131  0.00  0.00     0.006 C 
ENDBRANCH   8  11
ENDBRANCH   7   8
ENDBRANCH   1   7
BRANCH   6  13
ATOM     13  N   LIG d   1      -4.438  80.673 117.712  0.00  0.00    -0.311 N 
ATOM     14  C   LIG d   1      -3.669  81.473 116.976  0.00  0.00     0.210 C 
ATOM     15  C   LIG d   1      -2.271  81.732 117.547  0.00  0.00     0.109 C 
ATOM     16  O   LIG d   1      -4.022  82.018 115.919  0.00  0.00    -0.276 OA
ATOM     17  H   LIG d   1      -4.082  80.300 118.571  0.00  0.00     0.149 HD
ENDBRANCH   6  13
BRANCH   5  18
ATOM     18  N   LIG d   1      -6.932  82.367 118.199  0.00  0.00     0.381 N 
ATOM     19  H   LIG d   1      -6.562  82.682 117.324  0.00  0.00    -0.090 HD
ATOM     20  H   LIG d   1      -6.360  82.740 118.936  0.00  0.00    -0.090 HD
ATOM     21  H   LIG d   1      -7.871  82.685 118.304  0.00  0.00    -0.090 HD
ENDBRANCH   5  18
BRANCH   3  22
ATOM     22  C   LIG d   1      -9.524  78.345 118.000  0.00  0.00     0.382 C 
ATOM     23  O   LIG d   1     -10.374  78.896 118.740  0.00  0.00    -0.241 OA
ATOM     24  O   LIG d   1      -9.756  77.211 117.540  0.00  0.00    -0.241 OA
ENDBRANCH   3  22
TORSDOF 7
ENDMDL
MODEL 5
REMARK VINA RESULT:      -4.7      3.957      7.207
REMARK  7 active torsions:
REMARK  status: ('A' for Active; 'I' for Inactive)
REMARK    1  A    between atoms: C_2  and  C_3 
REMARK    2  A    between atoms: C_3  and  O_6 
REMARK    3  A    between atoms: C_3  and  C_4 
REMARK    4  A    between atoms: C_7  and  O_6 
REMARK    5  A    between atoms: C_9  and  C_10 
REMARK    6  A    between atoms: N_15  and  C_14 
REMARK    7  A    between atoms: N_20  and  C_19 
REMARK       I    between atoms: C_22  and  N_20 
ROOT
ATOM      1  C   LIG d   1      -8.122  79.485 119.126  0.00  0.00     0.161 C 
ATOM      2  C   LIG d   1      -9.317  79.292 119.838  0.00  0.00     0.016 C 
ATOM      3  C   LIG d   1      -9.996  80.330 120.516  0.00  0.00     0.038 C 
ATOM      4  C   LIG d   1      -9.602  81.672 120.402  0.00  0.00     0.028 C 
ATOM      5  C   LIG d   1      -8.115  81.844 120.110  0.00  0.00    -0.047 C 
ATOM      6  C   LIG d   1      -7.737  80.962 118.898  0.00  0.00     0.091 C 
ENDROOT
BRANCH   1   7
ATOM      7  O   LIG d   1      -8.182  78.783 117.869  0.00  0.00    -0.368 OA
BRANCH   7   8
ATOM      8  C   LIG d   1      -7.509  77.501 117.822  0.00  0.00     0.119 C 
BRANCH   8   9
ATOM      9  C   LIG d   1      -6.299  77.648 116.880  0.00  0.00     0.028 C 
ATOM     10  C   LIG d   1      -4.959  77.589 117.632  0.00  0.00     0.006 C 
ENDBRANCH   8   9
BRANCH   8  11
ATOM     11  C   LIG d   1      -8.395  76.429 117.180  0.00  0.00     0.028 C 
ATOM     12  C   LIG d   1      -7.946  75.000 117.523  0.00  0.00     0.006 C 
ENDBRANCH   8  11
ENDBRANCH   7   8
ENDBRANCH   1   7
BRANCH   6  13
ATOM     13  N   LIG d   1      -6.282  81.006 118.597  0.00  0.00    -0.311 N 
ATOM     14  C   LIG d   1      -5.790  81.321 117.400  0.00  0.00     0.210 C 
ATOM     15  C   LIG d   1      -4.262  81.287 117.299  0.00  0.00     0.109 C 
ATOM     16  O   LIG d   1      -6.473  81.657 116.420  0.00  0.00    -0.276 OA
ATOM     17  H   LIG d   1      -5.655  80.778 119.343  0.00  0.00     0.149 HD
ENDBRANCH   6  13
BRANCH   5  18
ATOM     18  N   LIG d   1      -7.869  83.280 119.879  0.00  0.00     0.381 N 
ATOM     19  H   LIG d   1      -7.215  83.624 120.553  0.00  0.00    -0.090 HD
ATOM     20  H   LIG d   1      -8.733  83.780 119.994  0.00  0.00    -0.090 HD
ATOM     21  H   LIG d   1      -7.515  83.422 118.959  0.00  0.00    -0.090 HD
ENDBRANCH   5  18
BRANCH   3  22
ATOM     22  C   LIG d   1     -11.059  80.025 121.352  0.00  0.00     0.382 C 
ATOM     23  O   LIG d   1     -11.617  78.904 121.274  0.00  0.00    -0.241 OA
ATOM     24  O   LIG d   1     -11.496  80.873 122.153  0.00  0.00    -0.241 OA
ENDBRANCH   3  22
TORSDOF 7
ENDMDL
MODEL 6
REMARK VINA RESULT:      -4.7     14.659     16.887
REMARK  7 active torsions:
REMARK  status: ('A' for Active; 'I' for Inactive)
REMARK    1  A    between atoms: C_2  and  C_3 
REMARK    2  A    between atoms: C_3  and  O_6 
REMARK    3  A    between atoms: C_3  and  C_4 
REMARK    4  A    between atoms: C_7  and  O_6 
REMARK    5  A    between atoms: C_9  and  C_10 
REMARK    6  A    between atoms: N_15  and  C_14 
REMARK    7  A    between atoms: N_20  and  C_19 
REMARK       I    between atoms: C_22  and  N_20 
ROOT
ATOM      1  C   LIG d   1      -4.238  91.896 119.152  0.00  0.00     0.161 C 
ATOM      2  C   LIG d   1      -5.334  91.462 118.388  0.00  0.00     0.016 C 
ATOM      3  C   LIG d   1      -5.210  90.620 117.259  0.00  0.00     0.038 C 
ATOM      4  C   LIG d   1      -3.989  90.027 116.906  0.00  0.00     0.028 C 
ATOM      5  C   LIG d   1      -2.773  90.837 117.345  0.00  0.00    -0.047 C 
ATOM      6  C   LIG d   1      -2.910  91.171 118.849  0.00  0.00     0.091 C 
ENDROOT
BRANCH   1   7
ATOM      7  O   LIG d   1      -4.552  91.799 120.556  0.00  0.00    -0.368 OA
BRANCH   7   8
ATOM      8  C   LIG d   1      -4.770  93.053 121.248  0.00  0.00     0.119 C 
BRANCH   8   9
ATOM      9  C   LIG d   1      -6.282  93.175 121.519  0.00  0.00     0.028 C 
ATOM     10  C   LIG d   1      -6.990  94.083 120.499  0.00  0.00     0.006 C 
ENDBRANCH   8   9
BRANCH   8  11
ATOM     11  C   LIG d   1      -4.421  94.249 120.358  0.00  0.00     0.028 C 
ATOM     12  C   LIG d   1      -3.208  95.041 120.873  0.00  0.00     0.006 C 
ENDBRANCH   8  11
ENDBRANCH   7   8
ENDBRANCH   1   7
BRANCH   6  13
ATOM     13  N   LIG d   1      -1.804  92.033 119.340  0.00  0.00    -0.311 N 
ATOM     14  C   LIG d   1      -0.700  91.555 119.912  0.00  0.00     0.210 C 
ATOM     15  C   LIG d   1       0.306  92.618 120.365  0.00  0.00     0.109 C 
ATOM     16  O   LIG d   1      -0.444  90.350 120.057  0.00  0.00    -0.276 OA
ATOM     17  H   LIG d   1      -1.915  93.023 119.234  0.00  0.00     0.149 HD
ENDBRANCH   6  13
BRANCH   5  18
ATOM     18  N   LIG d   1      -1.571  90.040 117.037  0.00  0.00     0.381 N 
ATOM     19  H   LIG d   1      -0.959  90.565 116.445  0.00  0.00    -0.090 HD
ATOM     20  H   LIG d   1      -1.850  89.209 116.545  0.00  0.00    -0.090 HD
ATOM     21  H   LIG d   1      -1.100  89.794 117.879  0.00  0.00    -0.090 HD
ENDBRANCH   5  18
BRANCH   3  22
ATOM     22  C   LIG d   1      -6.311  90.394 116.447  0.00  0.00     0.382 C 
ATOM     23  O   LIG d   1      -6.408  89.319 115.807  0.00  0.00    -0.241 OA
ATOM     24  O   LIG d   1      -7.186  91.269 116.311  0.00  0.00    -0.241 OA
ENDBRANCH   3  22
TORSDOF 7
ENDMDL
MODEL 7
REMARK VINA RESULT:      -4.7      3.713      6.242
REMARK  7 active torsions:
REMARK  status: ('A' for Active; 'I' for Inactive)
REMARK    1  A    between atoms: C_2  and  C_3 
REMARK    2  A    between atoms: C_3  and  O_6 
REMARK    3  A    between atoms: C_3  and  C_4 
REMARK    4  A    between atoms: C_7  and  O_6 
REMARK    5  A    between atoms: C_9  and  C_10 
REMARK    6  A    between atoms: N_15  and  C_14 
REMARK    7  A    between atoms: N_20  and  C_19 
REMARK       I    between atoms: C_22  and  N_20 
ROOT
ATOM      1  C   LIG d   1      -7.245  79.604 117.640  0.00  0.00     0.161 C 
ATOM      2  C   LIG d   1      -8.171  78.550 117.714  0.00  0.00     0.016 C 
ATOM      3  C   LIG d   1      -7.856  77.213 117.381  0.00  0.00     0.038 C 
ATOM      4  C   LIG d   1      -6.544  76.810 117.094  0.00  0.00     0.028 C 
ATOM      5  C   LIG d   1      -5.679  77.926 116.517  0.00  0.00    -0.047 C 
ATOM      6  C   LIG d   1      -5.780  79.164 117.436  0.00  0.00     0.091 C 
ENDROOT
BRANCH   1   7
ATOM      7  O   LIG d   1      -7.359  80.438 118.810  0.00  0.00    -0.368 OA
BRANCH   7   8
ATOM      8  C   LIG d   1      -7.610  81.844 118.569  0.00  0.00     0.119 C 
BRANCH   8   9
ATOM      9  C   LIG d   1      -6.870  82.641 119.661  0.00  0.00     0.028 C 
ATOM     10  C   LIG d   1      -5.646  81.888 120.209  0.00  0.00     0.006 C 
ENDBRANCH   8   9
BRANCH   8  11
ATOM     11  C   LIG d   1      -9.092  82.186 118.751  0.00  0.00     0.028 C 
ATOM     12  C   LIG d   1      -9.854  82.262 117.419  0.00  0.00     0.006 C 
ENDBRANCH   8  11
ENDBRANCH   7   8
ENDBRANCH   1   7
BRANCH   6  13
ATOM     13  N   LIG d   1      -5.031  80.331 116.900  0.00  0.00    -0.311 N 
ATOM     14  C   LIG d   1      -3.771  80.608 117.232  0.00  0.00     0.210 C 
ATOM     15  C   LIG d   1      -3.193  81.869 116.581  0.00  0.00     0.109 C 
ATOM     16  O   LIG d   1      -3.066  79.912 117.979  0.00  0.00    -0.276 OA
ATOM     17  H   LIG d   1      -5.516  80.931 116.263  0.00  0.00     0.149 HD
ENDBRANCH   6  13
BRANCH   5  18
ATOM     18  N   LIG d   1      -4.304  77.407 116.395  0.00  0.00     0.381 N 
ATOM     19  H   LIG d   1      -3.658  78.063 116.786  0.00  0.00    -0.090 HD
ATOM     20  H   LIG d   1      -4.085  77.292 115.421  0.00  0.00    -0.090 HD
ATOM     21  H   LIG d   1      -4.227  76.532 116.865  0.00  0.00    -0.090 HD
ENDBRANCH   5  18
BRANCH   3  22
ATOM     22  C   LIG d   1      -8.869  76.270 117.293  0.00  0.00     0.382 C 
ATOM     23  O   LIG d   1     -10.066  76.640 117.223  0.00  0.00    -0.241 OA
ATOM     24  O   LIG d   1      -8.604  75.053 117.328  0.00  0.00    -0.241 OA
ENDBRANCH   3  22
TORSDOF 7
ENDMDL
MODEL 8
REMARK VINA RESULT:      -4.5      4.324      6.678
REMARK  7 active torsions:
REMARK  status: ('A' for Active; 'I' for Inactive)
REMARK    1  A    between atoms: C_2  and  C_3 
REMARK    2  A    between atoms: C_3  and  O_6 
REMARK    3  A    between atoms: C_3  and  C_4 
REMARK    4  A    between atoms: C_7  and  O_6 
REMARK    5  A    between atoms: C_9  and  C_10 
REMARK    6  A    between atoms: N_15  and  C_14 
REMARK    7  A    between atoms: N_20  and  C_19 
REMARK       I    between atoms: C_22  and  N_20 
ROOT
ATOM      1  C   LIG d   1      -6.691  79.420 118.160  0.00  0.00     0.161 C 
ATOM      2  C   LIG d   1      -7.101  78.204 117.590  0.00  0.00     0.016 C 
ATOM      3  C   LIG d   1      -8.432  77.730 117.642  0.00  0.00     0.038 C 
ATOM      4  C   LIG d   1      -9.480  78.517 118.142  0.00  0.00     0.028 C 
ATOM      5  C   LIG d   1      -9.030  79.537 119.182  0.00  0.00    -0.047 C 
ATOM      6  C   LIG d   1      -7.841  80.344 118.611  0.00  0.00     0.091 C 
ENDROOT
BRANCH   1   7
ATOM      7  O   LIG d   1      -5.817  80.117 117.250  0.00  0.00    -0.368 OA
BRANCH   7   8
ATOM      8  C   LIG d   1      -4.399  80.032 117.537  0.00  0.00     0.119 C 
BRANCH   8   9
ATOM      9  C   LIG d   1      -4.050  81.193 118.489  0.00  0.00     0.028 C 
ATOM     10  C   LIG d   1      -3.374  80.708 119.782  0.00  0.00     0.006 C 
ENDBRANCH   8   9
BRANCH   8  11
ATOM     11  C   LIG d   1      -3.561  80.274 116.278  0.00  0.00     0.028 C 
ATOM     12  C   LIG d   1      -3.110  81.736 116.134  0.00  0.00     0.006 C 
ENDBRANCH   8  11
ENDBRANCH   7   8
ENDBRANCH   1   7
BRANCH   6  13
ATOM     13  N   LIG d   1      -7.285  81.307 119.597  0.00  0.00    -0.311 N 
ATOM     14  C   LIG d   1      -7.673  82.578 119.680  0.00  0.00     0.210 C 
ATOM     15  C   LIG d   1      -6.958  83.405 120.753  0.00  0.00     0.109 C 
ATOM     16  O   LIG d   1      -8.565  83.092 118.988  0.00  0.00    -0.276 OA
ATOM     17  H   LIG d   1      -6.578  80.966 120.219  0.00  0.00     0.149 HD
ENDBRANCH   6  13
BRANCH   5  18
ATOM     18  N   LIG d   1     -10.195  80.379 119.514  0.00  0.00     0.381 N 
ATOM     19  H   LIG d   1     -10.787  80.468 118.713  0.00  0.00    -0.090 HD
ATOM     20  H   LIG d   1      -9.871  81.295 119.771  0.00  0.00    -0.090 HD
ATOM     21  H   LIG d   1     -10.703  79.975 120.269  0.00  0.00    -0.090 HD
ENDBRANCH   5  18
BRANCH   3  22
ATOM     22  C   LIG d   1      -8.718  76.438 117.228  0.00  0.00     0.382 C 
ATOM     23  O   LIG d   1      -9.911  76.065 117.116  0.00  0.00    -0.241 OA
ATOM     24  O   LIG d   1      -7.799  75.627 117.007  0.00  0.00    -0.241 OA
ENDBRANCH   3  22
TORSDOF 7
ENDMDL
MODEL 9
REMARK VINA RESULT:      -4.4     12.979     15.744
REMARK  7 active torsions:
REMARK  status: ('A' for Active; 'I' for Inactive)
REMARK    1  A    between atoms: C_2  and  C_3 
REMARK    2  A    between atoms: C_3  and  O_6 
REMARK    3  A    between atoms: C_3  and  C_4 
REMARK    4  A    between atoms: C_7  and  O_6 
REMARK    5  A    between atoms: C_9  and  C_10 
REMARK    6  A    between atoms: N_15  and  C_14 
REMARK    7  A    between atoms: N_20  and  C_19 
REMARK       I    between atoms: C_22  and  N_20 
ROOT
ATOM      1  C   LIG d   1       1.022  89.603 116.725  0.00  0.00     0.161 C 
ATOM      2  C   LIG d   1       2.306  90.129 116.941  0.00  0.00     0.016 C 
ATOM      3  C   LIG d   1       2.540  91.403 117.508  0.00  0.00     0.038 C 
ATOM      4  C   LIG d   1       1.500  92.180 118.040  0.00  0.00     0.028 C 
ATOM      5  C   LIG d   1       0.148  91.911 117.387  0.00  0.00    -0.047 C 
ATOM      6  C   LIG d   1      -0.121  90.389 117.400  0.00  0.00     0.091 C 
ENDROOT
BRANCH   1   7
ATOM      7  O   LIG d   1       0.986  88.220 117.129  0.00  0.00    -0.368 OA
BRANCH   7   8
ATOM      8  C   LIG d   1       2.266  87.548 117.216  0.00  0.00     0.119 C 
BRANCH   8   9
ATOM      9  C   LIG d   1       2.271  86.423 116.162  0.00  0.00     0.028 C 
ATOM     10  C   LIG d   1       0.853  85.948 115.805  0.00  0.00     0.006 C 
ENDBRANCH   8   9
BRANCH   8  11
ATOM     11  C   LIG d   1       2.434  86.840 118.564  0.00  0.00     0.028 C 
ATOM     12  C   LIG d   1       2.772  87.810 119.708  0.00  0.00     0.006 C 
ENDBRANCH   8  11
ENDBRANCH   7   8
ENDBRANCH   1   7
BRANCH   6  13
ATOM     13  N   LIG d   1      -1.385  90.031 116.705  0.00  0.00    -0.311 N 
ATOM     14  C   LIG d   1      -2.531  89.795 117.343  0.00  0.00     0.210 C 
ATOM     15  C   LIG d   1      -3.709  89.422 116.437  0.00  0.00     0.109 C 
ATOM     16  O   LIG d   1      -2.691  89.890 118.569  0.00  0.00    -0.276 OA
ATOM     17  H   LIG d   1      -1.353  89.963 115.707  0.00  0.00     0.149 HD
ENDBRANCH   6  13
BRANCH   5  18
ATOM     18  N   LIG d   1      -0.866  92.685 118.128  0.00  0.00     0.381 N 
ATOM     19  H   LIG d   1      -0.649  92.679 119.105  0.00  0.00    -0.090 HD
ATOM     20  H   LIG d   1      -1.763  92.249 118.001  0.00  0.00    -0.090 HD
ATOM     21  H   LIG d   1      -0.893  93.622 117.791  0.00  0.00    -0.090 HD
ENDBRANCH   5  18
BRANCH   3  22
ATOM     22  C   LIG d   1       3.823  91.929 117.511  0.00  0.00     0.382 C 
ATOM     23  O   LIG d   1       4.066  92.993 116.891  0.00  0.00    -0.241 OA
ATOM     24  O   LIG d   1       4.750  91.330 118.088  0.00  0.00    -0.241 OA
ENDBRANCH   3  22
TORSDOF 7
ENDMDL
