MODEL 1
REMARK VINA RESULT:      -5.2      0.000      0.000
REMARK  7 active torsions:
REMARK  status: ('A' for Active; 'I' for Inactive)
REMARK    1  A    between atoms: C_2  and  C_3 
REMARK    2  A    between atoms: C_3  and  O_6 
REMARK    3  A    between atoms: C_3  and  C_4 
REMARK    4  A    between atoms: C_7  and  O_6 
REMARK    5  A    between atoms: C_9  and  C_10 
REMARK    6  A    between atoms: N_15  and  C_14 
REMARK    7  A    between atoms: N_20  and  C_19 
REMARK       I    between atoms: C_22  and  N_20 
ROOT
ATOM      1  C   LIG d   1      -9.076  75.769 119.017  0.00  0.00     0.161 C 
ATOM      2  C   LIG d   1      -8.963  74.511 118.403  0.00  0.00     0.016 C 
ATOM      3  C   LIG d   1     -10.032  73.874 117.731  0.00  0.00     0.038 C 
ATOM      4  C   LIG d   1     -11.252  74.525 117.495  0.00  0.00     0.028 C 
ATOM      5  C   LIG d   1     -11.579  75.594 118.532  0.00  0.00    -0.047 C 
ATOM      6  C   LIG d   1     -10.367  76.543 118.674  0.00  0.00     0.091 C 
ENDROOT
BRANCH   1   7
ATOM      7  O   LIG d   1      -7.917  76.568 118.709  0.00  0.00    -0.368 OA
BRANCH   7   8
ATOM      8  C   LIG d   1      -7.969  77.318 117.470  0.00  0.00     0.119 C 
BRANCH   8   9
ATOM      9  C   LIG d   1      -7.015  76.633 116.474  0.00  0.00     0.028 C 
ATOM     10  C   LIG d   1      -5.777  76.034 117.163  0.00  0.00     0.006 C 
ENDBRANCH   8   9
BRANCH   8  11
ATOM     11  C   LIG d   1      -7.417  78.735 117.652  0.00  0.00     0.028 C 
ATOM     12  C   LIG d   1      -7.079  79.059 119.116  0.00  0.00     0.006 C 
ENDBRANCH   8  11
ENDBRANCH   7   8
ENDBRANCH   1   7
BRANCH   6  13
ATOM     13  N   LIG d   1     -10.570  77.569 119.730  0.00  0.00    -0.311 N 
ATOM     14  C   LIG d   1     -10.747  78.863 119.470  0.00  0.00     0.210 C 
ATOM     15  C   LIG d   1     -10.919  79.753 120.705  0.00  0.00     0.109 C 
ATOM     16  O   LIG d   1     -10.810  79.354 118.333  0.00  0.00    -0.276 OA
ATOM     17  H   LIG d   1     -10.564  77.253 120.680  0.00  0.00     0.149 HD
ENDBRANCH   6  13
BRANCH   5  18
ATOM     18  N   LIG d   1     -12.805  76.285 118.089  0.00  0.00     0.381 N 
ATOM     19  H   LIG d   1     -12.602  77.245 117.897  0.00  0.00    -0.090 HD
ATOM     20  H   LIG d   1     -13.484  76.247 118.829  0.00  0.00    -0.090 HD
ATOM     21  H   LIG d   1     -13.168  75.845 117.273  0.00  0.00    -0.090 HD
ENDBRANCH   5  18
BRANCH   3  22
ATOM     22  C   LIG d   1      -9.899  72.556 117.322  0.00  0.00     0.382 C 
ATOM     23  O   LIG d   1     -10.201  71.623 118.104  0.00  0.00    -0.241 OA
ATOM     24  O   LIG d   1      -9.437  72.288 116.196  0.00  0.00    -0.241 OA
ENDBRANCH   3  22
TORSDOF 7
ENDMDL
MODEL 2
REMARK VINA RESULT:      -5.0      1.392      2.193
REMARK  7 active torsions:
REMARK  status: ('A' for Active; 'I' for Inactive)
REMARK    1  A    between atoms: C_2  and  C_3 
REMARK    2  A    between atoms: C_3  and  O_6 
REMARK    3  A    between atoms: C_3  and  C_4 
REMARK    4  A    between atoms: C_7  and  O_6 
REMARK    5  A    between atoms: C_9  and  C_10 
REMARK    6  A    between atoms: N_15  and  C_14 
REMARK    7  A    between atoms: N_20  and  C_19 
REMARK       I    between atoms: C_22  and  N_20 
ROOT
ATOM      1  C   LIG d   1      -8.827  75.532 117.529  0.00  0.00     0.161 C 
ATOM      2  C   LIG d   1      -8.613  74.156 117.348  0.00  0.00     0.016 C 
ATOM      3  C   LIG d   1      -9.659  73.206 117.296  0.00  0.00     0.038 C 
ATOM      4  C   LIG d   1     -11.008  73.590 117.270  0.00  0.00     0.028 C 
ATOM      5  C   LIG d   1     -11.272  74.925 117.958  0.00  0.00    -0.047 C 
ATOM      6  C   LIG d   1     -10.297  75.982 117.391  0.00  0.00     0.091 C 
ENDROOT
BRANCH   1   7
ATOM      7  O   LIG d   1      -7.988  76.280 116.626  0.00  0.00    -0.368 OA
BRANCH   7   8
ATOM      8  C   LIG d   1      -6.614  76.469 117.043  0.00  0.00     0.119 C 
BRANCH   8   9
ATOM      9  C   LIG d   1      -6.419  77.971 117.328  0.00  0.00     0.028 C 
ATOM     10  C   LIG d   1      -6.703  78.332 118.796  0.00  0.00     0.006 C 
ENDBRANCH   8   9
BRANCH   8  11
ATOM     11  C   LIG d   1      -5.637  76.142 115.910  0.00  0.00     0.028 C 
ATOM     12  C   LIG d   1      -5.228  74.661 115.886  0.00  0.00     0.006 C 
ENDBRANCH   8  11
ENDBRANCH   7   8
ENDBRANCH   1   7
BRANCH   6  13
ATOM     13  N   LIG d   1     -10.430  77.298 118.070  0.00  0.00    -0.311 N 
ATOM     14  C   LIG d   1     -10.316  77.458 119.388  0.00  0.00     0.210 C 
ATOM     15  C   LIG d   1     -10.508  78.894 119.883  0.00  0.00     0.109 C 
ATOM     16  O   LIG d   1     -10.043  76.552 120.189  0.00  0.00    -0.276 OA
ATOM     17  H   LIG d   1     -10.621  78.092 117.492  0.00  0.00     0.149 HD
ENDBRANCH   6  13
BRANCH   5  18
ATOM     18  N   LIG d   1     -12.689  75.268 117.737  0.00  0.00     0.381 N 
ATOM     19  H   LIG d   1     -13.099  74.620 117.095  0.00  0.00    -0.090 HD
ATOM     20  H   LIG d   1     -12.742  76.188 117.335  0.00  0.00    -0.090 HD
ATOM     21  H   LIG d   1     -13.184  75.247 118.602  0.00  0.00    -0.090 HD
ENDBRANCH   5  18
BRANCH   3  22
ATOM     22  C   LIG d   1      -9.360  71.852 117.309  0.00  0.00     0.382 C 
ATOM     23  O   LIG d   1      -9.168  71.263 118.400  0.00  0.00    -0.241 OA
ATOM     24  O   LIG d   1      -9.235  71.222 116.242  0.00  0.00    -0.241 OA
ENDBRANCH   3  22
TORSDOF 7
ENDMDL
MODEL 3
REMARK VINA RESULT:      -4.8      1.958      5.112
REMARK  7 active torsions:
REMARK  status: ('A' for Active; 'I' for Inactive)
REMARK    1  A    between atoms: C_2  and  C_3 
REMARK    2  A    between atoms: C_3  and  O_6 
REMARK    3  A    between atoms: C_3  and  C_4 
REMARK    4  A    between atoms: C_7  and  O_6 
REMARK    5  A    between atoms: C_9  and  C_10 
REMARK    6  A    between atoms: N_15  and  C_14 
REMARK    7  A    between atoms: N_20  and  C_19 
REMARK       I    between atoms: C_22  and  N_20 
ROOT
ATOM      1  C   LIG d   1      -8.161  77.259 117.473  0.00  0.00     0.161 C 
ATOM      2  C   LIG d   1      -7.910  78.633 117.624  0.00  0.00     0.016 C 
ATOM      3  C   LIG d   1      -8.813  79.525 118.248  0.00  0.00     0.038 C 
ATOM      4  C   LIG d   1      -9.969  79.073 118.902  0.00  0.00     0.028 C 
ATOM      5  C   LIG d   1     -10.512  77.765 118.337  0.00  0.00    -0.047 C 
ATOM      6  C   LIG d   1      -9.366  76.729 118.278  0.00  0.00     0.091 C 
ENDROOT
BRANCH   1   7
ATOM      7  O   LIG d   1      -6.974  76.507 117.794  0.00  0.00    -0.368 OA
BRANCH   7   8
ATOM      8  C   LIG d   1      -5.903  76.561 116.821  0.00  0.00     0.119 C 
BRANCH   8   9
ATOM      9  C   LIG d   1      -5.562  75.111 116.427  0.00  0.00     0.028 C 
ATOM     10  C   LIG d   1      -6.761  74.373 115.809  0.00  0.00     0.006 C 
ENDBRANCH   8   9
BRANCH   8  11
ATOM     11  C   LIG d   1      -4.619  77.127 117.435  0.00  0.00     0.028 C 
ATOM     12  C   LIG d   1      -4.234  78.496 116.855  0.00  0.00     0.006 C 
ENDBRANCH   8  11
ENDBRANCH   7   8
ENDBRANCH   1   7
BRANCH   6  13
ATOM     13  N   LIG d   1      -9.792  75.447 117.659  0.00  0.00    -0.311 N 
ATOM     14  C   LIG d   1      -9.708  74.270 118.277  0.00  0.00     0.210 C 
ATOM     15  C   LIG d   1     -10.183  73.070 117.452  0.00  0.00     0.109 C 
ATOM     16  O   LIG d   1      -9.315  74.111 119.443  0.00  0.00    -0.276 OA
ATOM     17  H   LIG d   1     -10.152  75.488 116.725  0.00  0.00     0.149 HD
ENDBRANCH   6  13
BRANCH   5  18
ATOM     18  N   LIG d   1     -11.633  77.339 119.197  0.00  0.00     0.381 N 
ATOM     19  H   LIG d   1     -11.284  77.047 120.088  0.00  0.00    -0.090 HD
ATOM     20  H   LIG d   1     -12.093  76.556 118.767  0.00  0.00    -0.090 HD
ATOM     21  H   LIG d   1     -12.277  78.090 119.313  0.00  0.00    -0.090 HD
ENDBRANCH   5  18
BRANCH   3  22
ATOM     22  C   LIG d   1      -8.582  80.891 118.187  0.00  0.00     0.382 C 
ATOM     23  O   LIG d   1      -7.868  81.365 117.272  0.00  0.00    -0.241 OA
ATOM     24  O   LIG d   1      -9.044  81.649 119.061  0.00  0.00    -0.241 OA
ENDBRANCH   3  22
TORSDOF 7
ENDMDL
MODEL 4
REMARK VINA RESULT:      -4.7      2.628      4.567
REMARK  7 active torsions:
REMARK  status: ('A' for Active; 'I' for Inactive)
REMARK    1  A    between atoms: C_2  and  C_3 
REMARK    2  A    between atoms: C_3  and  O_6 
REMARK    3  A    between atoms: C_3  and  C_4 
REMARK    4  A    between atoms: C_7  and  O_6 
REMARK    5  A    between atoms: C_9  and  C_10 
REMARK    6  A    between atoms: N_15  and  C_14 
REMARK    7  A    between atoms: N_20  and  C_19 
REMARK       I    between atoms: C_22  and  N_20 
ROOT
ATOM      1  C   LIG d   1      -8.871  78.164 118.271  0.00  0.00     0.161 C 
ATOM      2  C   LIG d   1     -10.170  77.666 118.468  0.00  0.00     0.016 C 
ATOM      3  C   LIG d   1     -10.583  76.381 118.047  0.00  0.00     0.038 C 
ATOM      4  C   LIG d   1      -9.676  75.442 117.533  0.00  0.00     0.028 C 
ATOM      5  C   LIG d   1      -8.468  76.077 116.853  0.00  0.00    -0.047 C 
ATOM      6  C   LIG d   1      -7.839  77.113 117.812  0.00  0.00     0.091 C 
ENDROOT
BRANCH   1   7
ATOM      7  O   LIG d   1      -8.415  78.824 119.468  0.00  0.00    -0.368 OA
BRANCH   7   8
ATOM      8  C   LIG d   1      -8.323  80.269 119.403  0.00  0.00     0.119 C 
BRANCH   8   9
ATOM      9  C   LIG d   1      -9.613  80.843 120.020  0.00  0.00     0.028 C 
ATOM     10  C   LIG d   1     -10.579  81.390 118.956  0.00  0.00     0.006 C 
ENDBRANCH   8   9
BRANCH   8  11
ATOM     11  C   LIG d   1      -8.313  80.762 117.953  0.00  0.00     0.028 C 
ATOM     12  C   LIG d   1      -7.070  81.601 117.618  0.00  0.00     0.006 C 
ENDBRANCH   8  11
ENDBRANCH   7   8
ENDBRANCH   1   7
BRANCH   6  13
ATOM     13  N   LIG d   1      -6.701  77.841 117.193  0.00  0.00    -0.311 N 
ATOM     14  C   LIG d   1      -5.515  77.984 117.781  0.00  0.00     0.210 C 
ATOM     15  C   LIG d   1      -4.487  78.788 116.978  0.00  0.00     0.109 C 
ATOM     16  O   LIG d   1      -5.205  77.494 118.878  0.00  0.00    -0.276 OA
ATOM     17  H   LIG d   1      -6.855  78.244 116.289  0.00  0.00     0.149 HD
ENDBRANCH   6  13
BRANCH   5  18
ATOM     18  N   LIG d   1      -7.541  74.990 116.486  0.00  0.00     0.381 N 
ATOM     19  H   LIG d   1      -7.955  74.105 116.700  0.00  0.00    -0.090 HD
ATOM     20  H   LIG d   1      -6.700  75.084 117.029  0.00  0.00    -0.090 HD
ATOM     21  H   LIG d   1      -7.325  75.038 115.515  0.00  0.00    -0.090 HD
ENDBRANCH   5  18
BRANCH   3  22
ATOM     22  C   LIG d   1     -11.925  76.038 118.103  0.00  0.00     0.382 C 
ATOM     23  O   LIG d   1     -12.781  76.903 118.408  0.00  0.00    -0.241 OA
ATOM     24  O   LIG d   1     -12.287  74.864 117.896  0.00  0.00    -0.241 OA
ENDBRANCH   3  22
TORSDOF 7
ENDMDL
MODEL 5
REMARK VINA RESULT:      -4.6     15.996     18.132
REMARK  7 active torsions:
REMARK  status: ('A' for Active; 'I' for Inactive)
REMARK    1  A    between atoms: C_2  and  C_3 
REMARK    2  A    between atoms: C_3  and  O_6 
REMARK    3  A    between atoms: C_3  and  C_4 
REMARK    4  A    between atoms: C_7  and  O_6 
REMARK    5  A    between atoms: C_9  and  C_10 
REMARK    6  A    between atoms: N_15  and  C_14 
REMARK    7  A    between atoms: N_20  and  C_19 
REMARK       I    between atoms: C_22  and  N_20 
ROOT
ATOM      1  C   LIG d   1      -5.148  93.158 119.534  0.00  0.00     0.161 C 
ATOM      2  C   LIG d   1      -4.136  92.340 119.004  0.00  0.00     0.016 C 
ATOM      3  C   LIG d   1      -4.229  91.703 117.746  0.00  0.00     0.038 C 
ATOM      4  C   LIG d   1      -5.285  91.964 116.859  0.00  0.00     0.028 C 
ATOM      5  C   LIG d   1      -6.572  92.386 117.558  0.00  0.00    -0.047 C 
ATOM      6  C   LIG d   1      -6.258  93.543 118.534  0.00  0.00     0.091 C 
ENDROOT
BRANCH   1   7
ATOM      7  O   LIG d   1      -4.566  94.341 120.117  0.00  0.00    -0.368 OA
BRANCH   7   8
ATOM      8  C   LIG d   1      -4.201  95.394 119.191  0.00  0.00     0.119 C 
BRANCH   8   9
ATOM      9  C   LIG d   1      -2.690  95.646 119.350  0.00  0.00     0.028 C 
ATOM     10  C   LIG d   1      -1.889  95.212 118.111  0.00  0.00     0.006 C 
ENDBRANCH   8   9
BRANCH   8  11
ATOM     11  C   LIG d   1      -4.875  96.719 119.561  0.00  0.00     0.028 C 
ATOM     12  C   LIG d   1      -5.538  96.684 120.947  0.00  0.00     0.006 C 
ENDBRANCH   8  11
ENDBRANCH   7   8
ENDBRANCH   1   7
BRANCH   6  13
ATOM     13  N   LIG d   1      -7.448  93.960 119.321  0.00  0.00    -0.311 N 
ATOM     14  C   LIG d   1      -8.233  94.980 118.978  0.00  0.00     0.210 C 
ATOM     15  C   LIG d   1      -9.394  95.254 119.939  0.00  0.00     0.109 C 
ATOM     16  O   LIG d   1      -8.096  95.664 117.952  0.00  0.00    -0.276 OA
ATOM     17  H   LIG d   1      -7.650  93.440 120.152  0.00  0.00     0.149 HD
ENDBRANCH   6  13
BRANCH   5  18
ATOM     18  N   LIG d   1      -7.545  92.759 116.513  0.00  0.00     0.381 N 
ATOM     19  H   LIG d   1      -7.143  92.612 115.609  0.00  0.00    -0.090 HD
ATOM     20  H   LIG d   1      -7.764  93.735 116.607  0.00  0.00    -0.090 HD
ATOM     21  H   LIG d   1      -8.374  92.214 116.609  0.00  0.00    -0.090 HD
ENDBRANCH   5  18
BRANCH   3  22
ATOM     22  C   LIG d   1      -3.278  90.763 117.379  0.00  0.00     0.382 C 
ATOM     23  O   LIG d   1      -3.617  89.756 116.712  0.00  0.00    -0.241 OA
ATOM     24  O   LIG d   1      -2.094  90.886 117.746  0.00  0.00    -0.241 OA
ENDBRANCH   3  22
TORSDOF 7
ENDMDL
MODEL 6
REMARK VINA RESULT:      -4.5      2.038      2.930
REMARK  7 active torsions:
REMARK  status: ('A' for Active; 'I' for Inactive)
REMARK    1  A    between atoms: C_2  and  C_3 
REMARK    2  A    between atoms: C_3  and  O_6 
REMARK    3  A    between atoms: C_3  and  C_4 
REMARK    4  A    between atoms: C_7  and  O_6 
REMARK    5  A    between atoms: C_9  and  C_10 
REMARK    6  A    between atoms: N_15  and  C_14 
REMARK    7  A    between atoms: N_20  and  C_19 
REMARK       I    between atoms: C_22  and  N_20 
ROOT
ATOM      1  C   LIG d   1      -7.612  76.910 117.595  0.00  0.00     0.161 C 
ATOM      2  C   LIG d   1      -8.370  75.736 117.445  0.00  0.00     0.016 C 
ATOM      3  C   LIG d   1      -9.752  75.660 117.734  0.00  0.00     0.038 C 
ATOM      4  C   LIG d   1     -10.507  76.799 118.050  0.00  0.00     0.028 C 
ATOM      5  C   LIG d   1      -9.688  77.907 118.702  0.00  0.00    -0.047 C 
ATOM      6  C   LIG d   1      -8.442  78.189 117.832  0.00  0.00     0.091 C 
ENDROOT
BRANCH   1   7
ATOM      7  O   LIG d   1      -6.744  77.079 116.457  0.00  0.00    -0.368 OA
BRANCH   7   8
ATOM      8  C   LIG d   1      -5.324  77.132 116.742  0.00  0.00     0.119 C 
BRANCH   8   9
ATOM      9  C   LIG d   1      -4.627  76.126 115.805  0.00  0.00     0.028 C 
ATOM     10  C   LIG d   1      -4.828  74.669 116.254  0.00  0.00     0.006 C 
ENDBRANCH   8   9
BRANCH   8  11
ATOM     11  C   LIG d   1      -5.021  76.642 118.161  0.00  0.00     0.028 C 
ATOM     12  C   LIG d   1      -4.257  77.679 118.999  0.00  0.00     0.006 C 
ENDBRANCH   8  11
ENDBRANCH   7   8
ENDBRANCH   1   7
BRANCH   6  13
ATOM     13  N   LIG d   1      -7.542  79.202 118.443  0.00  0.00    -0.311 N 
ATOM     14  C   LIG d   1      -7.564  80.493 118.117  0.00  0.00     0.210 C 
ATOM     15  C   LIG d   1      -6.538  81.363 118.851  0.00  0.00     0.109 C 
ATOM     16  O   LIG d   1      -8.357  81.007 117.313  0.00  0.00    -0.276 OA
ATOM     17  H   LIG d   1      -6.887  78.877 119.127  0.00  0.00     0.149 HD
ENDBRANCH   6  13
BRANCH   5  18
ATOM     18  N   LIG d   1     -10.567  79.082 118.852  0.00  0.00     0.381 N 
ATOM     19  H   LIG d   1     -10.106  79.783 119.398  0.00  0.00    -0.090 HD
ATOM     20  H   LIG d   1     -11.402  78.804 119.335  0.00  0.00    -0.090 HD
ATOM     21  H   LIG d   1     -10.800  79.450 117.955  0.00  0.00    -0.090 HD
ENDBRANCH   5  18
BRANCH   3  22
ATOM     22  C   LIG d   1     -10.384  74.426 117.746  0.00  0.00     0.382 C 
ATOM     23  O   LIG d   1      -9.776  73.414 118.171  0.00  0.00    -0.241 OA
ATOM     24  O   LIG d   1     -11.539  74.303 117.296  0.00  0.00    -0.241 OA
ENDBRANCH   3  22
TORSDOF 7
ENDMDL
MODEL 7
REMARK VINA RESULT:      -4.3      2.341      4.434
REMARK  7 active torsions:
REMARK  status: ('A' for Active; 'I' for Inactive)
REMARK    1  A    between atoms: C_2  and  C_3 
REMARK    2  A    between atoms: C_3  and  O_6 
REMARK    3  A    between atoms: C_3  and  C_4 
REMARK    4  A    between atoms: C_7  and  O_6 
REMARK    5  A    between atoms: C_9  and  C_10 
REMARK    6  A    between atoms: N_15  and  C_14 
REMARK    7  A    between atoms: N_20  and  C_19 
REMARK       I    between atoms: C_22  and  N_20 
ROOT
ATOM      1  C   LIG d   1      -8.757  77.196 117.218  0.00  0.00     0.161 C 
ATOM      2  C   LIG d   1      -7.849  76.235 116.742  0.00  0.00     0.016 C 
ATOM      3  C   LIG d   1      -6.446  76.410 116.770  0.00  0.00     0.038 C 
ATOM      4  C   LIG d   1      -5.847  77.500 117.418  0.00  0.00     0.028 C 
ATOM      5  C   LIG d   1      -6.735  78.739 117.467  0.00  0.00    -0.047 C 
ATOM      6  C   LIG d   1      -8.119  78.342 118.030  0.00  0.00     0.091 C 
ENDROOT
BRANCH   1   7
ATOM      7  O   LIG d   1      -9.791  76.551 117.988  0.00  0.00    -0.368 OA
BRANCH   7   8
ATOM      8  C   LIG d   1      -9.492  75.214 118.462  0.00  0.00     0.119 C 
BRANCH   8   9
ATOM      9  C   LIG d   1     -10.564  74.269 117.886  0.00  0.00     0.028 C 
ATOM     10  C   LIG d   1     -10.032  72.843 117.666  0.00  0.00     0.006 C 
ENDBRANCH   8   9
BRANCH   8  11
ATOM     11  C   LIG d   1      -9.640  75.117 119.983  0.00  0.00     0.028 C 
ATOM     12  C   LIG d   1      -8.684  76.055 120.736  0.00  0.00     0.006 C 
ENDBRANCH   8  11
ENDBRANCH   7   8
ENDBRANCH   1   7
BRANCH   6  13
ATOM     13  N   LIG d   1      -9.077  79.478 118.033  0.00  0.00    -0.311 N 
ATOM     14  C   LIG d   1      -9.279  80.264 119.089  0.00  0.00     0.210 C 
ATOM     15  C   LIG d   1     -10.325  81.365 118.885  0.00  0.00     0.109 C 
ATOM     16  O   LIG d   1      -8.668  80.175 120.164  0.00  0.00    -0.276 OA
ATOM     17  H   LIG d   1      -9.593  79.642 117.190  0.00  0.00     0.149 HD
ENDBRANCH   6  13
BRANCH   5  18
ATOM     18  N   LIG d   1      -6.045  79.751 118.289  0.00  0.00     0.381 N 
ATOM     19  H   LIG d   1      -5.933  79.409 119.222  0.00  0.00    -0.090 HD
ATOM     20  H   LIG d   1      -6.609  80.582 118.322  0.00  0.00    -0.090 HD
ATOM     21  H   LIG d   1      -5.154  79.960 117.895  0.00  0.00    -0.090 HD
ENDBRANCH   5  18
BRANCH   3  22
ATOM     22  C   LIG d   1      -5.628  75.507 116.108  0.00  0.00     0.382 C 
ATOM     23  O   LIG d   1      -6.048  74.353 115.849  0.00  0.00    -0.241 OA
ATOM     24  O   LIG d   1      -4.459  75.816 115.806  0.00  0.00    -0.241 OA
ENDBRANCH   3  22
TORSDOF 7
ENDMDL
MODEL 8
REMARK VINA RESULT:      -4.3     15.645     18.386
REMARK  7 active torsions:
REMARK  status: ('A' for Active; 'I' for Inactive)
REMARK    1  A    between atoms: C_2  and  C_3 
REMARK    2  A    between atoms: C_3  and  O_6 
REMARK    3  A    between atoms: C_3  and  C_4 
REMARK    4  A    between atoms: C_7  and  O_6 
REMARK    5  A    between atoms: C_9  and  C_10 
REMARK    6  A    between atoms: N_15  and  C_14 
REMARK    7  A    between atoms: N_20  and  C_19 
REMARK       I    between atoms: C_22  and  N_20 
ROOT
ATOM      1  C   LIG d   1      -4.809  93.610 118.944  0.00  0.00     0.161 C 
ATOM      2  C   LIG d   1      -4.297  92.506 118.244  0.00  0.00     0.016 C 
ATOM      3  C   LIG d   1      -5.044  91.770 117.296  0.00  0.00     0.038 C 
ATOM      4  C   LIG d   1      -6.315  92.186 116.870  0.00  0.00     0.028 C 
ATOM      5  C   LIG d   1      -7.068  93.001 117.915  0.00  0.00    -0.047 C 
ATOM      6  C   LIG d   1      -6.155  94.146 118.411  0.00  0.00     0.091 C 
ENDROOT
BRANCH   1   7
ATOM      7  O   LIG d   1      -3.828  94.666 118.977  0.00  0.00    -0.368 OA
BRANCH   7   8
ATOM      8  C   LIG d   1      -3.236  94.945 120.270  0.00  0.00     0.119 C 
BRANCH   8   9
ATOM      9  C   LIG d   1      -3.290  96.470 120.484  0.00  0.00     0.028 C 
ATOM     10  C   LIG d   1      -3.883  97.212 119.274  0.00  0.00     0.006 C 
ENDBRANCH   8   9
BRANCH   8  11
ATOM     11  C   LIG d   1      -1.748  94.585 120.291  0.00  0.00     0.028 C 
ATOM     12  C   LIG d   1      -1.124  94.548 118.887  0.00  0.00     0.006 C 
ENDBRANCH   8  11
ENDBRANCH   7   8
ENDBRANCH   1   7
BRANCH   6  13
ATOM     13  N   LIG d   1      -6.784  94.942 119.497  0.00  0.00    -0.311 N 
ATOM     14  C   LIG d   1      -7.484  96.054 119.280  0.00  0.00     0.210 C 
ATOM     15  C   LIG d   1      -8.029  96.732 120.541  0.00  0.00     0.109 C 
ATOM     16  O   LIG d   1      -7.732  96.526 118.160  0.00  0.00    -0.276 OA
ATOM     17  H   LIG d   1      -6.658  94.614 120.435  0.00  0.00     0.149 HD
ENDBRANCH   6  13
BRANCH   5  18
ATOM     18  N   LIG d   1      -8.314  93.485 117.291  0.00  0.00     0.381 N 
ATOM     19  H   LIG d   1      -9.042  93.524 117.976  0.00  0.00    -0.090 HD
ATOM     20  H   LIG d   1      -8.590  92.838 116.574  0.00  0.00    -0.090 HD
ATOM     21  H   LIG d   1      -8.169  94.388 116.897  0.00  0.00    -0.090 HD
ENDBRANCH   5  18
BRANCH   3  22
ATOM     22  C   LIG d   1      -4.537  90.582 116.792  0.00  0.00     0.382 C 
ATOM     23  O   LIG d   1      -3.511  90.072 117.304  0.00  0.00    -0.241 OA
ATOM     24  O   LIG d   1      -5.066  90.037 115.805  0.00  0.00    -0.241 OA
ENDBRANCH   3  22
TORSDOF 7
ENDMDL
MODEL 9
REMARK VINA RESULT:      -4.3      2.490      3.892
REMARK  7 active torsions:
REMARK  status: ('A' for Active; 'I' for Inactive)
REMARK    1  A    between atoms: C_2  and  C_3 
REMARK    2  A    between atoms: C_3  and  O_6 
REMARK    3  A    between atoms: C_3  and  C_4 
REMARK    4  A    between atoms: C_7  and  O_6 
REMARK    5  A    between atoms: C_9  and  C_10 
REMARK    6  A    between atoms: N_15  and  C_14 
REMARK    7  A    between atoms: N_20  and  C_19 
REMARK       I    between atoms: C_22  and  N_20 
ROOT
ATOM      1  C   LIG d   1      -8.371  77.882 118.175  0.00  0.00     0.161 C 
ATOM      2  C   LIG d   1      -7.257  77.657 117.350  0.00  0.00     0.016 C 
ATOM      3  C   LIG d   1      -6.966  76.405 116.760  0.00  0.00     0.038 C 
ATOM      4  C   LIG d   1      -7.858  75.325 116.833  0.00  0.00     0.028 C 
ATOM      5  C   LIG d   1      -8.746  75.357 118.073  0.00  0.00    -0.047 C 
ATOM      6  C   LIG d   1      -9.416  76.746 118.175  0.00  0.00     0.091 C 
ENDROOT
BRANCH   1   7
ATOM      7  O   LIG d   1      -8.993  79.134 117.824  0.00  0.00    -0.368 OA
BRANCH   7   8
ATOM      8  C   LIG d   1      -9.052  80.133 118.872  0.00  0.00     0.119 C 
BRANCH   8   9
ATOM      9  C   LIG d   1      -8.582  81.469 118.266  0.00  0.00     0.028 C 
ATOM     10  C   LIG d   1      -7.130  81.408 117.764  0.00  0.00     0.006 C 
ENDBRANCH   8   9
BRANCH   8  11
ATOM     11  C   LIG d   1      -8.055  79.823 119.993  0.00  0.00     0.028 C 
ATOM     12  C   LIG d   1      -8.381  80.561 121.301  0.00  0.00     0.006 C 
ENDBRANCH   8  11
ENDBRANCH   7   8
ENDBRANCH   1   7
BRANCH   6  13
ATOM     13  N   LIG d   1     -10.236  76.891 119.406  0.00  0.00    -0.311 N 
ATOM     14  C   LIG d   1     -11.553  77.092 119.390  0.00  0.00     0.210 C 
ATOM     15  C   LIG d   1     -12.202  77.234 120.770  0.00  0.00     0.109 C 
ATOM     16  O   LIG d   1     -12.249  77.136 118.365  0.00  0.00    -0.276 OA
ATOM     17  H   LIG d   1      -9.756  76.837 120.283  0.00  0.00     0.149 HD
ENDBRANCH   6  13
BRANCH   5  18
ATOM     18  N   LIG d   1      -9.719  74.254 117.952  0.00  0.00     0.381 N 
ATOM     19  H   LIG d   1      -9.273  73.452 117.554  0.00  0.00    -0.090 HD
ATOM     20  H   LIG d   1     -10.460  74.540 117.337  0.00  0.00    -0.090 HD
ATOM     21  H   LIG d   1     -10.090  74.027 118.848  0.00  0.00    -0.090 HD
ENDBRANCH   5  18
BRANCH   3  22
ATOM     22  C   LIG d   1      -5.750  76.212 116.121  0.00  0.00     0.382 C 
ATOM     23  O   LIG d   1      -5.363  75.051 115.847  0.00  0.00    -0.241 OA
ATOM     24  O   LIG d   1      -5.016  77.183 115.855  0.00  0.00    -0.241 OA
ENDBRANCH   3  22
TORSDOF 7
ENDMDL
