MODEL 1
REMARK VINA RESULT:      -5.4      0.000      0.000
REMARK  7 active torsions:
REMARK  status: ('A' for Active; 'I' for Inactive)
REMARK    1  A    between atoms: C_2  and  C_3 
REMARK    2  A    between atoms: C_3  and  O_6 
REMARK    3  A    between atoms: C_3  and  C_4 
REMARK    4  A    between atoms: C_7  and  O_6 
REMARK    5  A    between atoms: C_9  and  C_10 
REMARK    6  A    between atoms: N_15  and  C_14 
REMARK    7  A    between atoms: N_20  and  C_19 
REMARK       I    between atoms: C_22  and  N_20 
ROOT
ATOM      1  C   LIG d   1      -6.161  93.238 118.717  0.00  0.00     0.161 C 
ATOM      2  C   LIG d   1      -7.053  92.487 117.935  0.00  0.00     0.016 C 
ATOM      3  C   LIG d   1      -6.652  91.407 117.115  0.00  0.00     0.038 C 
ATOM      4  C   LIG d   1      -5.342  90.905 117.140  0.00  0.00     0.028 C 
ATOM      5  C   LIG d   1      -4.301  91.949 117.530  0.00  0.00    -0.047 C 
ATOM      6  C   LIG d   1      -4.746  92.635 118.842  0.00  0.00     0.091 C 
ENDROOT
BRANCH   1   7
ATOM      7  O   LIG d   1      -6.726  93.463 120.023  0.00  0.00    -0.368 OA
BRANCH   7   8
ATOM      8  C   LIG d   1      -7.122  94.825 120.320  0.00  0.00     0.119 C 
BRANCH   8   9
ATOM      9  C   LIG d   1      -8.662  94.869 120.329  0.00  0.00     0.028 C 
ATOM     10  C   LIG d   1      -9.243  95.369 118.996  0.00  0.00     0.006 C 
ENDBRANCH   8   9
BRANCH   8  11
ATOM     11  C   LIG d   1      -6.695  95.785 119.205  0.00  0.00     0.028 C 
ATOM     12  C   LIG d   1      -5.684  96.840 119.681  0.00  0.00     0.006 C 
ENDBRANCH   8  11
ENDBRANCH   7   8
ENDBRANCH   1   7
BRANCH   6  13
ATOM     13  N   LIG d   1      -3.825  93.728 119.250  0.00  0.00    -0.311 N 
ATOM     14  C   LIG d   1      -2.815  93.557 120.101  0.00  0.00     0.210 C 
ATOM     15  C   LIG d   1      -2.001  94.820 120.401  0.00  0.00     0.109 C 
ATOM     16  O   LIG d   1      -2.495  92.472 120.610  0.00  0.00    -0.276 OA
ATOM     17  H   LIG d   1      -3.993  94.635 118.860  0.00  0.00     0.149 HD
ENDBRANCH   6  13
BRANCH   5  18
ATOM     18  N   LIG d   1      -3.002  91.260 117.650  0.00  0.00     0.381 N 
ATOM     19  H   LIG d   1      -2.883  90.627 116.885  0.00  0.00    -0.090 HD
ATOM     20  H   LIG d   1      -2.993  90.729 118.503  0.00  0.00    -0.090 HD
ATOM     21  H   LIG d   1      -2.262  91.926 117.658  0.00  0.00    -0.090 HD
ENDBRANCH   5  18
BRANCH   3  22
ATOM     22  C   LIG d   1      -7.557  90.842 116.230  0.00  0.00     0.382 C 
ATOM     23  O   LIG d   1      -8.524  91.519 115.805  0.00  0.00    -0.241 OA
ATOM     24  O   LIG d   1      -7.443  89.651 115.884  0.00  0.00    -0.241 OA
ENDBRANCH   3  22
TORSDOF 7
ENDMDL
MODEL 2
REMARK VINA RESULT:      -4.7      2.701      4.238
REMARK  7 active torsions:
REMARK  status: ('A' for Active; 'I' for Inactive)
REMARK    1  A    between atoms: C_2  and  C_3 
REMARK    2  A    between atoms: C_3  and  O_6 
REMARK    3  A    between atoms: C_3  and  C_4 
REMARK    4  A    between atoms: C_7  and  O_6 
REMARK    5  A    between atoms: C_9  and  C_10 
REMARK    6  A    between atoms: N_15  and  C_14 
REMARK    7  A    between atoms: N_20  and  C_19 
REMARK       I    between atoms: C_22  and  N_20 
ROOT
ATOM      1  C   LIG d   1      -6.297  93.256 119.500  0.00  0.00     0.161 C 
ATOM      2  C   LIG d   1      -5.085  92.584 119.266  0.00  0.00     0.016 C 
ATOM      3  C   LIG d   1      -4.835  91.814 118.107  0.00  0.00     0.038 C 
ATOM      4  C   LIG d   1      -5.730  91.786 117.027  0.00  0.00     0.028 C 
ATOM      5  C   LIG d   1      -7.177  92.039 117.433  0.00  0.00    -0.047 C 
ATOM      6  C   LIG d   1      -7.242  93.329 118.283  0.00  0.00     0.091 C 
ENDROOT
BRANCH   1   7
ATOM      7  O   LIG d   1      -6.031  94.579 120.008  0.00  0.00    -0.368 OA
BRANCH   7   8
ATOM      8  C   LIG d   1      -5.780  94.677 121.431  0.00  0.00     0.119 C 
BRANCH   8   9
ATOM      9  C   LIG d   1      -7.050  94.196 122.160  0.00  0.00     0.028 C 
ATOM     10  C   LIG d   1      -8.004  95.353 122.500  0.00  0.00     0.006 C 
ENDBRANCH   8   9
BRANCH   8  11
ATOM     11  C   LIG d   1      -5.590  96.133 121.865  0.00  0.00     0.028 C 
ATOM     12  C   LIG d   1      -5.323  97.077 120.682  0.00  0.00     0.006 C 
ENDBRANCH   8  11
ENDBRANCH   7   8
ENDBRANCH   1   7
BRANCH   6  13
ATOM     13  N   LIG d   1      -8.611  93.604 118.792  0.00  0.00    -0.311 N 
ATOM     14  C   LIG d   1      -9.086  94.832 118.990  0.00  0.00     0.210 C 
ATOM     15  C   LIG d   1     -10.515  94.892 119.540  0.00  0.00     0.109 C 
ATOM     16  O   LIG d   1      -8.472  95.878 118.732  0.00  0.00    -0.276 OA
ATOM     17  H   LIG d   1      -9.189  92.813 118.998  0.00  0.00     0.149 HD
ENDBRANCH   6  13
BRANCH   5  18
ATOM     18  N   LIG d   1      -7.979  92.120 116.198  0.00  0.00     0.381 N 
ATOM     19  H   LIG d   1      -8.761  91.498 116.260  0.00  0.00    -0.090 HD
ATOM     20  H   LIG d   1      -7.410  91.833 115.421  0.00  0.00    -0.090 HD
ATOM     21  H   LIG d   1      -8.298  93.053 116.059  0.00  0.00    -0.090 HD
ENDBRANCH   5  18
BRANCH   3  22
ATOM     22  C   LIG d   1      -3.695  91.027 118.038  0.00  0.00     0.382 C 
ATOM     23  O   LIG d   1      -3.798  89.780 117.944  0.00  0.00    -0.241 OA
ATOM     24  O   LIG d   1      -2.565  91.545 118.114  0.00  0.00    -0.241 OA
ENDBRANCH   3  22
TORSDOF 7
ENDMDL
MODEL 3
REMARK VINA RESULT:      -4.7     33.280     35.191
REMARK  7 active torsions:
REMARK  status: ('A' for Active; 'I' for Inactive)
REMARK    1  A    between atoms: C_2  and  C_3 
REMARK    2  A    between atoms: C_3  and  O_6 
REMARK    3  A    between atoms: C_3  and  C_4 
REMARK    4  A    between atoms: C_7  and  O_6 
REMARK    5  A    between atoms: C_9  and  C_10 
REMARK    6  A    between atoms: N_15  and  C_14 
REMARK    7  A    between atoms: N_20  and  C_19 
REMARK       I    between atoms: C_22  and  N_20 
ROOT
ATOM      1  C   LIG d   1       2.110  59.492 119.295  0.00  0.00     0.161 C 
ATOM      2  C   LIG d   1       0.844  59.306 118.716  0.00  0.00     0.016 C 
ATOM      3  C   LIG d   1       0.476  59.840 117.460  0.00  0.00     0.038 C 
ATOM      4  C   LIG d   1       1.407  60.475 116.623  0.00  0.00     0.028 C 
ATOM      5  C   LIG d   1       2.559  61.125 117.382  0.00  0.00    -0.047 C 
ATOM      6  C   LIG d   1       3.173  60.086 118.348  0.00  0.00     0.091 C 
ENDROOT
BRANCH   1   7
ATOM      7  O   LIG d   1       2.578  58.249 119.856  0.00  0.00    -0.368 OA
BRANCH   7   8
ATOM      8  C   LIG d   1       2.106  57.041 119.211  0.00  0.00     0.119 C 
BRANCH   8   9
ATOM      9  C   LIG d   1       1.959  55.961 120.301  0.00  0.00     0.028 C 
ATOM     10  C   LIG d   1       1.082  54.783 119.845  0.00  0.00     0.006 C 
ENDBRANCH   8   9
BRANCH   8  11
ATOM     11  C   LIG d   1       3.147  56.489 118.232  0.00  0.00     0.028 C 
ATOM     12  C   LIG d   1       2.787  56.762 116.763  0.00  0.00     0.006 C 
ENDBRANCH   8  11
ENDBRANCH   7   8
ENDBRANCH   1   7
BRANCH   6  13
ATOM     13  N   LIG d   1       4.253  60.665 119.190  0.00  0.00    -0.311 N 
ATOM     14  C   LIG d   1       5.364  60.005 119.511  0.00  0.00     0.210 C 
ATOM     15  C   LIG d   1       6.339  60.778 120.406  0.00  0.00     0.109 C 
ATOM     16  O   LIG d   1       5.650  58.866 119.115  0.00  0.00    -0.276 OA
ATOM     17  H   LIG d   1       4.117  61.597 119.529  0.00  0.00     0.149 HD
ENDBRANCH   6  13
BRANCH   5  18
ATOM     18  N   LIG d   1       3.522  61.628 116.384  0.00  0.00     0.381 N 
ATOM     19  H   LIG d   1       4.277  60.979 116.285  0.00  0.00    -0.090 HD
ATOM     20  H   LIG d   1       3.898  62.502 116.707  0.00  0.00    -0.090 HD
ATOM     21  H   LIG d   1       3.068  61.757 115.507  0.00  0.00    -0.090 HD
ENDBRANCH   5  18
BRANCH   3  22
ATOM     22  C   LIG d   1      -0.846  59.778 117.046  0.00  0.00     0.382 C 
ATOM     23  O   LIG d   1      -1.761  59.638 117.892  0.00  0.00    -0.241 OA
ATOM     24  O   LIG d   1      -1.131  59.814 115.834  0.00  0.00    -0.241 OA
ENDBRANCH   3  22
TORSDOF 7
ENDMDL
MODEL 4
REMARK VINA RESULT:      -4.7     13.080     15.929
REMARK  7 active torsions:
REMARK  status: ('A' for Active; 'I' for Inactive)
REMARK    1  A    between atoms: C_2  and  C_3 
REMARK    2  A    between atoms: C_3  and  O_6 
REMARK    3  A    between atoms: C_3  and  C_4 
REMARK    4  A    between atoms: C_7  and  O_6 
REMARK    5  A    between atoms: C_9  and  C_10 
REMARK    6  A    between atoms: N_15  and  C_14 
REMARK    7  A    between atoms: N_20  and  C_19 
REMARK       I    between atoms: C_22  and  N_20 
ROOT
ATOM      1  C   LIG d   1      -5.440  78.625 116.998  0.00  0.00     0.161 C 
ATOM      2  C   LIG d   1      -4.291  77.823 117.096  0.00  0.00     0.016 C 
ATOM      3  C   LIG d   1      -3.545  77.674 118.288  0.00  0.00     0.038 C 
ATOM      4  C   LIG d   1      -3.988  78.201 119.510  0.00  0.00     0.028 C 
ATOM      5  C   LIG d   1      -4.872  79.434 119.354  0.00  0.00    -0.047 C 
ATOM      6  C   LIG d   1      -6.002  79.118 118.348  0.00  0.00     0.091 C 
ENDROOT
BRANCH   1   7
ATOM      7  O   LIG d   1      -6.460  77.927 116.256  0.00  0.00    -0.368 OA
BRANCH   7   8
ATOM      8  C   LIG d   1      -7.019  76.751 116.891  0.00  0.00     0.119 C 
BRANCH   8   9
ATOM      9  C   LIG d   1      -6.923  75.590 115.882  0.00  0.00     0.028 C 
ATOM     10  C   LIG d   1      -5.813  74.589 116.242  0.00  0.00     0.006 C 
ENDBRANCH   8   9
BRANCH   8  11
ATOM     11  C   LIG d   1      -8.515  76.925 117.168  0.00  0.00     0.028 C 
ATOM     12  C   LIG d   1      -9.349  75.716 116.716  0.00  0.00     0.006 C 
ENDBRANCH   8  11
ENDBRANCH   7   8
ENDBRANCH   1   7
BRANCH   6  13
ATOM     13  N   LIG d   1      -6.863  80.297 118.073  0.00  0.00    -0.311 N 
ATOM     14  C   LIG d   1      -7.998  80.545 118.724  0.00  0.00     0.210 C 
ATOM     15  C   LIG d   1      -8.742  81.804 118.271  0.00  0.00     0.109 C 
ATOM     16  O   LIG d   1      -8.442  79.858 119.657  0.00  0.00    -0.276 OA
ATOM     17  H   LIG d   1      -6.561  80.924 117.352  0.00  0.00     0.149 HD
ENDBRANCH   6  13
BRANCH   5  18
ATOM     18  N   LIG d   1      -5.374  79.796 120.693  0.00  0.00     0.381 N 
ATOM     19  H   LIG d   1      -5.856  80.671 120.648  0.00  0.00    -0.090 HD
ATOM     20  H   LIG d   1      -4.593  79.897 121.316  0.00  0.00    -0.090 HD
ATOM     21  H   LIG d   1      -5.987  79.087 121.030  0.00  0.00    -0.090 HD
ENDBRANCH   5  18
BRANCH   3  22
ATOM     22  C   LIG d   1      -2.320  77.025 118.256  0.00  0.00     0.382 C 
ATOM     23  O   LIG d   1      -1.755  76.699 119.328  0.00  0.00    -0.241 OA
ATOM     24  O   LIG d   1      -1.752  76.801 117.170  0.00  0.00    -0.241 OA
ENDBRANCH   3  22
TORSDOF 7
ENDMDL
MODEL 5
REMARK VINA RESULT:      -4.6      2.138      4.503
REMARK  7 active torsions:
REMARK  status: ('A' for Active; 'I' for Inactive)
REMARK    1  A    between atoms: C_2  and  C_3 
REMARK    2  A    between atoms: C_3  and  O_6 
REMARK    3  A    between atoms: C_3  and  C_4 
REMARK    4  A    between atoms: C_7  and  O_6 
REMARK    5  A    between atoms: C_9  and  C_10 
REMARK    6  A    between atoms: N_15  and  C_14 
REMARK    7  A    between atoms: N_20  and  C_19 
REMARK       I    between atoms: C_22  and  N_20 
ROOT
ATOM      1  C   LIG d   1      -4.497  91.961 118.438  0.00  0.00     0.161 C 
ATOM      2  C   LIG d   1      -5.255  91.334 117.435  0.00  0.00     0.016 C 
ATOM      3  C   LIG d   1      -6.584  91.699 117.121  0.00  0.00     0.038 C 
ATOM      4  C   LIG d   1      -7.198  92.824 117.691  0.00  0.00     0.028 C 
ATOM      5  C   LIG d   1      -6.653  93.179 119.070  0.00  0.00    -0.047 C 
ATOM      6  C   LIG d   1      -5.111  93.263 118.993  0.00  0.00     0.091 C 
ENDROOT
BRANCH   1   7
ATOM      7  O   LIG d   1      -3.159  92.203 117.960  0.00  0.00    -0.368 OA
BRANCH   7   8
ATOM      8  C   LIG d   1      -2.084  91.766 118.828  0.00  0.00     0.119 C 
BRANCH   8   9
ATOM      9  C   LIG d   1      -1.144  92.968 119.042  0.00  0.00     0.028 C 
ATOM     10  C   LIG d   1      -1.409  94.105 118.041  0.00  0.00     0.006 C 
ENDBRANCH   8   9
BRANCH   8  11
ATOM     11  C   LIG d   1      -1.224  90.693 118.153  0.00  0.00     0.028 C 
ATOM     12  C   LIG d   1       0.137  90.501 118.840  0.00  0.00     0.006 C 
ENDBRANCH   8  11
ENDBRANCH   7   8
ENDBRANCH   1   7
BRANCH   6  13
ATOM     13  N   LIG d   1      -4.492  93.524 120.319  0.00  0.00    -0.311 N 
ATOM     14  C   LIG d   1      -4.114  94.734 120.727  0.00  0.00     0.210 C 
ATOM     15  C   LIG d   1      -3.478  94.778 122.120  0.00  0.00     0.109 C 
ATOM     16  O   LIG d   1      -4.276  95.780 120.080  0.00  0.00    -0.276 OA
ATOM     17  H   LIG d   1      -4.352  92.735 120.920  0.00  0.00     0.149 HD
ENDBRANCH   6  13
BRANCH   5  18
ATOM     18  N   LIG d   1      -7.282  94.447 119.485  0.00  0.00     0.381 N 
ATOM     19  H   LIG d   1      -8.217  94.276 119.797  0.00  0.00    -0.090 HD
ATOM     20  H   LIG d   1      -7.322  95.065 118.693  0.00  0.00    -0.090 HD
ATOM     21  H   LIG d   1      -6.751  94.867 120.216  0.00  0.00    -0.090 HD
ENDBRANCH   5  18
BRANCH   3  22
ATOM     22  C   LIG d   1      -7.328  90.909 116.257  0.00  0.00     0.382 C 
ATOM     23  O   LIG d   1      -6.872  89.808 115.865  0.00  0.00    -0.241 OA
ATOM     24  O   LIG d   1      -8.429  91.304 115.830  0.00  0.00    -0.241 OA
ENDBRANCH   3  22
TORSDOF 7
ENDMDL
MODEL 6
REMARK VINA RESULT:      -4.6     12.733     15.419
REMARK  7 active torsions:
REMARK  status: ('A' for Active; 'I' for Inactive)
REMARK    1  A    between atoms: C_2  and  C_3 
REMARK    2  A    between atoms: C_3  and  O_6 
REMARK    3  A    between atoms: C_3  and  C_4 
REMARK    4  A    between atoms: C_7  and  O_6 
REMARK    5  A    between atoms: C_9  and  C_10 
REMARK    6  A    between atoms: N_15  and  C_14 
REMARK    7  A    between atoms: N_20  and  C_19 
REMARK       I    between atoms: C_22  and  N_20 
ROOT
ATOM      1  C   LIG d   1      -6.595  78.330 117.804  0.00  0.00     0.161 C 
ATOM      2  C   LIG d   1      -7.774  79.040 118.088  0.00  0.00     0.016 C 
ATOM      3  C   LIG d   1      -7.828  80.129 118.988  0.00  0.00     0.038 C 
ATOM      4  C   LIG d   1      -6.670  80.681 119.556  0.00  0.00     0.028 C 
ATOM      5  C   LIG d   1      -5.527  79.681 119.692  0.00  0.00    -0.047 C 
ATOM      6  C   LIG d   1      -5.302  78.987 118.329  0.00  0.00     0.091 C 
ENDROOT
BRANCH   1   7
ATOM      7  O   LIG d   1      -6.497  78.092 116.386  0.00  0.00    -0.368 OA
BRANCH   7   8
ATOM      8  C   LIG d   1      -6.765  76.737 115.947  0.00  0.00     0.119 C 
BRANCH   8   9
ATOM      9  C   LIG d   1      -7.560  76.037 117.066  0.00  0.00     0.028 C 
ATOM     10  C   LIG d   1      -9.043  75.849 116.702  0.00  0.00     0.006 C 
ENDBRANCH   8   9
BRANCH   8  11
ATOM     11  C   LIG d   1      -5.470  75.932 115.805  0.00  0.00     0.028 C 
ATOM     12  C   LIG d   1      -5.707  74.413 115.826  0.00  0.00     0.006 C 
ENDBRANCH   8  11
ENDBRANCH   7   8
ENDBRANCH   1   7
BRANCH   6  13
ATOM     13  N   LIG d   1      -4.256  77.933 118.395  0.00  0.00    -0.311 N 
ATOM     14  C   LIG d   1      -3.110  77.993 117.720  0.00  0.00     0.210 C 
ATOM     15  C   LIG d   1      -2.180  76.791 117.914  0.00  0.00     0.109 C 
ATOM     16  O   LIG d   1      -2.760  78.944 117.003  0.00  0.00    -0.276 OA
ATOM     17  H   LIG d   1      -4.444  77.140 118.977  0.00  0.00     0.149 HD
ENDBRANCH   6  13
BRANCH   5  18
ATOM     18  N   LIG d   1      -4.342  80.420 120.167  0.00  0.00     0.381 N 
ATOM     19  H   LIG d   1      -3.510  79.989 119.815  0.00  0.00    -0.090 HD
ATOM     20  H   LIG d   1      -4.316  80.383 121.171  0.00  0.00    -0.090 HD
ATOM     21  H   LIG d   1      -4.387  81.368 119.863  0.00  0.00    -0.090 HD
ENDBRANCH   5  18
BRANCH   3  22
ATOM     22  C   LIG d   1      -9.057  80.653 119.360  0.00  0.00     0.382 C 
ATOM     23  O   LIG d   1      -9.421  81.771 118.922  0.00  0.00    -0.241 OA
ATOM     24  O   LIG d   1      -9.787  80.041 120.163  0.00  0.00    -0.241 OA
ENDBRANCH   3  22
TORSDOF 7
ENDMDL
MODEL 7
REMARK VINA RESULT:      -4.5     12.149     14.819
REMARK  7 active torsions:
REMARK  status: ('A' for Active; 'I' for Inactive)
REMARK    1  A    between atoms: C_2  and  C_3 
REMARK    2  A    between atoms: C_3  and  O_6 
REMARK    3  A    between atoms: C_3  and  C_4 
REMARK    4  A    between atoms: C_7  and  O_6 
REMARK    5  A    between atoms: C_9  and  C_10 
REMARK    6  A    between atoms: N_15  and  C_14 
REMARK    7  A    between atoms: N_20  and  C_19 
REMARK       I    between atoms: C_22  and  N_20 
ROOT
ATOM      1  C   LIG d   1      -7.244  78.890 118.513  0.00  0.00     0.161 C 
ATOM      2  C   LIG d   1      -8.385  79.573 118.059  0.00  0.00     0.016 C 
ATOM      3  C   LIG d   1      -8.682  80.910 118.408  0.00  0.00     0.038 C 
ATOM      4  C   LIG d   1      -7.774  81.710 119.118  0.00  0.00     0.028 C 
ATOM      5  C   LIG d   1      -6.843  80.911 120.023  0.00  0.00    -0.047 C 
ATOM      6  C   LIG d   1      -6.187  79.781 119.197  0.00  0.00     0.091 C 
ENDROOT
BRANCH   1   7
ATOM      7  O   LIG d   1      -6.651  78.153 117.425  0.00  0.00    -0.368 OA
BRANCH   7   8
ATOM      8  C   LIG d   1      -6.904  76.727 117.408  0.00  0.00     0.119 C 
BRANCH   8   9
ATOM      9  C   LIG d   1      -5.582  76.026 117.042  0.00  0.00     0.028 C 
ATOM     10  C   LIG d   1      -5.806  74.642 116.411  0.00  0.00     0.006 C 
ENDBRANCH   8   9
BRANCH   8  11
ATOM     11  C   LIG d   1      -7.886  76.348 116.295  0.00  0.00     0.028 C 
ATOM     12  C   LIG d   1      -9.279  75.982 116.829  0.00  0.00     0.006 C 
ENDBRANCH   8  11
ENDBRANCH   7   8
ENDBRANCH   1   7
BRANCH   6  13
ATOM     13  N   LIG d   1      -5.324  78.900 120.026  0.00  0.00    -0.311 N 
ATOM     14  C   LIG d   1      -4.023  79.114 120.214  0.00  0.00     0.210 C 
ATOM     15  C   LIG d   1      -3.316  78.073 121.087  0.00  0.00     0.109 C 
ATOM     16  O   LIG d   1      -3.394  80.084 119.765  0.00  0.00    -0.276 OA
ATOM     17  H   LIG d   1      -5.760  78.106 120.453  0.00  0.00     0.149 HD
ENDBRANCH   6  13
BRANCH   5  18
ATOM     18  N   LIG d   1      -5.862  81.853 120.595  0.00  0.00     0.381 N 
ATOM     19  H   LIG d   1      -5.679  82.590 119.943  0.00  0.00    -0.090 HD
ATOM     20  H   LIG d   1      -5.002  81.363 120.766  0.00  0.00    -0.090 HD
ATOM     21  H   LIG d   1      -6.211  82.233 121.448  0.00  0.00    -0.090 HD
ENDBRANCH   5  18
BRANCH   3  22
ATOM     22  C   LIG d   1      -9.917  81.448 118.080  0.00  0.00     0.382 C 
ATOM     23  O   LIG d   1     -10.930  80.708 118.028  0.00  0.00    -0.241 OA
ATOM     24  O   LIG d   1     -10.025  82.655 117.793  0.00  0.00    -0.241 OA
ENDBRANCH   3  22
TORSDOF 7
ENDMDL
MODEL 8
REMARK VINA RESULT:      -4.4      2.320      4.564
REMARK  7 active torsions:
REMARK  status: ('A' for Active; 'I' for Inactive)
REMARK    1  A    between atoms: C_2  and  C_3 
REMARK    2  A    between atoms: C_3  and  O_6 
REMARK    3  A    between atoms: C_3  and  C_4 
REMARK    4  A    between atoms: C_7  and  O_6 
REMARK    5  A    between atoms: C_9  and  C_10 
REMARK    6  A    between atoms: N_15  and  C_14 
REMARK    7  A    between atoms: N_20  and  C_19 
REMARK       I    between atoms: C_22  and  N_20 
ROOT
ATOM      1  C   LIG d   1      -5.058  93.445 119.604  0.00  0.00     0.161 C 
ATOM      2  C   LIG d   1      -4.636  92.427 118.732  0.00  0.00     0.016 C 
ATOM      3  C   LIG d   1      -5.461  91.870 117.728  0.00  0.00     0.038 C 
ATOM      4  C   LIG d   1      -6.724  92.402 117.427  0.00  0.00     0.028 C 
ATOM      5  C   LIG d   1      -7.387  93.096 118.612  0.00  0.00    -0.047 C 
ATOM      6  C   LIG d   1      -6.394  94.114 119.217  0.00  0.00     0.091 C 
ENDROOT
BRANCH   1   7
ATOM      7  O   LIG d   1      -4.021  94.437 119.736  0.00  0.00    -0.368 OA
BRANCH   7   8
ATOM      8  C   LIG d   1      -2.682  94.010 119.383  0.00  0.00     0.119 C 
BRANCH   8   9
ATOM      9  C   LIG d   1      -1.900  93.809 120.695  0.00  0.00     0.028 C 
ATOM     10  C   LIG d   1      -0.940  92.609 120.628  0.00  0.00     0.006 C 
ENDBRANCH   8   9
BRANCH   8  11
ATOM     11  C   LIG d   1      -1.929  95.107 118.626  0.00  0.00     0.028 C 
ATOM     12  C   LIG d   1      -1.135  94.566 117.426  0.00  0.00     0.006 C 
ENDBRANCH   8  11
ENDBRANCH   7   8
ENDBRANCH   1   7
BRANCH   6  13
ATOM     13  N   LIG d   1      -6.933  94.777 120.433  0.00  0.00    -0.311 N 
ATOM     14  C   LIG d   1      -6.863  96.090 120.644  0.00  0.00     0.210 C 
ATOM     15  C   LIG d   1      -7.463  96.565 121.972  0.00  0.00     0.109 C 
ATOM     16  O   LIG d   1      -6.390  96.911 119.844  0.00  0.00    -0.276 OA
ATOM     17  H   LIG d   1      -7.362  94.189 121.121  0.00  0.00     0.149 HD
ENDBRANCH   6  13
BRANCH   5  18
ATOM     18  N   LIG d   1      -8.630  93.722 118.123  0.00  0.00     0.381 N 
ATOM     19  H   LIG d   1      -8.731  94.633 118.523  0.00  0.00    -0.090 HD
ATOM     20  H   LIG d   1      -9.412  93.161 118.413  0.00  0.00    -0.090 HD
ATOM     21  H   LIG d   1      -8.611  93.788 117.129  0.00  0.00    -0.090 HD
ENDBRANCH   5  18
BRANCH   3  22
ATOM     22  C   LIG d   1      -5.040  90.743 117.040  0.00  0.00     0.382 C 
ATOM     23  O   LIG d   1      -5.620  90.402 115.981  0.00  0.00    -0.241 OA
ATOM     24  O   LIG d   1      -4.116  90.038 117.488  0.00  0.00    -0.241 OA
ENDBRANCH   3  22
TORSDOF 7
ENDMDL
MODEL 9
REMARK VINA RESULT:      -4.4     13.166     15.896
REMARK  7 active torsions:
REMARK  status: ('A' for Active; 'I' for Inactive)
REMARK    1  A    between atoms: C_2  and  C_3 
REMARK    2  A    between atoms: C_3  and  O_6 
REMARK    3  A    between atoms: C_3  and  C_4 
REMARK    4  A    between atoms: C_7  and  O_6 
REMARK    5  A    between atoms: C_9  and  C_10 
REMARK    6  A    between atoms: N_15  and  C_14 
REMARK    7  A    between atoms: N_20  and  C_19 
REMARK       I    between atoms: C_22  and  N_20 
ROOT
ATOM      1  C   LIG d   1      -5.795  77.812 118.109  0.00  0.00     0.161 C 
ATOM      2  C   LIG d   1      -7.046  78.428 117.939  0.00  0.00     0.016 C 
ATOM      3  C   LIG d   1      -7.385  79.674 118.514  0.00  0.00     0.038 C 
ATOM      4  C   LIG d   1      -6.437  80.466 119.179  0.00  0.00     0.028 C 
ATOM      5  C   LIG d   1      -5.306  79.657 119.808  0.00  0.00    -0.047 C 
ATOM      6  C   LIG d   1      -4.712  78.712 118.739  0.00  0.00     0.091 C 
ENDROOT
BRANCH   1   7
ATOM      7  O   LIG d   1      -5.336  77.281 116.850  0.00  0.00    -0.368 OA
BRANCH   7   8
ATOM      8  C   LIG d   1      -5.192  75.841 116.780  0.00  0.00     0.119 C 
BRANCH   8   9
ATOM      9  C   LIG d   1      -4.038  75.539 115.805  0.00  0.00     0.028 C 
ATOM     10  C   LIG d   1      -2.794  74.984 116.521  0.00  0.00     0.006 C 
ENDBRANCH   8   9
BRANCH   8  11
ATOM     11  C   LIG d   1      -6.429  75.186 116.159  0.00  0.00     0.028 C 
ATOM     12  C   LIG d   1      -6.802  73.857 116.834  0.00  0.00     0.006 C 
ENDBRANCH   8  11
ENDBRANCH   7   8
ENDBRANCH   1   7
BRANCH   6  13
ATOM     13  N   LIG d   1      -3.656  77.824 119.292  0.00  0.00    -0.311 N 
ATOM     14  C   LIG d   1      -2.413  77.778 118.815  0.00  0.00     0.210 C 
ATOM     15  C   LIG d   1      -1.487  76.780 119.518  0.00  0.00     0.109 C 
ATOM     16  O   LIG d   1      -1.980  78.493 117.899  0.00  0.00    -0.276 OA
ATOM     17  H   LIG d   1      -3.912  77.233 120.059  0.00  0.00     0.149 HD
ENDBRANCH   6  13
BRANCH   5  18
ATOM     18  N   LIG d   1      -4.321  80.613 120.347  0.00  0.00     0.381 N 
ATOM     19  H   LIG d   1      -4.403  81.489 119.871  0.00  0.00    -0.090 HD
ATOM     20  H   LIG d   1      -3.397  80.253 120.186  0.00  0.00    -0.090 HD
ATOM     21  H   LIG d   1      -4.470  80.742 121.323  0.00  0.00    -0.090 HD
ENDBRANCH   5  18
BRANCH   3  22
ATOM     22  C   LIG d   1      -8.696  80.122 118.461  0.00  0.00     0.382 C 
ATOM     23  O   LIG d   1      -9.556  79.639 119.236  0.00  0.00    -0.241 OA
ATOM     24  O   LIG d   1      -9.039  80.972 117.617  0.00  0.00    -0.241 OA
ENDBRANCH   3  22
TORSDOF 7
ENDMDL
