MODEL 1
REMARK VINA RESULT:      -5.3      0.000      0.000
REMARK  7 active torsions:
REMARK  status: ('A' for Active; 'I' for Inactive)
REMARK    1  A    between atoms: C_2  and  C_3 
REMARK    2  A    between atoms: C_3  and  O_6 
REMARK    3  A    between atoms: C_3  and  C_4 
REMARK    4  A    between atoms: C_7  and  O_6 
REMARK    5  A    between atoms: C_9  and  C_10 
REMARK    6  A    between atoms: N_15  and  C_14 
REMARK    7  A    between atoms: N_20  and  C_19 
REMARK       I    between atoms: C_22  and  N_20 
ROOT
ATOM      1  C   LIG d   1      -5.592  92.898 118.716  0.00  0.00     0.161 C 
ATOM      2  C   LIG d   1      -6.534  92.159 117.981  0.00  0.00     0.016 C 
ATOM      3  C   LIG d   1      -6.183  91.126 117.082  0.00  0.00     0.038 C 
ATOM      4  C   LIG d   1      -4.865  90.656 116.970  0.00  0.00     0.028 C 
ATOM      5  C   LIG d   1      -3.816  91.708 117.315  0.00  0.00    -0.047 C 
ATOM      6  C   LIG d   1      -4.159  92.326 118.690  0.00  0.00     0.091 C 
ENDROOT
BRANCH   1   7
ATOM      7  O   LIG d   1      -6.045  93.052 120.075  0.00  0.00    -0.368 OA
BRANCH   7   8
ATOM      8  C   LIG d   1      -6.454  94.387 120.463  0.00  0.00     0.119 C 
BRANCH   8   9
ATOM      9  C   LIG d   1      -7.985  94.372 120.630  0.00  0.00     0.028 C 
ATOM     10  C   LIG d   1      -8.414  94.259 122.103  0.00  0.00     0.006 C 
ENDBRANCH   8   9
BRANCH   8  11
ATOM     11  C   LIG d   1      -6.178  95.400 119.348  0.00  0.00     0.028 C 
ATOM     12  C   LIG d   1      -7.460  96.043 118.796  0.00  0.00     0.006 C 
ENDBRANCH   8  11
ENDBRANCH   7   8
ENDBRANCH   1   7
BRANCH   6  13
ATOM     13  N   LIG d   1      -3.230  93.423 119.065  0.00  0.00    -0.311 N 
ATOM     14  C   LIG d   1      -2.140  93.240 119.809  0.00  0.00     0.210 C 
ATOM     15  C   LIG d   1      -1.331  94.509 120.096  0.00  0.00     0.109 C 
ATOM     16  O   LIG d   1      -1.750  92.141 120.232  0.00  0.00    -0.276 OA
ATOM     17  H   LIG d   1      -3.454  94.343 118.738  0.00  0.00     0.149 HD
ENDBRANCH   6  13
BRANCH   5  18
ATOM     18  N   LIG d   1      -2.498  91.047 117.290  0.00  0.00     0.381 N 
ATOM     19  H   LIG d   1      -2.433  90.392 118.043  0.00  0.00    -0.090 HD
ATOM     20  H   LIG d   1      -1.783  91.743 117.415  0.00  0.00    -0.090 HD
ATOM     21  H   LIG d   1      -2.367  90.579 116.420  0.00  0.00    -0.090 HD
ENDBRANCH   5  18
BRANCH   3  22
ATOM     22  C   LIG d   1      -7.150  90.577 116.254  0.00  0.00     0.382 C 
ATOM     23  O   LIG d   1      -7.051  89.384 115.879  0.00  0.00    -0.241 OA
ATOM     24  O   LIG d   1      -8.097  91.273 115.841  0.00  0.00    -0.241 OA
ENDBRANCH   3  22
TORSDOF 7
ENDMDL
MODEL 2
REMARK VINA RESULT:      -5.1     15.471     18.057
REMARK  7 active torsions:
REMARK  status: ('A' for Active; 'I' for Inactive)
REMARK    1  A    between atoms: C_2  and  C_3 
REMARK    2  A    between atoms: C_3  and  O_6 
REMARK    3  A    between atoms: C_3  and  C_4 
REMARK    4  A    between atoms: C_7  and  O_6 
REMARK    5  A    between atoms: C_9  and  C_10 
REMARK    6  A    between atoms: N_15  and  C_14 
REMARK    7  A    between atoms: N_20  and  C_19 
REMARK       I    between atoms: C_22  and  N_20 
ROOT
ATOM      1  C   LIG d   1      -4.170  75.935 116.538  0.00  0.00     0.161 C 
ATOM      2  C   LIG d   1      -2.997  75.246 116.185  0.00  0.00     0.016 C 
ATOM      3  C   LIG d   1      -1.968  74.940 117.104  0.00  0.00     0.038 C 
ATOM      4  C   LIG d   1      -2.110  75.172 118.480  0.00  0.00     0.028 C 
ATOM      5  C   LIG d   1      -3.059  76.319 118.807  0.00  0.00    -0.047 C 
ATOM      6  C   LIG d   1      -4.392  76.097 118.056  0.00  0.00     0.091 C 
ENDROOT
BRANCH   1   7
ATOM      7  O   LIG d   1      -5.312  75.300 115.929  0.00  0.00    -0.368 OA
BRANCH   7   8
ATOM      8  C   LIG d   1      -6.016  74.335 116.748  0.00  0.00     0.119 C 
BRANCH   8   9
ATOM      9  C   LIG d   1      -5.781  72.943 116.130  0.00  0.00     0.028 C 
ATOM     10  C   LIG d   1      -6.838  71.918 116.573  0.00  0.00     0.006 C 
ENDBRANCH   8   9
BRANCH   8  11
ATOM     11  C   LIG d   1      -7.531  74.554 116.689  0.00  0.00     0.028 C 
ATOM     12  C   LIG d   1      -7.914  75.892 116.036  0.00  0.00     0.006 C 
ENDBRANCH   8  11
ENDBRANCH   7   8
ENDBRANCH   1   7
BRANCH   6  13
ATOM     13  N   LIG d   1      -5.348  77.218 118.253  0.00  0.00    -0.311 N 
ATOM     14  C   LIG d   1      -6.320  77.201 119.163  0.00  0.00     0.210 C 
ATOM     15  C   LIG d   1      -7.206  78.451 119.186  0.00  0.00     0.109 C 
ATOM     16  O   LIG d   1      -6.514  76.283 119.974  0.00  0.00    -0.276 OA
ATOM     17  H   LIG d   1      -5.243  78.017 117.658  0.00  0.00     0.149 HD
ENDBRANCH   6  13
BRANCH   5  18
ATOM     18  N   LIG d   1      -3.221  76.361 120.272  0.00  0.00     0.381 N 
ATOM     19  H   LIG d   1      -2.515  76.944 120.675  0.00  0.00    -0.090 HD
ATOM     20  H   LIG d   1      -3.109  75.432 120.638  0.00  0.00    -0.090 HD
ATOM     21  H   LIG d   1      -4.124  76.711 120.506  0.00  0.00    -0.090 HD
ENDBRANCH   5  18
BRANCH   3  22
ATOM     22  C   LIG d   1      -0.763  74.432 116.643  0.00  0.00     0.382 C 
ATOM     23  O   LIG d   1      -0.723  73.294 116.116  0.00  0.00    -0.241 OA
ATOM     24  O   LIG d   1       0.292  75.079 116.787  0.00  0.00    -0.241 OA
ENDBRANCH   3  22
TORSDOF 7
ENDMDL
MODEL 3
REMARK VINA RESULT:      -4.8      2.310      4.634
REMARK  7 active torsions:
REMARK  status: ('A' for Active; 'I' for Inactive)
REMARK    1  A    between atoms: C_2  and  C_3 
REMARK    2  A    between atoms: C_3  and  O_6 
REMARK    3  A    between atoms: C_3  and  C_4 
REMARK    4  A    between atoms: C_7  and  O_6 
REMARK    5  A    between atoms: C_9  and  C_10 
REMARK    6  A    between atoms: N_15  and  C_14 
REMARK    7  A    between atoms: N_20  and  C_19 
REMARK       I    between atoms: C_22  and  N_20 
ROOT
ATOM      1  C   LIG d   1      -4.994  92.958 119.323  0.00  0.00     0.161 C 
ATOM      2  C   LIG d   1      -5.096  91.919 118.383  0.00  0.00     0.016 C 
ATOM      3  C   LIG d   1      -6.157  91.812 117.454  0.00  0.00     0.038 C 
ATOM      4  C   LIG d   1      -7.114  92.826 117.301  0.00  0.00     0.028 C 
ATOM      5  C   LIG d   1      -7.336  93.645 118.567  0.00  0.00    -0.047 C 
ATOM      6  C   LIG d   1      -5.969  94.133 119.097  0.00  0.00     0.091 C 
ENDROOT
BRANCH   1   7
ATOM      7  O   LIG d   1      -3.636  93.437 119.376  0.00  0.00    -0.368 OA
BRANCH   7   8
ATOM      8  C   LIG d   1      -2.623  92.543 118.853  0.00  0.00     0.119 C 
BRANCH   8   9
ATOM      9  C   LIG d   1      -1.799  92.027 120.048  0.00  0.00     0.028 C 
ATOM     10  C   LIG d   1      -2.139  90.571 120.411  0.00  0.00     0.006 C 
ENDBRANCH   8   9
BRANCH   8  11
ATOM     11  C   LIG d   1      -1.625  93.290 117.964  0.00  0.00     0.028 C 
ATOM     12  C   LIG d   1      -0.246  92.613 117.918  0.00  0.00     0.006 C 
ENDBRANCH   8  11
ENDBRANCH   7   8
ENDBRANCH   1   7
BRANCH   6  13
ATOM     13  N   LIG d   1      -6.088  94.872 120.380  0.00  0.00    -0.311 N 
ATOM     14  C   LIG d   1      -6.182  96.198 120.457  0.00  0.00     0.210 C 
ATOM     15  C   LIG d   1      -6.277  96.759 121.880  0.00  0.00     0.109 C 
ATOM     16  O   LIG d   1      -6.228  96.962 119.481  0.00  0.00    -0.276 OA
ATOM     17  H   LIG d   1      -6.090  94.328 121.221  0.00  0.00     0.149 HD
ENDBRANCH   6  13
BRANCH   5  18
ATOM     18  N   LIG d   1      -8.253  94.750 118.228  0.00  0.00     0.381 N 
ATOM     19  H   LIG d   1      -8.283  94.872 117.236  0.00  0.00    -0.090 HD
ATOM     20  H   LIG d   1      -7.906  95.598 118.640  0.00  0.00    -0.090 HD
ATOM     21  H   LIG d   1      -9.166  94.554 118.574  0.00  0.00    -0.090 HD
ENDBRANCH   5  18
BRANCH   3  22
ATOM     22  C   LIG d   1      -6.290  90.660 116.694  0.00  0.00     0.382 C 
ATOM     23  O   LIG d   1      -7.390  90.059 116.654  0.00  0.00    -0.241 OA
ATOM     24  O   LIG d   1      -5.311  90.190 116.082  0.00  0.00    -0.241 OA
ENDBRANCH   3  22
TORSDOF 7
ENDMDL
MODEL 4
REMARK VINA RESULT:      -4.8      3.644      7.585
REMARK  7 active torsions:
REMARK  status: ('A' for Active; 'I' for Inactive)
REMARK    1  A    between atoms: C_2  and  C_3 
REMARK    2  A    between atoms: C_3  and  O_6 
REMARK    3  A    between atoms: C_3  and  C_4 
REMARK    4  A    between atoms: C_7  and  O_6 
REMARK    5  A    between atoms: C_9  and  C_10 
REMARK    6  A    between atoms: N_15  and  C_14 
REMARK    7  A    between atoms: N_20  and  C_19 
REMARK       I    between atoms: C_22  and  N_20 
ROOT
ATOM      1  C   LIG d   1      -0.484  91.697 118.006  0.00  0.00     0.161 C 
ATOM      2  C   LIG d   1       0.858  92.031 118.250  0.00  0.00     0.016 C 
ATOM      3  C   LIG d   1       1.305  93.357 118.457  0.00  0.00     0.038 C 
ATOM      4  C   LIG d   1       0.410  94.429 118.585  0.00  0.00     0.028 C 
ATOM      5  C   LIG d   1      -0.905  94.213 117.845  0.00  0.00    -0.047 C 
ATOM      6  C   LIG d   1      -1.490  92.841 118.252  0.00  0.00     0.091 C 
ENDROOT
BRANCH   1   7
ATOM      7  O   LIG d   1      -0.847  90.536 118.779  0.00  0.00    -0.368 OA
BRANCH   7   8
ATOM      8  C   LIG d   1      -0.980  89.296 118.042  0.00  0.00     0.119 C 
BRANCH   8   9
ATOM      9  C   LIG d   1      -2.357  88.697 118.388  0.00  0.00     0.028 C 
ATOM     10  C   LIG d   1      -2.321  87.847 119.670  0.00  0.00     0.006 C 
ENDBRANCH   8   9
BRANCH   8  11
ATOM     11  C   LIG d   1       0.044  88.257 118.509  0.00  0.00     0.028 C 
ATOM     12  C   LIG d   1       0.497  87.318 117.380  0.00  0.00     0.006 C 
ENDBRANCH   8  11
ENDBRANCH   7   8
ENDBRANCH   1   7
BRANCH   6  13
ATOM     13  N   LIG d   1      -2.735  92.513 117.510  0.00  0.00    -0.311 N 
ATOM     14  C   LIG d   1      -3.846  92.073 118.099  0.00  0.00     0.210 C 
ATOM     15  C   LIG d   1      -5.008  91.776 117.146  0.00  0.00     0.109 C 
ATOM     16  O   LIG d   1      -3.989  91.933 119.322  0.00  0.00    -0.276 OA
ATOM     17  H   LIG d   1      -2.717  92.629 116.515  0.00  0.00     0.149 HD
ENDBRANCH   6  13
BRANCH   5  18
ATOM     18  N   LIG d   1      -1.794  95.342 118.175  0.00  0.00     0.381 N 
ATOM     19  H   LIG d   1      -2.605  95.006 118.654  0.00  0.00    -0.090 HD
ATOM     20  H   LIG d   1      -2.091  95.783 117.322  0.00  0.00    -0.090 HD
ATOM     21  H   LIG d   1      -1.311  96.000 118.747  0.00  0.00    -0.090 HD
ENDBRANCH   5  18
BRANCH   3  22
ATOM     22  C   LIG d   1       2.665  93.625 118.499  0.00  0.00     0.382 C 
ATOM     23  O   LIG d   1       3.186  94.060 119.554  0.00  0.00    -0.241 OA
ATOM     24  O   LIG d   1       3.369  93.479 117.482  0.00  0.00    -0.241 OA
ENDBRANCH   3  22
TORSDOF 7
ENDMDL
MODEL 5
REMARK VINA RESULT:      -4.7      2.529      4.627
REMARK  7 active torsions:
REMARK  status: ('A' for Active; 'I' for Inactive)
REMARK    1  A    between atoms: C_2  and  C_3 
REMARK    2  A    between atoms: C_3  and  O_6 
REMARK    3  A    between atoms: C_3  and  C_4 
REMARK    4  A    between atoms: C_7  and  O_6 
REMARK    5  A    between atoms: C_9  and  C_10 
REMARK    6  A    between atoms: N_15  and  C_14 
REMARK    7  A    between atoms: N_20  and  C_19 
REMARK       I    between atoms: C_22  and  N_20 
ROOT
ATOM      1  C   LIG d   1      -5.539  93.601 120.329  0.00  0.00     0.161 C 
ATOM      2  C   LIG d   1      -5.583  92.516 119.438  0.00  0.00     0.016 C 
ATOM      3  C   LIG d   1      -6.357  92.512 118.255  0.00  0.00     0.038 C 
ATOM      4  C   LIG d   1      -7.027  93.659 117.803  0.00  0.00     0.028 C 
ATOM      5  C   LIG d   1      -7.419  94.613 118.925  0.00  0.00    -0.047 C 
ATOM      6  C   LIG d   1      -6.175  94.902 119.796  0.00  0.00     0.091 C 
ENDROOT
BRANCH   1   7
ATOM      7  O   LIG d   1      -4.178  93.840 120.740  0.00  0.00    -0.368 OA
BRANCH   7   8
ATOM      8  C   LIG d   1      -3.317  94.468 119.759  0.00  0.00     0.119 C 
BRANCH   8   9
ATOM      9  C   LIG d   1      -2.103  93.542 119.549  0.00  0.00     0.028 C 
ATOM     10  C   LIG d   1      -2.141  92.824 118.189  0.00  0.00     0.006 C 
ENDBRANCH   8   9
BRANCH   8  11
ATOM     11  C   LIG d   1      -2.737  95.783 120.287  0.00  0.00     0.028 C 
ATOM     12  C   LIG d   1      -2.867  95.922 121.812  0.00  0.00     0.006 C 
ENDBRANCH   8  11
ENDBRANCH   7   8
ENDBRANCH   1   7
BRANCH   6  13
ATOM     13  N   LIG d   1      -6.489  95.761 120.967  0.00  0.00    -0.311 N 
ATOM     14  C   LIG d   1      -6.333  97.084 120.969  0.00  0.00     0.210 C 
ATOM     15  C   LIG d   1      -6.697  97.776 122.286  0.00  0.00     0.109 C 
ATOM     16  O   LIG d   1      -5.957  97.753 119.995  0.00  0.00    -0.276 OA
ATOM     17  H   LIG d   1      -6.829  95.304 121.790  0.00  0.00     0.149 HD
ENDBRANCH   6  13
BRANCH   5  18
ATOM     18  N   LIG d   1      -7.983  95.826 118.303  0.00  0.00     0.381 N 
ATOM     19  H   LIG d   1      -8.933  95.944 118.592  0.00  0.00    -0.090 HD
ATOM     20  H   LIG d   1      -7.968  95.715 117.304  0.00  0.00    -0.090 HD
ATOM     21  H   LIG d   1      -7.447  96.624 118.564  0.00  0.00    -0.090 HD
ENDBRANCH   5  18
BRANCH   3  22
ATOM     22  C   LIG d   1      -6.500  91.338 117.531  0.00  0.00     0.382 C 
ATOM     23  O   LIG d   1      -7.643  90.939 117.202  0.00  0.00    -0.241 OA
ATOM     24  O   LIG d   1      -5.503  90.650 117.240  0.00  0.00    -0.241 OA
ENDBRANCH   3  22
TORSDOF 7
ENDMDL
MODEL 6
REMARK VINA RESULT:      -4.6     12.911     15.485
REMARK  7 active torsions:
REMARK  status: ('A' for Active; 'I' for Inactive)
REMARK    1  A    between atoms: C_2  and  C_3 
REMARK    2  A    between atoms: C_3  and  O_6 
REMARK    3  A    between atoms: C_3  and  C_4 
REMARK    4  A    between atoms: C_7  and  O_6 
REMARK    5  A    between atoms: C_9  and  C_10 
REMARK    6  A    between atoms: N_15  and  C_14 
REMARK    7  A    between atoms: N_20  and  C_19 
REMARK       I    between atoms: C_22  and  N_20 
ROOT
ATOM      1  C   LIG d   1      -6.311  77.826 117.475  0.00  0.00     0.161 C 
ATOM      2  C   LIG d   1      -7.670  78.177 117.532  0.00  0.00     0.016 C 
ATOM      3  C   LIG d   1      -8.150  79.325 118.203  0.00  0.00     0.038 C 
ATOM      4  C   LIG d   1      -7.281  80.287 118.740  0.00  0.00     0.028 C 
ATOM      5  C   LIG d   1      -5.925  79.720 119.146  0.00  0.00    -0.047 C 
ATOM      6  C   LIG d   1      -5.339  78.922 117.960  0.00  0.00     0.091 C 
ENDROOT
BRANCH   1   7
ATOM      7  O   LIG d   1      -5.970  77.408 116.139  0.00  0.00    -0.368 OA
BRANCH   7   8
ATOM      8  C   LIG d   1      -5.807  75.982 115.939  0.00  0.00     0.119 C 
BRANCH   8   9
ATOM      9  C   LIG d   1      -7.215  75.370 115.805  0.00  0.00     0.028 C 
ATOM     10  C   LIG d   1      -7.369  74.069 116.611  0.00  0.00     0.006 C 
ENDBRANCH   8   9
BRANCH   8  11
ATOM     11  C   LIG d   1      -5.190  75.313 117.171  0.00  0.00     0.028 C 
ATOM     12  C   LIG d   1      -3.832  74.657 116.874  0.00  0.00     0.006 C 
ENDBRANCH   8  11
ENDBRANCH   7   8
ENDBRANCH   1   7
BRANCH   6  13
ATOM     13  N   LIG d   1      -4.052  78.262 118.301  0.00  0.00    -0.311 N 
ATOM     14  C   LIG d   1      -2.972  78.316 117.523  0.00  0.00     0.210 C 
ATOM     15  C   LIG d   1      -1.755  77.550 118.053  0.00  0.00     0.109 C 
ATOM     16  O   LIG d   1      -2.896  78.952 116.461  0.00  0.00    -0.276 OA
ATOM     17  H   LIG d   1      -4.015  77.750 119.161  0.00  0.00     0.149 HD
ENDBRANCH   6  13
BRANCH   5  18
ATOM     18  N   LIG d   1      -5.074  80.852 119.559  0.00  0.00     0.381 N 
ATOM     19  H   LIG d   1      -4.198  80.810 119.077  0.00  0.00    -0.090 HD
ATOM     20  H   LIG d   1      -4.895  80.781 120.545  0.00  0.00    -0.090 HD
ATOM     21  H   LIG d   1      -5.531  81.714 119.357  0.00  0.00    -0.090 HD
ENDBRANCH   5  18
BRANCH   3  22
ATOM     22  C   LIG d   1      -9.514  79.499 118.378  0.00  0.00     0.382 C 
ATOM     23  O   LIG d   1     -10.242  78.514 118.650  0.00  0.00    -0.241 OA
ATOM     24  O   LIG d   1     -10.033  80.621 118.223  0.00  0.00    -0.241 OA
ENDBRANCH   3  22
TORSDOF 7
ENDMDL
MODEL 7
REMARK VINA RESULT:      -4.5     27.783     30.498
REMARK  7 active torsions:
REMARK  status: ('A' for Active; 'I' for Inactive)
REMARK    1  A    between atoms: C_2  and  C_3 
REMARK    2  A    between atoms: C_3  and  O_6 
REMARK    3  A    between atoms: C_3  and  C_4 
REMARK    4  A    between atoms: C_7  and  O_6 
REMARK    5  A    between atoms: C_9  and  C_10 
REMARK    6  A    between atoms: N_15  and  C_14 
REMARK    7  A    between atoms: N_20  and  C_19 
REMARK       I    between atoms: C_22  and  N_20 
ROOT
ATOM      1  C   LIG d   1     -15.090  64.331 118.871  0.00  0.00     0.161 C 
ATOM      2  C   LIG d   1     -14.903  65.587 119.473  0.00  0.00     0.016 C 
ATOM      3  C   LIG d   1     -14.054  65.799 120.583  0.00  0.00     0.038 C 
ATOM      4  C   LIG d   1     -13.211  64.791 121.075  0.00  0.00     0.028 C 
ATOM      5  C   LIG d   1     -13.739  63.383 120.821  0.00  0.00    -0.047 C 
ATOM      6  C   LIG d   1     -14.095  63.243 119.324  0.00  0.00     0.091 C 
ENDROOT
BRANCH   1   7
ATOM      7  O   LIG d   1     -15.065  64.469 117.437  0.00  0.00    -0.368 OA
BRANCH   7   8
ATOM      8  C   LIG d   1     -16.353  64.465 116.773  0.00  0.00     0.119 C 
BRANCH   8   9
ATOM      9  C   LIG d   1     -16.372  63.266 115.805  0.00  0.00     0.028 C 
ATOM     10  C   LIG d   1     -17.487  62.261 116.138  0.00  0.00     0.006 C 
ENDBRANCH   8   9
BRANCH   8  11
ATOM     11  C   LIG d   1     -16.527  65.703 115.888  0.00  0.00     0.028 C 
ATOM     12  C   LIG d   1     -15.336  66.671 115.976  0.00  0.00     0.006 C 
ENDBRANCH   8  11
ENDBRANCH   7   8
ENDBRANCH   1   7
BRANCH   6  13
ATOM     13  N   LIG d   1     -14.698  61.922 119.006  0.00  0.00    -0.311 N 
ATOM     14  C   LIG d   1     -14.336  61.184 117.957  0.00  0.00     0.210 C 
ATOM     15  C   LIG d   1     -15.098  59.864 117.802  0.00  0.00     0.109 C 
ATOM     16  O   LIG d   1     -13.434  61.483 117.160  0.00  0.00    -0.276 OA
ATOM     17  H   LIG d   1     -15.416  61.589 119.619  0.00  0.00     0.149 HD
ENDBRANCH   6  13
BRANCH   5  18
ATOM     18  N   LIG d   1     -12.700  62.432 121.260  0.00  0.00     0.381 N 
ATOM     19  H   LIG d   1     -11.795  62.788 121.027  0.00  0.00    -0.090 HD
ATOM     20  H   LIG d   1     -12.831  61.561 120.776  0.00  0.00    -0.090 HD
ATOM     21  H   LIG d   1     -12.765  62.287 122.244  0.00  0.00    -0.090 HD
ENDBRANCH   5  18
BRANCH   3  22
ATOM     22  C   LIG d   1     -14.071  67.021 121.238  0.00  0.00     0.382 C 
ATOM     23  O   LIG d   1     -14.453  67.087 122.431  0.00  0.00    -0.241 OA
ATOM     24  O   LIG d   1     -13.751  68.064 120.638  0.00  0.00    -0.241 OA
ENDBRANCH   3  22
TORSDOF 7
ENDMDL
MODEL 8
REMARK VINA RESULT:      -4.4      3.085      6.609
REMARK  7 active torsions:
REMARK  status: ('A' for Active; 'I' for Inactive)
REMARK    1  A    between atoms: C_2  and  C_3 
REMARK    2  A    between atoms: C_3  and  O_6 
REMARK    3  A    between atoms: C_3  and  C_4 
REMARK    4  A    between atoms: C_7  and  O_6 
REMARK    5  A    between atoms: C_9  and  C_10 
REMARK    6  A    between atoms: N_15  and  C_14 
REMARK    7  A    between atoms: N_20  and  C_19 
REMARK       I    between atoms: C_22  and  N_20 
ROOT
ATOM      1  C   LIG d   1      -1.168  92.346 118.575  0.00  0.00     0.161 C 
ATOM      2  C   LIG d   1       0.165  92.106 118.201  0.00  0.00     0.016 C 
ATOM      3  C   LIG d   1       1.146  93.120 118.121  0.00  0.00     0.038 C 
ATOM      4  C   LIG d   1       0.897  94.429 118.560  0.00  0.00     0.028 C 
ATOM      5  C   LIG d   1      -0.572  94.829 118.469  0.00  0.00    -0.047 C 
ATOM      6  C   LIG d   1      -1.430  93.748 119.164  0.00  0.00     0.091 C 
ENDROOT
BRANCH   1   7
ATOM      7  O   LIG d   1      -1.609  91.326 119.493  0.00  0.00    -0.368 OA
BRANCH   7   8
ATOM      8  C   LIG d   1      -2.595  90.395 118.984  0.00  0.00     0.119 C 
BRANCH   8   9
ATOM      9  C   LIG d   1      -1.858  89.088 118.630  0.00  0.00     0.028 C 
ATOM     10  C   LIG d   1      -2.457  87.865 119.344  0.00  0.00     0.006 C 
ENDBRANCH   8   9
BRANCH   8  11
ATOM     11  C   LIG d   1      -3.200  90.888 117.666  0.00  0.00     0.028 C 
ATOM     12  C   LIG d   1      -4.719  91.106 117.752  0.00  0.00     0.006 C 
ENDBRANCH   8  11
ENDBRANCH   7   8
ENDBRANCH   1   7
BRANCH   6  13
ATOM     13  N   LIG d   1      -2.887  94.019 119.047  0.00  0.00    -0.311 N 
ATOM     14  C   LIG d   1      -3.720  94.014 120.087  0.00  0.00     0.210 C 
ATOM     15  C   LIG d   1      -5.185  94.298 119.743  0.00  0.00     0.109 C 
ATOM     16  O   LIG d   1      -3.378  93.832 121.265  0.00  0.00    -0.276 OA
ATOM     17  H   LIG d   1      -3.244  94.208 118.131  0.00  0.00     0.149 HD
ENDBRANCH   6  13
BRANCH   5  18
ATOM     18  N   LIG d   1      -0.710  96.162 119.085  0.00  0.00     0.381 N 
ATOM     19  H   LIG d   1       0.143  96.413 119.545  0.00  0.00    -0.090 HD
ATOM     20  H   LIG d   1      -1.441  96.128 119.773  0.00  0.00    -0.090 HD
ATOM     21  H   LIG d   1      -0.931  96.839 118.388  0.00  0.00    -0.090 HD
ENDBRANCH   5  18
BRANCH   3  22
ATOM     22  C   LIG d   1       2.383  92.838 117.561  0.00  0.00     0.382 C 
ATOM     23  O   LIG d   1       2.568  91.748 116.967  0.00  0.00    -0.241 OA
ATOM     24  O   LIG d   1       3.329  93.639 117.680  0.00  0.00    -0.241 OA
ENDBRANCH   3  22
TORSDOF 7
ENDMDL
MODEL 9
REMARK VINA RESULT:      -4.3      1.837      4.815
REMARK  7 active torsions:
REMARK  status: ('A' for Active; 'I' for Inactive)
REMARK    1  A    between atoms: C_2  and  C_3 
REMARK    2  A    between atoms: C_3  and  O_6 
REMARK    3  A    between atoms: C_3  and  C_4 
REMARK    4  A    between atoms: C_7  and  O_6 
REMARK    5  A    between atoms: C_9  and  C_10 
REMARK    6  A    between atoms: N_15  and  C_14 
REMARK    7  A    between atoms: N_20  and  C_19 
REMARK       I    between atoms: C_22  and  N_20 
ROOT
ATOM      1  C   LIG d   1      -6.063  93.049 120.066  0.00  0.00     0.161 C 
ATOM      2  C   LIG d   1      -5.160  93.666 120.947  0.00  0.00     0.016 C 
ATOM      3  C   LIG d   1      -3.778  93.798 120.679  0.00  0.00     0.038 C 
ATOM      4  C   LIG d   1      -3.227  93.452 119.436  0.00  0.00     0.028 C 
ATOM      5  C   LIG d   1      -4.009  92.363 118.709  0.00  0.00    -0.047 C 
ATOM      6  C   LIG d   1      -5.501  92.765 118.657  0.00  0.00     0.091 C 
ENDROOT
BRANCH   1   7
ATOM      7  O   LIG d   1      -7.270  93.831 119.976  0.00  0.00    -0.368 OA
BRANCH   7   8
ATOM      8  C   LIG d   1      -7.169  95.211 120.405  0.00  0.00     0.119 C 
BRANCH   8   9
ATOM      9  C   LIG d   1      -8.496  95.580 121.095  0.00  0.00     0.028 C 
ATOM     10  C   LIG d   1      -9.403  94.358 121.313  0.00  0.00     0.006 C 
ENDBRANCH   8   9
BRANCH   8  11
ATOM     11  C   LIG d   1      -7.057  96.160 119.207  0.00  0.00     0.028 C 
ATOM     12  C   LIG d   1      -5.698  96.874 119.138  0.00  0.00     0.006 C 
ENDBRANCH   8  11
ENDBRANCH   7   8
ENDBRANCH   1   7
BRANCH   6  13
ATOM     13  N   LIG d   1      -6.350  91.715 118.037  0.00  0.00    -0.311 N 
ATOM     14  C   LIG d   1      -6.669  91.700 116.744  0.00  0.00     0.210 C 
ATOM     15  C   LIG d   1      -7.572  90.539 116.315  0.00  0.00     0.109 C 
ATOM     16  O   LIG d   1      -6.265  92.520 115.906  0.00  0.00    -0.276 OA
ATOM     17  H   LIG d   1      -6.695  90.993 118.639  0.00  0.00     0.149 HD
ENDBRANCH   6  13
BRANCH   5  18
ATOM     18  N   LIG d   1      -3.407  92.199 117.372  0.00  0.00     0.381 N 
ATOM     19  H   LIG d   1      -2.869  93.011 117.142  0.00  0.00    -0.090 HD
ATOM     20  H   LIG d   1      -4.143  92.106 116.694  0.00  0.00    -0.090 HD
ATOM     21  H   LIG d   1      -2.826  91.391 117.357  0.00  0.00    -0.090 HD
ENDBRANCH   5  18
BRANCH   3  22
ATOM     22  C   LIG d   1      -2.924  94.243 121.677  0.00  0.00     0.382 C 
ATOM     23  O   LIG d   1      -3.203  95.281 122.324  0.00  0.00    -0.241 OA
ATOM     24  O   LIG d   1      -1.856  93.646 121.907  0.00  0.00    -0.241 OA
ENDBRANCH   3  22
TORSDOF 7
ENDMDL
