MODEL 1
REMARK VINA RESULT:      -5.0      0.000      0.000
REMARK  7 active torsions:
REMARK  status: ('A' for Active; 'I' for Inactive)
REMARK    1  A    between atoms: C_2  and  C_3 
REMARK    2  A    between atoms: C_3  and  O_6 
REMARK    3  A    between atoms: C_3  and  C_4 
REMARK    4  A    between atoms: C_7  and  O_6 
REMARK    5  A    between atoms: C_9  and  C_10 
REMARK    6  A    between atoms: N_15  and  C_14 
REMARK    7  A    between atoms: N_20  and  C_19 
REMARK       I    between atoms: C_22  and  N_20 
ROOT
ATOM      1  C   LIG d   1      -8.013  74.664 118.615  0.00  0.00     0.161 C 
ATOM      2  C   LIG d   1      -8.029  73.400 118.001  0.00  0.00     0.016 C 
ATOM      3  C   LIG d   1      -9.170  72.858 117.366  0.00  0.00     0.038 C 
ATOM      4  C   LIG d   1     -10.337  73.612 117.168  0.00  0.00     0.028 C 
ATOM      5  C   LIG d   1     -10.536  74.705 118.213  0.00  0.00    -0.047 C 
ATOM      6  C   LIG d   1      -9.243  75.545 118.312  0.00  0.00     0.091 C 
ENDROOT
BRANCH   1   7
ATOM      7  O   LIG d   1      -6.800  75.360 118.267  0.00  0.00    -0.368 OA
BRANCH   7   8
ATOM      8  C   LIG d   1      -6.768  75.968 116.953  0.00  0.00     0.119 C 
BRANCH   8   9
ATOM      9  C   LIG d   1      -5.717  75.211 116.118  0.00  0.00     0.028 C 
ATOM     10  C   LIG d   1      -4.616  74.583 116.989  0.00  0.00     0.006 C 
ENDBRANCH   8   9
BRANCH   8  11
ATOM     11  C   LIG d   1      -6.268  77.414 117.019  0.00  0.00     0.028 C 
ATOM     12  C   LIG d   1      -6.024  77.894 118.459  0.00  0.00     0.006 C 
ENDBRANCH   8  11
ENDBRANCH   7   8
ENDBRANCH   1   7
BRANCH   6  13
ATOM     13  N   LIG d   1      -9.322  76.585 119.372  0.00  0.00    -0.311 N 
ATOM     14  C   LIG d   1      -9.675  77.847 119.135  0.00  0.00     0.210 C 
ATOM     15  C   LIG d   1      -9.673  78.760 120.365  0.00  0.00     0.109 C 
ATOM     16  O   LIG d   1     -10.019  78.290 118.029  0.00  0.00    -0.276 OA
ATOM     17  H   LIG d   1      -9.090  76.304 120.304  0.00  0.00     0.149 HD
ENDBRANCH   6  13
BRANCH   5  18
ATOM     18  N   LIG d   1     -11.712  75.498 117.809  0.00  0.00     0.381 N 
ATOM     19  H   LIG d   1     -11.414  76.351 117.379  0.00  0.00    -0.090 HD
ATOM     20  H   LIG d   1     -12.246  75.728 118.628  0.00  0.00    -0.090 HD
ATOM     21  H   LIG d   1     -12.274  74.976 117.173  0.00  0.00    -0.090 HD
ENDBRANCH   5  18
BRANCH   3  22
ATOM     22  C   LIG d   1      -9.164  71.534 116.955  0.00  0.00     0.382 C 
ATOM     23  O   LIG d   1      -9.813  70.675 117.600  0.00  0.00    -0.241 OA
ATOM     24  O   LIG d   1      -8.483  71.179 115.975  0.00  0.00    -0.241 OA
ENDBRANCH   3  22
TORSDOF 7
ENDMDL
MODEL 2
REMARK VINA RESULT:      -5.0     16.692     19.622
REMARK  7 active torsions:
REMARK  status: ('A' for Active; 'I' for Inactive)
REMARK    1  A    between atoms: C_2  and  C_3 
REMARK    2  A    between atoms: C_3  and  O_6 
REMARK    3  A    between atoms: C_3  and  C_4 
REMARK    4  A    between atoms: C_7  and  O_6 
REMARK    5  A    between atoms: C_9  and  C_10 
REMARK    6  A    between atoms: N_15  and  C_14 
REMARK    7  A    between atoms: N_20  and  C_19 
REMARK       I    between atoms: C_22  and  N_20 
ROOT
ATOM      1  C   LIG d   1      -3.346  57.221 118.233  0.00  0.00     0.161 C 
ATOM      2  C   LIG d   1      -2.581  58.218 117.605  0.00  0.00     0.016 C 
ATOM      3  C   LIG d   1      -1.949  59.271 118.305  0.00  0.00     0.038 C 
ATOM      4  C   LIG d   1      -1.913  59.313 119.707  0.00  0.00     0.028 C 
ATOM      5  C   LIG d   1      -3.096  58.609 120.364  0.00  0.00    -0.047 C 
ATOM      6  C   LIG d   1      -3.227  57.188 119.771  0.00  0.00     0.091 C 
ENDROOT
BRANCH   1   7
ATOM      7  O   LIG d   1      -3.021  55.932 117.677  0.00  0.00    -0.368 OA
BRANCH   7   8
ATOM      8  C   LIG d   1      -1.732  55.385 118.048  0.00  0.00     0.119 C 
BRANCH   8   9
ATOM      9  C   LIG d   1      -0.847  55.388 116.786  0.00  0.00     0.028 C 
ATOM     10  C   LIG d   1       0.018  54.122 116.672  0.00  0.00     0.006 C 
ENDBRANCH   8   9
BRANCH   8  11
ATOM     11  C   LIG d   1      -1.848  53.914 118.458  0.00  0.00     0.028 C 
ATOM     12  C   LIG d   1      -3.304  53.430 118.535  0.00  0.00     0.006 C 
ENDBRANCH   8  11
ENDBRANCH   7   8
ENDBRANCH   1   7
BRANCH   6  13
ATOM     13  N   LIG d   1      -4.411  56.460 120.299  0.00  0.00    -0.311 N 
ATOM     14  C   LIG d   1      -4.367  55.666 121.367  0.00  0.00     0.210 C 
ATOM     15  C   LIG d   1      -5.697  54.996 121.729  0.00  0.00     0.109 C 
ATOM     16  O   LIG d   1      -3.362  55.478 122.068  0.00  0.00    -0.276 OA
ATOM     17  H   LIG d   1      -5.275  56.581 119.808  0.00  0.00     0.149 HD
ENDBRANCH   6  13
BRANCH   5  18
ATOM     18  N   LIG d   1      -2.862  58.609 121.821  0.00  0.00     0.381 N 
ATOM     19  H   LIG d   1      -3.737  58.617 122.305  0.00  0.00    -0.090 HD
ATOM     20  H   LIG d   1      -2.356  59.441 122.069  0.00  0.00    -0.090 HD
ATOM     21  H   LIG d   1      -2.337  57.803 122.081  0.00  0.00    -0.090 HD
ENDBRANCH   5  18
BRANCH   3  22
ATOM     22  C   LIG d   1      -1.376  60.319 117.601  0.00  0.00     0.382 C 
ATOM     23  O   LIG d   1      -1.253  61.444 118.141  0.00  0.00    -0.241 OA
ATOM     24  O   LIG d   1      -1.021  60.164 116.417  0.00  0.00    -0.241 OA
ENDBRANCH   3  22
TORSDOF 7
ENDMDL
MODEL 3
REMARK VINA RESULT:      -4.9     16.972     19.034
REMARK  7 active torsions:
REMARK  status: ('A' for Active; 'I' for Inactive)
REMARK    1  A    between atoms: C_2  and  C_3 
REMARK    2  A    between atoms: C_3  and  O_6 
REMARK    3  A    between atoms: C_3  and  C_4 
REMARK    4  A    between atoms: C_7  and  O_6 
REMARK    5  A    between atoms: C_9  and  C_10 
REMARK    6  A    between atoms: N_15  and  C_14 
REMARK    7  A    between atoms: N_20  and  C_19 
REMARK       I    between atoms: C_22  and  N_20 
ROOT
ATOM      1  C   LIG d   1      -0.475  58.641 119.973  0.00  0.00     0.161 C 
ATOM      2  C   LIG d   1      -1.754  58.293 119.506  0.00  0.00     0.016 C 
ATOM      3  C   LIG d   1      -2.289  58.760 118.283  0.00  0.00     0.038 C 
ATOM      4  C   LIG d   1      -1.518  59.490 117.367  0.00  0.00     0.028 C 
ATOM      5  C   LIG d   1      -0.395  60.288 118.021  0.00  0.00    -0.047 C 
ATOM      6  C   LIG d   1       0.422  59.347 118.935  0.00  0.00     0.091 C 
ENDROOT
BRANCH   1   7
ATOM      7  O   LIG d   1       0.188  57.474 120.498  0.00  0.00    -0.368 OA
BRANCH   7   8
ATOM      8  C   LIG d   1       1.079  56.784 119.588  0.00  0.00     0.119 C 
BRANCH   8   9
ATOM      9  C   LIG d   1       0.359  55.508 119.113  0.00  0.00     0.028 C 
ATOM     10  C   LIG d   1      -0.014  55.564 117.622  0.00  0.00     0.006 C 
ENDBRANCH   8   9
BRANCH   8  11
ATOM     11  C   LIG d   1       2.340  56.295 120.306  0.00  0.00     0.028 C 
ATOM     12  C   LIG d   1       2.755  57.209 121.470  0.00  0.00     0.006 C 
ENDBRANCH   8  11
ENDBRANCH   7   8
ENDBRANCH   1   7
BRANCH   6  13
ATOM     13  N   LIG d   1       1.490  60.066 119.679  0.00  0.00    -0.311 N 
ATOM     14  C   LIG d   1       2.735  60.200 119.227  0.00  0.00     0.210 C 
ATOM     15  C   LIG d   1       3.684  60.959 120.159  0.00  0.00     0.109 C 
ATOM     16  O   LIG d   1       3.137  59.789 118.127  0.00  0.00    -0.276 OA
ATOM     17  H   LIG d   1       1.243  60.457 120.567  0.00  0.00     0.149 HD
ENDBRANCH   6  13
BRANCH   5  18
ATOM     18  N   LIG d   1       0.411  60.890 116.942  0.00  0.00     0.381 N 
ATOM     19  H   LIG d   1       0.429  61.884 117.047  0.00  0.00    -0.090 HD
ATOM     20  H   LIG d   1      -0.015  60.673 116.058  0.00  0.00    -0.090 HD
ATOM     21  H   LIG d   1       1.340  60.529 116.968  0.00  0.00    -0.090 HD
ENDBRANCH   5  18
BRANCH   3  22
ATOM     22  C   LIG d   1      -3.624  58.530 117.985  0.00  0.00     0.382 C 
ATOM     23  O   LIG d   1      -4.313  59.435 117.458  0.00  0.00    -0.241 OA
ATOM     24  O   LIG d   1      -4.158  57.443 118.278  0.00  0.00    -0.241 OA
ENDBRANCH   3  22
TORSDOF 7
ENDMDL
MODEL 4
REMARK VINA RESULT:      -4.8      1.323      2.161
REMARK  7 active torsions:
REMARK  status: ('A' for Active; 'I' for Inactive)
REMARK    1  A    between atoms: C_2  and  C_3 
REMARK    2  A    between atoms: C_3  and  O_6 
REMARK    3  A    between atoms: C_3  and  C_4 
REMARK    4  A    between atoms: C_7  and  O_6 
REMARK    5  A    between atoms: C_9  and  C_10 
REMARK    6  A    between atoms: N_15  and  C_14 
REMARK    7  A    between atoms: N_20  and  C_19 
REMARK       I    between atoms: C_22  and  N_20 
ROOT
ATOM      1  C   LIG d   1      -8.474  75.482 119.070  0.00  0.00     0.161 C 
ATOM      2  C   LIG d   1      -8.297  74.205 118.514  0.00  0.00     0.016 C 
ATOM      3  C   LIG d   1      -9.308  73.520 117.801  0.00  0.00     0.038 C 
ATOM      4  C   LIG d   1     -10.523  74.134 117.464  0.00  0.00     0.028 C 
ATOM      5  C   LIG d   1     -10.937  75.233 118.436  0.00  0.00    -0.047 C 
ATOM      6  C   LIG d   1      -9.756  76.213 118.618  0.00  0.00     0.091 C 
ENDROOT
BRANCH   1   7
ATOM      7  O   LIG d   1      -7.314  76.295 118.806  0.00  0.00    -0.368 OA
BRANCH   7   8
ATOM      8  C   LIG d   1      -6.436  76.539 119.933  0.00  0.00     0.119 C 
BRANCH   8   9
ATOM      9  C   LIG d   1      -6.503  78.045 120.254  0.00  0.00     0.028 C 
ATOM     10  C   LIG d   1      -6.574  78.913 118.987  0.00  0.00     0.006 C 
ENDBRANCH   8   9
BRANCH   8  11
ATOM     11  C   LIG d   1      -4.974  76.266 119.569  0.00  0.00     0.028 C 
ATOM     12  C   LIG d   1      -4.816  75.594 118.196  0.00  0.00     0.006 C 
ENDBRANCH   8  11
ENDBRANCH   7   8
ENDBRANCH   1   7
BRANCH   6  13
ATOM     13  N   LIG d   1     -10.047  77.273 119.618  0.00  0.00    -0.311 N 
ATOM     14  C   LIG d   1     -10.219  78.554 119.300  0.00  0.00     0.210 C 
ATOM     15  C   LIG d   1     -10.490  79.484 120.487  0.00  0.00     0.109 C 
ATOM     16  O   LIG d   1     -10.206  79.004 118.144  0.00  0.00    -0.276 OA
ATOM     17  H   LIG d   1     -10.106  76.990 120.577  0.00  0.00     0.149 HD
ENDBRANCH   6  13
BRANCH   5  18
ATOM     18  N   LIG d   1     -12.146  75.879 117.891  0.00  0.00     0.381 N 
ATOM     19  H   LIG d   1     -12.099  75.896 116.892  0.00  0.00    -0.090 HD
ATOM     20  H   LIG d   1     -12.185  76.827 118.222  0.00  0.00    -0.090 HD
ATOM     21  H   LIG d   1     -12.959  75.383 118.185  0.00  0.00    -0.090 HD
ENDBRANCH   5  18
BRANCH   3  22
ATOM     22  C   LIG d   1      -9.122  72.191 117.451  0.00  0.00     0.382 C 
ATOM     23  O   LIG d   1      -8.360  71.464 118.133  0.00  0.00    -0.241 OA
ATOM     24  O   LIG d   1      -9.671  71.722 116.437  0.00  0.00    -0.241 OA
ENDBRANCH   3  22
TORSDOF 7
ENDMDL
MODEL 5
REMARK VINA RESULT:      -4.7      2.644      4.649
REMARK  7 active torsions:
REMARK  status: ('A' for Active; 'I' for Inactive)
REMARK    1  A    between atoms: C_2  and  C_3 
REMARK    2  A    between atoms: C_3  and  O_6 
REMARK    3  A    between atoms: C_3  and  C_4 
REMARK    4  A    between atoms: C_7  and  O_6 
REMARK    5  A    between atoms: C_9  and  C_10 
REMARK    6  A    between atoms: N_15  and  C_14 
REMARK    7  A    between atoms: N_20  and  C_19 
REMARK       I    between atoms: C_22  and  N_20 
ROOT
ATOM      1  C   LIG d   1      -7.617  76.181 117.160  0.00  0.00     0.161 C 
ATOM      2  C   LIG d   1      -8.988  76.259 117.456  0.00  0.00     0.016 C 
ATOM      3  C   LIG d   1      -9.789  75.129 117.740  0.00  0.00     0.038 C 
ATOM      4  C   LIG d   1      -9.236  73.850 117.897  0.00  0.00     0.028 C 
ATOM      5  C   LIG d   1      -7.945  73.647 117.112  0.00  0.00    -0.047 C 
ATOM      6  C   LIG d   1      -6.974  74.806 117.436  0.00  0.00     0.091 C 
ENDROOT
BRANCH   1   7
ATOM      7  O   LIG d   1      -6.905  77.218 117.865  0.00  0.00    -0.368 OA
BRANCH   7   8
ATOM      8  C   LIG d   1      -7.564  77.760 119.036  0.00  0.00     0.119 C 
BRANCH   8   9
ATOM      9  C   LIG d   1      -7.398  79.291 118.993  0.00  0.00     0.028 C 
ATOM     10  C   LIG d   1      -8.546  79.985 118.240  0.00  0.00     0.006 C 
ENDBRANCH   8   9
BRANCH   8  11
ATOM     11  C   LIG d   1      -6.866  77.312 120.324  0.00  0.00     0.028 C 
ATOM     12  C   LIG d   1      -7.611  76.175 121.040  0.00  0.00     0.006 C 
ENDBRANCH   8  11
ENDBRANCH   7   8
ENDBRANCH   1   7
BRANCH   6  13
ATOM     13  N   LIG d   1      -5.717  74.730 116.646  0.00  0.00    -0.311 N 
ATOM     14  C   LIG d   1      -4.510  74.942 117.167  0.00  0.00     0.210 C 
ATOM     15  C   LIG d   1      -3.349  74.835 116.173  0.00  0.00     0.109 C 
ATOM     16  O   LIG d   1      -4.287  75.177 118.364  0.00  0.00    -0.276 OA
ATOM     17  H   LIG d   1      -5.803  74.514 115.672  0.00  0.00     0.149 HD
ENDBRANCH   6  13
BRANCH   5  18
ATOM     18  N   LIG d   1      -7.406  72.323 117.475  0.00  0.00     0.381 N 
ATOM     19  H   LIG d   1      -8.092  71.617 117.297  0.00  0.00    -0.090 HD
ATOM     20  H   LIG d   1      -7.194  72.316 118.458  0.00  0.00    -0.090 HD
ATOM     21  H   LIG d   1      -6.581  72.135 116.949  0.00  0.00    -0.090 HD
ENDBRANCH   5  18
BRANCH   3  22
ATOM     22  C   LIG d   1     -11.166  75.268 117.830  0.00  0.00     0.382 C 
ATOM     23  O   LIG d   1     -11.663  76.360 118.195  0.00  0.00    -0.241 OA
ATOM     24  O   LIG d   1     -11.915  74.301 117.595  0.00  0.00    -0.241 OA
ENDBRANCH   3  22
TORSDOF 7
ENDMDL
MODEL 6
REMARK VINA RESULT:      -4.7      2.620      4.388
REMARK  7 active torsions:
REMARK  status: ('A' for Active; 'I' for Inactive)
REMARK    1  A    between atoms: C_2  and  C_3 
REMARK    2  A    between atoms: C_3  and  O_6 
REMARK    3  A    between atoms: C_3  and  C_4 
REMARK    4  A    between atoms: C_7  and  O_6 
REMARK    5  A    between atoms: C_9  and  C_10 
REMARK    6  A    between atoms: N_15  and  C_14 
REMARK    7  A    between atoms: N_20  and  C_19 
REMARK       I    between atoms: C_22  and  N_20 
ROOT
ATOM      1  C   LIG d   1      -7.423  76.200 117.417  0.00  0.00     0.161 C 
ATOM      2  C   LIG d   1      -8.801  76.263 117.684  0.00  0.00     0.016 C 
ATOM      3  C   LIG d   1      -9.625  75.120 117.795  0.00  0.00     0.038 C 
ATOM      4  C   LIG d   1      -9.095  73.821 117.797  0.00  0.00     0.028 C 
ATOM      5  C   LIG d   1      -7.784  73.701 117.028  0.00  0.00    -0.047 C 
ATOM      6  C   LIG d   1      -6.807  74.790 117.527  0.00  0.00     0.091 C 
ENDROOT
BRANCH   1   7
ATOM      7  O   LIG d   1      -6.717  77.123 118.271  0.00  0.00    -0.368 OA
BRANCH   7   8
ATOM      8  C   LIG d   1      -6.424  78.422 117.701  0.00  0.00     0.119 C 
BRANCH   8   9
ATOM      9  C   LIG d   1      -4.898  78.627 117.777  0.00  0.00     0.028 C 
ATOM     10  C   LIG d   1      -4.217  78.477 116.406  0.00  0.00     0.006 C 
ENDBRANCH   8   9
BRANCH   8  11
ATOM     11  C   LIG d   1      -7.026  79.549 118.544  0.00  0.00     0.028 C 
ATOM     12  C   LIG d   1      -8.474  79.880 118.149  0.00  0.00     0.006 C 
ENDBRANCH   8  11
ENDBRANCH   7   8
ENDBRANCH   1   7
BRANCH   6  13
ATOM     13  N   LIG d   1      -5.529  74.797 116.768  0.00  0.00    -0.311 N 
ATOM     14  C   LIG d   1      -4.335  74.926 117.344  0.00  0.00     0.210 C 
ATOM     15  C   LIG d   1      -3.147  74.928 116.376  0.00  0.00     0.109 C 
ATOM     16  O   LIG d   1      -4.144  75.008 118.566  0.00  0.00    -0.276 OA
ATOM     17  H   LIG d   1      -5.589  74.704 115.773  0.00  0.00     0.149 HD
ENDBRANCH   6  13
BRANCH   5  18
ATOM     18  N   LIG d   1      -7.274  72.331 117.227  0.00  0.00     0.381 N 
ATOM     19  H   LIG d   1      -7.789  71.881 117.957  0.00  0.00    -0.090 HD
ATOM     20  H   LIG d   1      -6.310  72.380 117.506  0.00  0.00    -0.090 HD
ATOM     21  H   LIG d   1      -7.356  71.810 116.382  0.00  0.00    -0.090 HD
ENDBRANCH   5  18
BRANCH   3  22
ATOM     22  C   LIG d   1     -11.001  75.270 117.866  0.00  0.00     0.382 C 
ATOM     23  O   LIG d   1     -11.752  74.304 117.585  0.00  0.00    -0.241 OA
ATOM     24  O   LIG d   1     -11.503  76.370 118.164  0.00  0.00    -0.241 OA
ENDBRANCH   3  22
TORSDOF 7
ENDMDL
MODEL 7
REMARK VINA RESULT:      -4.7     17.397     19.594
REMARK  7 active torsions:
REMARK  status: ('A' for Active; 'I' for Inactive)
REMARK    1  A    between atoms: C_2  and  C_3 
REMARK    2  A    between atoms: C_3  and  O_6 
REMARK    3  A    between atoms: C_3  and  C_4 
REMARK    4  A    between atoms: C_7  and  O_6 
REMARK    5  A    between atoms: C_9  and  C_10 
REMARK    6  A    between atoms: N_15  and  C_14 
REMARK    7  A    between atoms: N_20  and  C_19 
REMARK       I    between atoms: C_22  and  N_20 
ROOT
ATOM      1  C   LIG d   1      -0.057  57.937 119.041  0.00  0.00     0.161 C 
ATOM      2  C   LIG d   1      -1.455  57.838 118.941  0.00  0.00     0.016 C 
ATOM      3  C   LIG d   1      -2.203  58.414 117.889  0.00  0.00     0.038 C 
ATOM      4  C   LIG d   1      -1.585  59.003 116.776  0.00  0.00     0.028 C 
ATOM      5  C   LIG d   1      -0.202  59.570 117.080  0.00  0.00    -0.047 C 
ATOM      6  C   LIG d   1       0.644  58.481 117.778  0.00  0.00     0.091 C 
ENDROOT
BRANCH   1   7
ATOM      7  O   LIG d   1       0.498  56.660 119.412  0.00  0.00    -0.368 OA
BRANCH   7   8
ATOM      8  C   LIG d   1      -0.235  55.493 118.966  0.00  0.00     0.119 C 
BRANCH   8   9
ATOM      9  C   LIG d   1      -0.088  54.411 120.053  0.00  0.00     0.028 C 
ATOM     10  C   LIG d   1       1.262  53.678 119.973  0.00  0.00     0.006 C 
ENDBRANCH   8   9
BRANCH   8  11
ATOM     11  C   LIG d   1       0.392  54.889 117.706  0.00  0.00     0.028 C 
ATOM     12  C   LIG d   1      -0.634  54.650 116.586  0.00  0.00     0.006 C 
ENDBRANCH   8  11
ENDBRANCH   7   8
ENDBRANCH   1   7
BRANCH   6  13
ATOM     13  N   LIG d   1       1.983  58.978 118.186  0.00  0.00    -0.311 N 
ATOM     14  C   LIG d   1       2.163  59.971 119.056  0.00  0.00     0.210 C 
ATOM     15  C   LIG d   1       3.625  60.341 119.322  0.00  0.00     0.109 C 
ATOM     16  O   LIG d   1       1.251  60.558 119.657  0.00  0.00    -0.276 OA
ATOM     17  H   LIG d   1       2.780  58.537 117.771  0.00  0.00     0.149 HD
ENDBRANCH   6  13
BRANCH   5  18
ATOM     18  N   LIG d   1       0.382  60.028 115.806  0.00  0.00     0.381 N 
ATOM     19  H   LIG d   1      -0.127  59.635 115.039  0.00  0.00    -0.090 HD
ATOM     20  H   LIG d   1       1.333  59.707 115.750  0.00  0.00    -0.090 HD
ATOM     21  H   LIG d   1       0.356  61.023 115.756  0.00  0.00    -0.090 HD
ENDBRANCH   5  18
BRANCH   3  22
ATOM     22  C   LIG d   1      -3.587  58.439 117.963  0.00  0.00     0.382 C 
ATOM     23  O   LIG d   1      -4.209  57.449 118.420  0.00  0.00    -0.241 OA
ATOM     24  O   LIG d   1      -4.226  59.420 117.538  0.00  0.00    -0.241 OA
ENDBRANCH   3  22
TORSDOF 7
ENDMDL
MODEL 8
REMARK VINA RESULT:      -4.6     17.057     19.334
REMARK  7 active torsions:
REMARK  status: ('A' for Active; 'I' for Inactive)
REMARK    1  A    between atoms: C_2  and  C_3 
REMARK    2  A    between atoms: C_3  and  O_6 
REMARK    3  A    between atoms: C_3  and  C_4 
REMARK    4  A    between atoms: C_7  and  O_6 
REMARK    5  A    between atoms: C_9  and  C_10 
REMARK    6  A    between atoms: N_15  and  C_14 
REMARK    7  A    between atoms: N_20  and  C_19 
REMARK       I    between atoms: C_22  and  N_20 
ROOT
ATOM      1  C   LIG d   1      -0.198  57.920 119.996  0.00  0.00     0.161 C 
ATOM      2  C   LIG d   1       0.002  59.068 120.781  0.00  0.00     0.016 C 
ATOM      3  C   LIG d   1       0.342  60.330 120.241  0.00  0.00     0.038 C 
ATOM      4  C   LIG d   1       0.357  60.566 118.858  0.00  0.00     0.028 C 
ATOM      5  C   LIG d   1       0.656  59.318 118.034  0.00  0.00    -0.047 C 
ATOM      6  C   LIG d   1      -0.295  58.183 118.478  0.00  0.00     0.091 C 
ENDROOT
BRANCH   1   7
ATOM      7  O   LIG d   1      -1.365  57.210 120.457  0.00  0.00    -0.368 OA
BRANCH   7   8
ATOM      8  C   LIG d   1      -2.644  57.753 120.047  0.00  0.00     0.119 C 
BRANCH   8   9
ATOM      9  C   LIG d   1      -3.224  58.528 121.245  0.00  0.00     0.028 C 
ATOM     10  C   LIG d   1      -3.753  57.595 122.347  0.00  0.00     0.006 C 
ENDBRANCH   8   9
BRANCH   8  11
ATOM     11  C   LIG d   1      -3.654  56.638 119.757  0.00  0.00     0.028 C 
ATOM     12  C   LIG d   1      -2.998  55.253 119.649  0.00  0.00     0.006 C 
ENDBRANCH   8  11
ENDBRANCH   7   8
ENDBRANCH   1   7
BRANCH   6  13
ATOM     13  N   LIG d   1      -0.014  56.902 117.781  0.00  0.00    -0.311 N 
ATOM     14  C   LIG d   1      -0.867  56.324 116.936  0.00  0.00     0.210 C 
ATOM     15  C   LIG d   1      -0.387  54.996 116.342  0.00  0.00     0.109 C 
ATOM     16  O   LIG d   1      -1.961  56.801 116.599  0.00  0.00    -0.276 OA
ATOM     17  H   LIG d   1       0.865  56.462 117.972  0.00  0.00     0.149 HD
ENDBRANCH   6  13
BRANCH   5  18
ATOM     18  N   LIG d   1       0.504  59.676 116.612  0.00  0.00     0.381 N 
ATOM     19  H   LIG d   1       0.522  60.672 116.509  0.00  0.00    -0.090 HD
ATOM     20  H   LIG d   1      -0.385  59.342 116.285  0.00  0.00    -0.090 HD
ATOM     21  H   LIG d   1       1.238  59.267 116.077  0.00  0.00    -0.090 HD
ENDBRANCH   5  18
BRANCH   3  22
ATOM     22  C   LIG d   1       0.711  61.363 121.089  0.00  0.00     0.382 C 
ATOM     23  O   LIG d   1      -0.161  62.136 121.552  0.00  0.00    -0.241 OA
ATOM     24  O   LIG d   1       1.911  61.558 121.362  0.00  0.00    -0.241 OA
ENDBRANCH   3  22
TORSDOF 7
ENDMDL
MODEL 9
REMARK VINA RESULT:      -4.6      1.982      3.878
REMARK  7 active torsions:
REMARK  status: ('A' for Active; 'I' for Inactive)
REMARK    1  A    between atoms: C_2  and  C_3 
REMARK    2  A    between atoms: C_3  and  O_6 
REMARK    3  A    between atoms: C_3  and  C_4 
REMARK    4  A    between atoms: C_7  and  O_6 
REMARK    5  A    between atoms: C_9  and  C_10 
REMARK    6  A    between atoms: N_15  and  C_14 
REMARK    7  A    between atoms: N_20  and  C_19 
REMARK       I    between atoms: C_22  and  N_20 
ROOT
ATOM      1  C   LIG d   1      -8.600  74.824 118.701  0.00  0.00     0.161 C 
ATOM      2  C   LIG d   1      -8.784  73.481 118.334  0.00  0.00     0.016 C 
ATOM      3  C   LIG d   1      -7.983  72.819 117.375  0.00  0.00     0.038 C 
ATOM      4  C   LIG d   1      -6.841  73.418 116.824  0.00  0.00     0.028 C 
ATOM      5  C   LIG d   1      -6.912  74.940 116.786  0.00  0.00    -0.047 C 
ATOM      6  C   LIG d   1      -7.289  75.460 118.192  0.00  0.00     0.091 C 
ENDROOT
BRANCH   1   7
ATOM      7  O   LIG d   1      -8.699  74.958 120.133  0.00  0.00    -0.368 OA
BRANCH   7   8
ATOM      8  C   LIG d   1      -9.858  75.674 120.627  0.00  0.00     0.119 C 
BRANCH   8   9
ATOM      9  C   LIG d   1     -10.655  76.166 119.404  0.00  0.00     0.028 C 
ATOM     10  C   LIG d   1     -10.859  77.690 119.411  0.00  0.00     0.006 C 
ENDBRANCH   8   9
BRANCH   8  11
ATOM     11  C   LIG d   1      -9.449  76.942 121.382  0.00  0.00     0.028 C 
ATOM     12  C   LIG d   1      -7.985  76.912 121.849  0.00  0.00     0.006 C 
ENDBRANCH   8  11
ENDBRANCH   7   8
ENDBRANCH   1   7
BRANCH   6  13
ATOM     13  N   LIG d   1      -7.463  76.935 118.224  0.00  0.00    -0.311 N 
ATOM     14  C   LIG d   1      -6.496  77.780 118.577  0.00  0.00     0.210 C 
ATOM     15  C   LIG d   1      -6.892  79.260 118.561  0.00  0.00     0.109 C 
ATOM     16  O   LIG d   1      -5.338  77.447 118.872  0.00  0.00    -0.276 OA
ATOM     17  H   LIG d   1      -8.362  77.294 117.969  0.00  0.00     0.149 HD
ENDBRANCH   6  13
BRANCH   5  18
ATOM     18  N   LIG d   1      -5.604  75.437 116.318  0.00  0.00     0.381 N 
ATOM     19  H   LIG d   1      -5.727  76.293 115.815  0.00  0.00    -0.090 HD
ATOM     20  H   LIG d   1      -5.204  74.759 115.694  0.00  0.00    -0.090 HD
ATOM     21  H   LIG d   1      -4.997  75.583 117.094  0.00  0.00    -0.090 HD
ENDBRANCH   5  18
BRANCH   3  22
ATOM     22  C   LIG d   1      -8.347  71.558 116.928  0.00  0.00     0.382 C 
ATOM     23  O   LIG d   1      -7.849  71.100 115.872  0.00  0.00    -0.241 OA
ATOM     24  O   LIG d   1      -9.201  70.892 117.543  0.00  0.00    -0.241 OA
ENDBRANCH   3  22
TORSDOF 7
ENDMDL
