MODEL 1
REMARK VINA RESULT:      -5.1      0.000      0.000
REMARK  7 active torsions:
REMARK  status: ('A' for Active; 'I' for Inactive)
REMARK    1  A    between atoms: C_2  and  C_3 
REMARK    2  A    between atoms: C_3  and  O_6 
REMARK    3  A    between atoms: C_3  and  C_4 
REMARK    4  A    between atoms: C_7  and  O_6 
REMARK    5  A    between atoms: C_9  and  C_10 
REMARK    6  A    between atoms: N_15  and  C_14 
REMARK    7  A    between atoms: N_20  and  C_19 
REMARK       I    between atoms: C_22  and  N_20 
ROOT
ATOM      1  C   LIG d   1      -5.370  93.197 118.715  0.00  0.00     0.161 C 
ATOM      2  C   LIG d   1      -5.504  92.126 117.816  0.00  0.00     0.016 C 
ATOM      3  C   LIG d   1      -6.612  91.969 116.951  0.00  0.00     0.038 C 
ATOM      4  C   LIG d   1      -7.595  92.961 116.819  0.00  0.00     0.028 C 
ATOM      5  C   LIG d   1      -7.764  93.817 118.070  0.00  0.00    -0.047 C 
ATOM      6  C   LIG d   1      -6.378  94.346 118.506  0.00  0.00     0.091 C 
ENDROOT
BRANCH   1   7
ATOM      7  O   LIG d   1      -4.020  93.702 118.676  0.00  0.00    -0.368 OA
BRANCH   7   8
ATOM      8  C   LIG d   1      -2.997  92.754 118.285  0.00  0.00     0.119 C 
BRANCH   8   9
ATOM      9  C   LIG d   1      -2.330  92.234 119.574  0.00  0.00     0.028 C 
ATOM     10  C   LIG d   1      -2.138  90.708 119.560  0.00  0.00     0.006 C 
ENDBRANCH   8   9
BRANCH   8  11
ATOM     11  C   LIG d   1      -1.876  93.438 117.497  0.00  0.00     0.028 C 
ATOM     12  C   LIG d   1      -1.718  94.925 117.854  0.00  0.00     0.006 C 
ENDBRANCH   8  11
ENDBRANCH   7   8
ENDBRANCH   1   7
BRANCH   6  13
ATOM     13  N   LIG d   1      -6.441  95.125 119.770  0.00  0.00    -0.311 N 
ATOM     14  C   LIG d   1      -6.052  96.395 119.870  0.00  0.00     0.210 C 
ATOM     15  C   LIG d   1      -6.182  97.003 121.270  0.00  0.00     0.109 C 
ATOM     16  O   LIG d   1      -5.642  97.085 118.924  0.00  0.00    -0.276 OA
ATOM     17  H   LIG d   1      -6.791  94.651 120.581  0.00  0.00     0.149 HD
ENDBRANCH   6  13
BRANCH   5  18
ATOM     18  N   LIG d   1      -8.719  94.894 117.748  0.00  0.00     0.381 N 
ATOM     19  H   LIG d   1      -9.049  95.317 118.592  0.00  0.00    -0.090 HD
ATOM     20  H   LIG d   1      -9.505  94.497 117.265  0.00  0.00    -0.090 HD
ATOM     21  H   LIG d   1      -8.279  95.579 117.174  0.00  0.00    -0.090 HD
ENDBRANCH   5  18
BRANCH   3  22
ATOM     22  C   LIG d   1      -6.764  90.791 116.236  0.00  0.00     0.382 C 
ATOM     23  O   LIG d   1      -7.909  90.310 116.057  0.00  0.00    -0.241 OA
ATOM     24  O   LIG d   1      -5.768  90.180 115.806  0.00  0.00    -0.241 OA
ENDBRANCH   3  22
TORSDOF 7
ENDMDL
MODEL 2
REMARK VINA RESULT:      -4.9     13.305     15.788
REMARK  7 active torsions:
REMARK  status: ('A' for Active; 'I' for Inactive)
REMARK    1  A    between atoms: C_2  and  C_3 
REMARK    2  A    between atoms: C_3  and  O_6 
REMARK    3  A    between atoms: C_3  and  C_4 
REMARK    4  A    between atoms: C_7  and  O_6 
REMARK    5  A    between atoms: C_9  and  C_10 
REMARK    6  A    between atoms: N_15  and  C_14 
REMARK    7  A    between atoms: N_20  and  C_19 
REMARK       I    between atoms: C_22  and  N_20 
ROOT
ATOM      1  C   LIG d   1      -8.383  78.659 118.417  0.00  0.00     0.161 C 
ATOM      2  C   LIG d   1      -9.537  77.872 118.566  0.00  0.00     0.016 C 
ATOM      3  C   LIG d   1      -9.640  76.543 118.095  0.00  0.00     0.038 C 
ATOM      4  C   LIG d   1      -8.535  75.855 117.572  0.00  0.00     0.028 C 
ATOM      5  C   LIG d   1      -7.492  76.773 116.942  0.00  0.00    -0.047 C 
ATOM      6  C   LIG d   1      -7.131  77.888 117.949  0.00  0.00     0.091 C 
ENDROOT
BRANCH   1   7
ATOM      7  O   LIG d   1      -8.109  79.362 119.645  0.00  0.00    -0.368 OA
BRANCH   7   8
ATOM      8  C   LIG d   1      -8.498  80.757 119.682  0.00  0.00     0.119 C 
BRANCH   8   9
ATOM      9  C   LIG d   1      -8.829  81.183 118.239  0.00  0.00     0.028 C 
ATOM     10  C   LIG d   1     -10.196  81.880 118.132  0.00  0.00     0.006 C 
ENDBRANCH   8   9
BRANCH   8  11
ATOM     11  C   LIG d   1      -7.329  81.650 120.110  0.00  0.00     0.028 C 
ATOM     12  C   LIG d   1      -6.490  82.143 118.921  0.00  0.00     0.006 C 
ENDBRANCH   8  11
ENDBRANCH   7   8
ENDBRANCH   1   7
BRANCH   6  13
ATOM     13  N   LIG d   1      -6.180  78.879 117.381  0.00  0.00    -0.311 N 
ATOM     14  C   LIG d   1      -4.861  78.812 117.556  0.00  0.00     0.210 C 
ATOM     15  C   LIG d   1      -4.064  79.946 116.902  0.00  0.00     0.109 C 
ATOM     16  O   LIG d   1      -4.273  77.905 118.164  0.00  0.00    -0.276 OA
ATOM     17  H   LIG d   1      -6.569  79.631 116.847  0.00  0.00     0.149 HD
ENDBRANCH   6  13
BRANCH   5  18
ATOM     18  N   LIG d   1      -6.336  75.939 116.563  0.00  0.00     0.381 N 
ATOM     19  H   LIG d   1      -6.293  75.852 115.567  0.00  0.00    -0.090 HD
ATOM     20  H   LIG d   1      -6.453  75.022 116.956  0.00  0.00    -0.090 HD
ATOM     21  H   LIG d   1      -5.494  76.349 116.904  0.00  0.00    -0.090 HD
ENDBRANCH   5  18
BRANCH   3  22
ATOM     22  C   LIG d   1     -10.869  75.902 118.107  0.00  0.00     0.382 C 
ATOM     23  O   LIG d   1     -10.976  74.743 117.639  0.00  0.00    -0.241 OA
ATOM     24  O   LIG d   1     -11.881  76.485 118.540  0.00  0.00    -0.241 OA
ENDBRANCH   3  22
TORSDOF 7
ENDMDL
MODEL 3
REMARK VINA RESULT:      -4.8     12.956     15.425
REMARK  7 active torsions:
REMARK  status: ('A' for Active; 'I' for Inactive)
REMARK    1  A    between atoms: C_2  and  C_3 
REMARK    2  A    between atoms: C_3  and  O_6 
REMARK    3  A    between atoms: C_3  and  C_4 
REMARK    4  A    between atoms: C_7  and  O_6 
REMARK    5  A    between atoms: C_9  and  C_10 
REMARK    6  A    between atoms: N_15  and  C_14 
REMARK    7  A    between atoms: N_20  and  C_19 
REMARK       I    between atoms: C_22  and  N_20 
ROOT
ATOM      1  C   LIG d   1      -7.681  79.038 118.344  0.00  0.00     0.161 C 
ATOM      2  C   LIG d   1      -6.691  78.649 117.426  0.00  0.00     0.016 C 
ATOM      3  C   LIG d   1      -6.613  77.352 116.869  0.00  0.00     0.038 C 
ATOM      4  C   LIG d   1      -7.617  76.394 117.077  0.00  0.00     0.028 C 
ATOM      5  C   LIG d   1      -8.364  76.576 118.393  0.00  0.00    -0.047 C 
ATOM      6  C   LIG d   1      -8.849  78.040 118.497  0.00  0.00     0.091 C 
ENDROOT
BRANCH   1   7
ATOM      7  O   LIG d   1      -8.181  80.345 117.998  0.00  0.00    -0.368 OA
BRANCH   7   8
ATOM      8  C   LIG d   1      -7.997  81.381 118.993  0.00  0.00     0.119 C 
BRANCH   8   9
ATOM      9  C   LIG d   1      -9.193  82.346 118.883  0.00  0.00     0.028 C 
ATOM     10  C   LIG d   1      -9.812  82.355 117.475  0.00  0.00     0.006 C 
ENDBRANCH   8   9
BRANCH   8  11
ATOM     11  C   LIG d   1      -6.760  82.232 118.690  0.00  0.00     0.028 C 
ATOM     12  C   LIG d   1      -6.727  83.542 119.493  0.00  0.00     0.006 C 
ENDBRANCH   8  11
ENDBRANCH   7   8
ENDBRANCH   1   7
BRANCH   6  13
ATOM     13  N   LIG d   1      -9.517  78.326 119.793  0.00  0.00    -0.311 N 
ATOM     14  C   LIG d   1     -10.803  78.071 120.027  0.00  0.00     0.210 C 
ATOM     15  C   LIG d   1     -11.296  78.461 121.424  0.00  0.00     0.109 C 
ATOM     16  O   LIG d   1     -11.575  77.530 119.221  0.00  0.00    -0.276 OA
ATOM     17  H   LIG d   1      -8.957  78.737 120.514  0.00  0.00     0.149 HD
ENDBRANCH   6  13
BRANCH   5  18
ATOM     18  N   LIG d   1      -9.469  75.599 118.418  0.00  0.00     0.381 N 
ATOM     19  H   LIG d   1      -9.907  75.605 119.317  0.00  0.00    -0.090 HD
ATOM     20  H   LIG d   1      -9.094  74.680 118.256  0.00  0.00    -0.090 HD
ATOM     21  H   LIG d   1     -10.137  75.821 117.713  0.00  0.00    -0.090 HD
ENDBRANCH   5  18
BRANCH   3  22
ATOM     22  C   LIG d   1      -5.501  76.989 116.125  0.00  0.00     0.382 C 
ATOM     23  O   LIG d   1      -5.324  75.789 115.806  0.00  0.00    -0.241 OA
ATOM     24  O   LIG d   1      -4.649  77.840 115.806  0.00  0.00    -0.241 OA
ENDBRANCH   3  22
TORSDOF 7
ENDMDL
MODEL 4
REMARK VINA RESULT:      -4.8      2.512      4.860
REMARK  7 active torsions:
REMARK  status: ('A' for Active; 'I' for Inactive)
REMARK    1  A    between atoms: C_2  and  C_3 
REMARK    2  A    between atoms: C_3  and  O_6 
REMARK    3  A    between atoms: C_3  and  C_4 
REMARK    4  A    between atoms: C_7  and  O_6 
REMARK    5  A    between atoms: C_9  and  C_10 
REMARK    6  A    between atoms: N_15  and  C_14 
REMARK    7  A    between atoms: N_20  and  C_19 
REMARK       I    between atoms: C_22  and  N_20 
ROOT
ATOM      1  C   LIG d   1      -4.905  93.347 118.804  0.00  0.00     0.161 C 
ATOM      2  C   LIG d   1      -6.005  92.818 118.110  0.00  0.00     0.016 C 
ATOM      3  C   LIG d   1      -5.909  91.728 117.213  0.00  0.00     0.038 C 
ATOM      4  C   LIG d   1      -4.724  90.993 117.064  0.00  0.00     0.028 C 
ATOM      5  C   LIG d   1      -3.467  91.803 117.362  0.00  0.00    -0.047 C 
ATOM      6  C   LIG d   1      -3.625  92.487 118.739  0.00  0.00     0.091 C 
ENDROOT
BRANCH   1   7
ATOM      7  O   LIG d   1      -5.269  93.601 120.175  0.00  0.00    -0.368 OA
BRANCH   7   8
ATOM      8  C   LIG d   1      -6.486  94.359 120.382  0.00  0.00     0.119 C 
BRANCH   8   9
ATOM      9  C   LIG d   1      -6.092  95.844 120.505  0.00  0.00     0.028 C 
ATOM     10  C   LIG d   1      -6.498  96.663 119.269  0.00  0.00     0.006 C 
ENDBRANCH   8   9
BRANCH   8  11
ATOM     11  C   LIG d   1      -7.145  94.002 121.717  0.00  0.00     0.028 C 
ATOM     12  C   LIG d   1      -8.375  93.095 121.552  0.00  0.00     0.006 C 
ENDBRANCH   8  11
ENDBRANCH   7   8
ENDBRANCH   1   7
BRANCH   6  13
ATOM     13  N   LIG d   1      -2.475  93.368 119.070  0.00  0.00    -0.311 N 
ATOM     14  C   LIG d   1      -1.420  92.962 119.776  0.00  0.00     0.210 C 
ATOM     15  C   LIG d   1      -0.355  94.035 120.021  0.00  0.00     0.109 C 
ATOM     16  O   LIG d   1      -1.251  91.807 120.195  0.00  0.00    -0.276 OA
ATOM     17  H   LIG d   1      -2.515  94.313 118.743  0.00  0.00     0.149 HD
ENDBRANCH   6  13
BRANCH   5  18
ATOM     18  N   LIG d   1      -2.318  90.881 117.303  0.00  0.00     0.381 N 
ATOM     19  H   LIG d   1      -2.601  89.967 117.596  0.00  0.00    -0.090 HD
ATOM     20  H   LIG d   1      -1.606  91.207 117.933  0.00  0.00    -0.090 HD
ATOM     21  H   LIG d   1      -1.958  90.843 116.375  0.00  0.00    -0.090 HD
ENDBRANCH   5  18
BRANCH   3  22
ATOM     22  C   LIG d   1      -6.998  91.390 116.424  0.00  0.00     0.382 C 
ATOM     23  O   LIG d   1      -7.327  90.187 116.293  0.00  0.00    -0.241 OA
ATOM     24  O   LIG d   1      -7.627  92.269 115.805  0.00  0.00    -0.241 OA
ENDBRANCH   3  22
TORSDOF 7
ENDMDL
MODEL 5
REMARK VINA RESULT:      -4.8     12.685     15.550
REMARK  7 active torsions:
REMARK  status: ('A' for Active; 'I' for Inactive)
REMARK    1  A    between atoms: C_2  and  C_3 
REMARK    2  A    between atoms: C_3  and  O_6 
REMARK    3  A    between atoms: C_3  and  C_4 
REMARK    4  A    between atoms: C_7  and  O_6 
REMARK    5  A    between atoms: C_9  and  C_10 
REMARK    6  A    between atoms: N_15  and  C_14 
REMARK    7  A    between atoms: N_20  and  C_19 
REMARK       I    between atoms: C_22  and  N_20 
ROOT
ATOM      1  C   LIG d   1      -8.144  79.034 118.551  0.00  0.00     0.161 C 
ATOM      2  C   LIG d   1      -8.976  80.166 118.524  0.00  0.00     0.016 C 
ATOM      3  C   LIG d   1      -8.502  81.474 118.271  0.00  0.00     0.038 C 
ATOM      4  C   LIG d   1      -7.178  81.720 117.877  0.00  0.00     0.028 C 
ATOM      5  C   LIG d   1      -6.191  80.673 118.384  0.00  0.00    -0.047 C 
ATOM      6  C   LIG d   1      -6.716  79.268 118.014  0.00  0.00     0.091 C 
ENDROOT
BRANCH   1   7
ATOM      7  O   LIG d   1      -8.774  77.948 117.844  0.00  0.00    -0.368 OA
BRANCH   7   8
ATOM      8  C   LIG d   1      -9.282  76.865 118.661  0.00  0.00     0.119 C 
BRANCH   8   9
ATOM      9  C   LIG d   1      -9.064  75.554 117.881  0.00  0.00     0.028 C 
ATOM     10  C   LIG d   1     -10.380  74.809 117.604  0.00  0.00     0.006 C 
ENDBRANCH   8   9
BRANCH   8  11
ATOM     11  C   LIG d   1     -10.798  76.975 118.852  0.00  0.00     0.028 C 
ATOM     12  C   LIG d   1     -11.184  77.778 120.105  0.00  0.00     0.006 C 
ENDBRANCH   8  11
ENDBRANCH   7   8
ENDBRANCH   1   7
BRANCH   6  13
ATOM     13  N   LIG d   1      -5.853  78.182 118.546  0.00  0.00    -0.311 N 
ATOM     14  C   LIG d   1      -4.844  77.645 117.861  0.00  0.00     0.210 C 
ATOM     15  C   LIG d   1      -4.094  76.524 118.587  0.00  0.00     0.109 C 
ATOM     16  O   LIG d   1      -4.480  78.012 116.734  0.00  0.00    -0.276 OA
ATOM     17  H   LIG d   1      -6.058  77.844 119.466  0.00  0.00     0.149 HD
ENDBRANCH   6  13
BRANCH   5  18
ATOM     18  N   LIG d   1      -4.876  80.975 117.787  0.00  0.00     0.381 N 
ATOM     19  H   LIG d   1      -4.989  81.207 116.820  0.00  0.00    -0.090 HD
ATOM     20  H   LIG d   1      -4.295  80.158 117.850  0.00  0.00    -0.090 HD
ATOM     21  H   LIG d   1      -4.448  81.734 118.270  0.00  0.00    -0.090 HD
ENDBRANCH   5  18
BRANCH   3  22
ATOM     22  C   LIG d   1      -9.347  82.558 118.452  0.00  0.00     0.382 C 
ATOM     23  O   LIG d   1     -10.404  82.647 117.781  0.00  0.00    -0.241 OA
ATOM     24  O   LIG d   1      -9.045  83.470 119.245  0.00  0.00    -0.241 OA
ENDBRANCH   3  22
TORSDOF 7
ENDMDL
MODEL 6
REMARK VINA RESULT:      -4.6      2.059      2.759
REMARK  7 active torsions:
REMARK  status: ('A' for Active; 'I' for Inactive)
REMARK    1  A    between atoms: C_2  and  C_3 
REMARK    2  A    between atoms: C_3  and  O_6 
REMARK    3  A    between atoms: C_3  and  C_4 
REMARK    4  A    between atoms: C_7  and  O_6 
REMARK    5  A    between atoms: C_9  and  C_10 
REMARK    6  A    between atoms: N_15  and  C_14 
REMARK    7  A    between atoms: N_20  and  C_19 
REMARK       I    between atoms: C_22  and  N_20 
ROOT
ATOM      1  C   LIG d   1      -3.550  92.356 118.148  0.00  0.00     0.161 C 
ATOM      2  C   LIG d   1      -4.412  91.630 117.309  0.00  0.00     0.016 C 
ATOM      3  C   LIG d   1      -5.766  91.978 117.097  0.00  0.00     0.038 C 
ATOM      4  C   LIG d   1      -6.313  93.170 117.595  0.00  0.00     0.028 C 
ATOM      5  C   LIG d   1      -5.623  93.670 118.859  0.00  0.00    -0.047 C 
ATOM      6  C   LIG d   1      -4.098  93.722 118.612  0.00  0.00     0.091 C 
ENDROOT
BRANCH   1   7
ATOM      7  O   LIG d   1      -2.269  92.521 117.509  0.00  0.00    -0.368 OA
BRANCH   7   8
ATOM      8  C   LIG d   1      -1.157  91.823 118.120  0.00  0.00     0.119 C 
BRANCH   8   9
ATOM      9  C   LIG d   1       0.069  92.754 118.050  0.00  0.00     0.028 C 
ATOM     10  C   LIG d   1       1.396  91.978 118.026  0.00  0.00     0.006 C 
ENDBRANCH   8   9
BRANCH   8  11
ATOM     11  C   LIG d   1      -0.768  90.580 117.315  0.00  0.00     0.028 C 
ATOM     12  C   LIG d   1      -1.323  89.280 117.920  0.00  0.00     0.006 C 
ENDBRANCH   8  11
ENDBRANCH   7   8
ENDBRANCH   1   7
BRANCH   6  13
ATOM     13  N   LIG d   1      -3.340  94.121 119.827  0.00  0.00    -0.311 N 
ATOM     14  C   LIG d   1      -2.949  95.371 120.069  0.00  0.00     0.210 C 
ATOM     15  C   LIG d   1      -2.163  95.562 121.370  0.00  0.00     0.109 C 
ATOM     16  O   LIG d   1      -3.207  96.345 119.347  0.00  0.00    -0.276 OA
ATOM     17  H   LIG d   1      -3.115  93.398 120.482  0.00  0.00     0.149 HD
ENDBRANCH   6  13
BRANCH   5  18
ATOM     18  N   LIG d   1      -6.200  94.987 119.190  0.00  0.00     0.381 N 
ATOM     19  H   LIG d   1      -7.146  95.033 118.868  0.00  0.00    -0.090 HD
ATOM     20  H   LIG d   1      -5.672  95.701 118.720  0.00  0.00    -0.090 HD
ATOM     21  H   LIG d   1      -6.169  95.135 120.175  0.00  0.00    -0.090 HD
ENDBRANCH   5  18
BRANCH   3  22
ATOM     22  C   LIG d   1      -6.599  91.107 116.411  0.00  0.00     0.382 C 
ATOM     23  O   LIG d   1      -7.842  91.278 116.436  0.00  0.00    -0.241 OA
ATOM     24  O   LIG d   1      -6.127  90.126 115.805  0.00  0.00    -0.241 OA
ENDBRANCH   3  22
TORSDOF 7
ENDMDL
MODEL 7
REMARK VINA RESULT:      -4.6      2.357      3.360
REMARK  7 active torsions:
REMARK  status: ('A' for Active; 'I' for Inactive)
REMARK    1  A    between atoms: C_2  and  C_3 
REMARK    2  A    between atoms: C_3  and  O_6 
REMARK    3  A    between atoms: C_3  and  C_4 
REMARK    4  A    between atoms: C_7  and  O_6 
REMARK    5  A    between atoms: C_9  and  C_10 
REMARK    6  A    between atoms: N_15  and  C_14 
REMARK    7  A    between atoms: N_20  and  C_19 
REMARK       I    between atoms: C_22  and  N_20 
ROOT
ATOM      1  C   LIG d   1      -3.624  91.729 118.267  0.00  0.00     0.161 C 
ATOM      2  C   LIG d   1      -4.664  91.432 117.370  0.00  0.00     0.016 C 
ATOM      3  C   LIG d   1      -5.854  92.189 117.279  0.00  0.00     0.038 C 
ATOM      4  C   LIG d   1      -6.022  93.393 117.979  0.00  0.00     0.028 C 
ATOM      5  C   LIG d   1      -5.213  93.461 119.270  0.00  0.00    -0.047 C 
ATOM      6  C   LIG d   1      -3.742  93.103 118.959  0.00  0.00     0.091 C 
ENDROOT
BRANCH   1   7
ATOM      7  O   LIG d   1      -2.353  91.612 117.598  0.00  0.00    -0.368 OA
BRANCH   7   8
ATOM      8  C   LIG d   1      -1.711  90.316 117.671  0.00  0.00     0.119 C 
BRANCH   8   9
ATOM      9  C   LIG d   1      -1.871  89.801 119.114  0.00  0.00     0.028 C 
ATOM     10  C   LIG d   1      -2.330  88.334 119.167  0.00  0.00     0.006 C 
ENDBRANCH   8   9
BRANCH   8  11
ATOM     11  C   LIG d   1      -0.201  90.428 117.445  0.00  0.00     0.028 C 
ATOM     12  C   LIG d   1       0.534  91.062 118.637  0.00  0.00     0.006 C 
ENDBRANCH   8  11
ENDBRANCH   7   8
ENDBRANCH   1   7
BRANCH   6  13
ATOM     13  N   LIG d   1      -2.897  93.064 120.182  0.00  0.00    -0.311 N 
ATOM     14  C   LIG d   1      -1.687  93.614 120.255  0.00  0.00     0.210 C 
ATOM     15  C   LIG d   1      -0.978  93.441 121.602  0.00  0.00     0.109 C 
ATOM     16  O   LIG d   1      -1.145  94.256 119.343  0.00  0.00    -0.276 OA
ATOM     17  H   LIG d   1      -3.272  92.589 120.980  0.00  0.00     0.149 HD
ENDBRANCH   6  13
BRANCH   5  18
ATOM     18  N   LIG d   1      -5.373  94.819 119.825  0.00  0.00     0.381 N 
ATOM     19  H   LIG d   1      -6.338  95.080 119.809  0.00  0.00    -0.090 HD
ATOM     20  H   LIG d   1      -4.861  95.467 119.252  0.00  0.00    -0.090 HD
ATOM     21  H   LIG d   1      -5.029  94.847 120.760  0.00  0.00    -0.090 HD
ENDBRANCH   5  18
BRANCH   3  22
ATOM     22  C   LIG d   1      -6.910  91.722 116.511  0.00  0.00     0.382 C 
ATOM     23  O   LIG d   1      -7.575  92.520 115.808  0.00  0.00    -0.241 OA
ATOM     24  O   LIG d   1      -7.232  90.519 116.546  0.00  0.00    -0.241 OA
ENDBRANCH   3  22
TORSDOF 7
ENDMDL
MODEL 8
REMARK VINA RESULT:      -4.5     28.261     30.857
REMARK  7 active torsions:
REMARK  status: ('A' for Active; 'I' for Inactive)
REMARK    1  A    between atoms: C_2  and  C_3 
REMARK    2  A    between atoms: C_3  and  O_6 
REMARK    3  A    between atoms: C_3  and  C_4 
REMARK    4  A    between atoms: C_7  and  O_6 
REMARK    5  A    between atoms: C_9  and  C_10 
REMARK    6  A    between atoms: N_15  and  C_14 
REMARK    7  A    between atoms: N_20  and  C_19 
REMARK       I    between atoms: C_22  and  N_20 
ROOT
ATOM      1  C   LIG d   1     -14.655  64.903 119.048  0.00  0.00     0.161 C 
ATOM      2  C   LIG d   1     -14.009  65.818 119.896  0.00  0.00     0.016 C 
ATOM      3  C   LIG d   1     -13.324  65.439 121.073  0.00  0.00     0.038 C 
ATOM      4  C   LIG d   1     -13.107  64.093 121.403  0.00  0.00     0.028 C 
ATOM      5  C   LIG d   1     -14.171  63.153 120.846  0.00  0.00    -0.047 C 
ATOM      6  C   LIG d   1     -14.334  63.421 119.332  0.00  0.00     0.091 C 
ENDROOT
BRANCH   1   7
ATOM      7  O   LIG d   1     -14.365  65.223 117.673  0.00  0.00    -0.368 OA
BRANCH   7   8
ATOM      8  C   LIG d   1     -15.511  65.444 116.814  0.00  0.00     0.119 C 
BRANCH   8   9
ATOM      9  C   LIG d   1     -15.194  66.659 115.921  0.00  0.00     0.028 C 
ATOM     10  C   LIG d   1     -15.662  67.985 116.544  0.00  0.00     0.006 C 
ENDBRANCH   8   9
BRANCH   8  11
ATOM     11  C   LIG d   1     -16.745  65.850 117.626  0.00  0.00     0.028 C 
ATOM     12  C   LIG d   1     -17.942  64.914 117.398  0.00  0.00     0.006 C 
ENDBRANCH   8  11
ENDBRANCH   7   8
ENDBRANCH   1   7
BRANCH   6  13
ATOM     13  N   LIG d   1     -15.416  62.602 118.725  0.00  0.00    -0.311 N 
ATOM     14  C   LIG d   1     -15.245  61.850 117.639  0.00  0.00     0.210 C 
ATOM     15  C   LIG d   1     -16.495  61.102 117.167  0.00  0.00     0.109 C 
ATOM     16  O   LIG d   1     -14.168  61.707 117.041  0.00  0.00    -0.276 OA
ATOM     17  H   LIG d   1     -16.315  62.635 119.165  0.00  0.00     0.149 HD
ENDBRANCH   6  13
BRANCH   5  18
ATOM     18  N   LIG d   1     -13.749  61.772 121.147  0.00  0.00     0.381 N 
ATOM     19  H   LIG d   1     -12.774  61.666 120.949  0.00  0.00    -0.090 HD
ATOM     20  H   LIG d   1     -14.261  61.140 120.558  0.00  0.00    -0.090 HD
ATOM     21  H   LIG d   1     -13.925  61.563 122.105  0.00  0.00    -0.090 HD
ENDBRANCH   5  18
BRANCH   3  22
ATOM     22  C   LIG d   1     -12.881  66.413 121.954  0.00  0.00     0.382 C 
ATOM     23  O   LIG d   1     -11.787  66.267 122.552  0.00  0.00    -0.241 OA
ATOM     24  O   LIG d   1     -13.582  67.414 122.194  0.00  0.00    -0.241 OA
ENDBRANCH   3  22
TORSDOF 7
ENDMDL
MODEL 9
REMARK VINA RESULT:      -4.5     12.157     14.622
REMARK  7 active torsions:
REMARK  status: ('A' for Active; 'I' for Inactive)
REMARK    1  A    between atoms: C_2  and  C_3 
REMARK    2  A    between atoms: C_3  and  O_6 
REMARK    3  A    between atoms: C_3  and  C_4 
REMARK    4  A    between atoms: C_7  and  O_6 
REMARK    5  A    between atoms: C_9  and  C_10 
REMARK    6  A    between atoms: N_15  and  C_14 
REMARK    7  A    between atoms: N_20  and  C_19 
REMARK       I    between atoms: C_22  and  N_20 
ROOT
ATOM      1  C   LIG d   1      -8.220  79.602 118.073  0.00  0.00     0.161 C 
ATOM      2  C   LIG d   1      -9.387  79.230 118.760  0.00  0.00     0.016 C 
ATOM      3  C   LIG d   1      -9.388  78.374 119.885  0.00  0.00     0.038 C 
ATOM      4  C   LIG d   1      -8.198  77.949 120.495  0.00  0.00     0.028 C 
ATOM      5  C   LIG d   1      -7.014  77.888 119.535  0.00  0.00    -0.047 C 
ATOM      6  C   LIG d   1      -6.903  79.238 118.790  0.00  0.00     0.091 C 
ENDROOT
BRANCH   1   7
ATOM      7  O   LIG d   1      -8.256  81.012 117.776  0.00  0.00    -0.368 OA
BRANCH   7   8
ATOM      8  C   LIG d   1      -8.085  81.905 118.904  0.00  0.00     0.119 C 
BRANCH   8   9
ATOM      9  C   LIG d   1      -9.307  82.843 118.941  0.00  0.00     0.028 C 
ATOM     10  C   LIG d   1     -10.260  82.613 117.756  0.00  0.00     0.006 C 
ENDBRANCH   8   9
BRANCH   8  11
ATOM     11  C   LIG d   1      -6.874  82.823 118.710  0.00  0.00     0.028 C 
ATOM     12  C   LIG d   1      -6.049  83.000 119.994  0.00  0.00     0.006 C 
ENDBRANCH   8  11
ENDBRANCH   7   8
ENDBRANCH   1   7
BRANCH   6  13
ATOM     13  N   LIG d   1      -5.822  79.235 117.770  0.00  0.00    -0.311 N 
ATOM     14  C   LIG d   1      -4.597  79.705 117.999  0.00  0.00     0.210 C 
ATOM     15  C   LIG d   1      -3.640  79.625 116.805  0.00  0.00     0.109 C 
ATOM     16  O   LIG d   1      -4.202  80.151 119.087  0.00  0.00    -0.276 OA
ATOM     17  H   LIG d   1      -6.046  78.862 116.868  0.00  0.00     0.149 HD
ENDBRANCH   6  13
BRANCH   5  18
ATOM     18  N   LIG d   1      -5.813  77.565 120.328  0.00  0.00     0.381 N 
ATOM     19  H   LIG d   1      -5.099  78.243 120.152  0.00  0.00    -0.090 HD
ATOM     20  H   LIG d   1      -5.470  76.664 120.047  0.00  0.00    -0.090 HD
ATOM     21  H   LIG d   1      -6.038  77.554 121.299  0.00  0.00    -0.090 HD
ENDBRANCH   5  18
BRANCH   3  22
ATOM     22  C   LIG d   1     -10.590  77.901 120.388  0.00  0.00     0.382 C 
ATOM     23  O   LIG d   1     -10.736  77.748 121.625  0.00  0.00    -0.241 OA
ATOM     24  O   LIG d   1     -11.516  77.584 119.618  0.00  0.00    -0.241 OA
ENDBRANCH   3  22
TORSDOF 7
ENDMDL
