MODEL 1
REMARK VINA RESULT:      -5.0      0.000      0.000
REMARK  7 active torsions:
REMARK  status: ('A' for Active; 'I' for Inactive)
REMARK    1  A    between atoms: C_2  and  C_3 
REMARK    2  A    between atoms: C_3  and  O_6 
REMARK    3  A    between atoms: C_3  and  C_4 
REMARK    4  A    between atoms: C_7  and  O_6 
REMARK    5  A    between atoms: C_9  and  C_10 
REMARK    6  A    between atoms: N_15  and  C_14 
REMARK    7  A    between atoms: N_20  and  C_19 
REMARK       I    between atoms: C_22  and  N_20 
ROOT
ATOM      1  C   LIG d   1      -4.516  92.836 119.086  0.00  0.00     0.161 C 
ATOM      2  C   LIG d   1      -5.762  93.483 119.043  0.00  0.00     0.016 C 
ATOM      3  C   LIG d   1      -6.717  93.266 118.023  0.00  0.00     0.038 C 
ATOM      4  C   LIG d   1      -6.551  92.266 117.053  0.00  0.00     0.028 C 
ATOM      5  C   LIG d   1      -5.090  91.940 116.763  0.00  0.00    -0.047 C 
ATOM      6  C   LIG d   1      -4.364  91.660 118.099  0.00  0.00     0.091 C 
ENDROOT
BRANCH   1   7
ATOM      7  O   LIG d   1      -4.240  92.399 120.432  0.00  0.00    -0.368 OA
BRANCH   7   8
ATOM      8  C   LIG d   1      -3.152  93.073 121.110  0.00  0.00     0.119 C 
BRANCH   8   9
ATOM      9  C   LIG d   1      -2.521  94.059 120.107  0.00  0.00     0.028 C 
ATOM     10  C   LIG d   1      -1.015  93.817 119.915  0.00  0.00     0.006 C 
ENDBRANCH   8   9
BRANCH   8  11
ATOM     11  C   LIG d   1      -2.032  92.095 121.476  0.00  0.00     0.028 C 
ATOM     12  C   LIG d   1      -2.506  90.634 121.517  0.00  0.00     0.006 C 
ENDBRANCH   8  11
ENDBRANCH   7   8
ENDBRANCH   1   7
BRANCH   6  13
ATOM     13  N   LIG d   1      -2.910  91.415 117.913  0.00  0.00    -0.311 N 
ATOM     14  C   LIG d   1      -2.373  90.197 117.858  0.00  0.00     0.210 C 
ATOM     15  C   LIG d   1      -0.851  90.169 117.682  0.00  0.00     0.109 C 
ATOM     16  O   LIG d   1      -3.016  89.138 117.907  0.00  0.00    -0.276 OA
ATOM     17  H   LIG d   1      -2.318  92.218 117.833  0.00  0.00     0.149 HD
ENDBRANCH   6  13
BRANCH   5  18
ATOM     18  N   LIG d   1      -5.064  90.790 115.839  0.00  0.00     0.381 N 
ATOM     19  H   LIG d   1      -5.968  90.666 115.427  0.00  0.00    -0.090 HD
ATOM     20  H   LIG d   1      -4.839  89.960 116.359  0.00  0.00    -0.090 HD
ATOM     21  H   LIG d   1      -4.384  90.940 115.127  0.00  0.00    -0.090 HD
ENDBRANCH   5  18
BRANCH   3  22
ATOM     22  C   LIG d   1      -7.836  94.081 117.943  0.00  0.00     0.382 C 
ATOM     23  O   LIG d   1      -7.738  95.306 118.196  0.00  0.00    -0.241 OA
ATOM     24  O   LIG d   1      -8.950  93.599 117.665  0.00  0.00    -0.241 OA
ENDBRANCH   3  22
TORSDOF 7
ENDMDL
MODEL 2
REMARK VINA RESULT:      -4.9      3.141      6.346
REMARK  7 active torsions:
REMARK  status: ('A' for Active; 'I' for Inactive)
REMARK    1  A    between atoms: C_2  and  C_3 
REMARK    2  A    between atoms: C_3  and  O_6 
REMARK    3  A    between atoms: C_3  and  C_4 
REMARK    4  A    between atoms: C_7  and  O_6 
REMARK    5  A    between atoms: C_9  and  C_10 
REMARK    6  A    between atoms: N_15  and  C_14 
REMARK    7  A    between atoms: N_20  and  C_19 
REMARK       I    between atoms: C_22  and  N_20 
ROOT
ATOM      1  C   LIG d   1      -0.729  90.883 116.921  0.00  0.00     0.161 C 
ATOM      2  C   LIG d   1       0.595  91.239 117.229  0.00  0.00     0.016 C 
ATOM      3  C   LIG d   1       0.972  92.529 117.667  0.00  0.00     0.038 C 
ATOM      4  C   LIG d   1       0.022  93.514 117.975  0.00  0.00     0.028 C 
ATOM      5  C   LIG d   1      -1.282  93.362 117.200  0.00  0.00    -0.047 C 
ATOM      6  C   LIG d   1      -1.793  91.912 117.358  0.00  0.00     0.091 C 
ENDROOT
BRANCH   1   7
ATOM      7  O   LIG d   1      -1.028  89.587 117.477  0.00  0.00    -0.368 OA
BRANCH   7   8
ATOM      8  C   LIG d   1      -0.665  89.389 118.865  0.00  0.00     0.119 C 
BRANCH   8   9
ATOM      9  C   LIG d   1      -0.012  87.998 118.979  0.00  0.00     0.028 C 
ATOM     10  C   LIG d   1       0.262  87.364 117.605  0.00  0.00     0.006 C 
ENDBRANCH   8   9
BRANCH   8  11
ATOM     11  C   LIG d   1      -1.905  89.329 119.762  0.00  0.00     0.028 C 
ATOM     12  C   LIG d   1      -3.141  88.779 119.034  0.00  0.00     0.006 C 
ENDBRANCH   8  11
ENDBRANCH   7   8
ENDBRANCH   1   7
BRANCH   6  13
ATOM     13  N   LIG d   1      -3.021  91.654 116.561  0.00  0.00    -0.311 N 
ATOM     14  C   LIG d   1      -4.253  91.763 117.057  0.00  0.00     0.210 C 
ATOM     15  C   LIG d   1      -5.378  91.433 116.071  0.00  0.00     0.109 C 
ATOM     16  O   LIG d   1      -4.521  92.134 118.210  0.00  0.00    -0.276 OA
ATOM     17  H   LIG d   1      -2.896  91.379 115.607  0.00  0.00     0.149 HD
ENDBRANCH   6  13
BRANCH   5  18
ATOM     18  N   LIG d   1      -2.228  94.368 117.718  0.00  0.00     0.381 N 
ATOM     19  H   LIG d   1      -3.161  94.128 117.446  0.00  0.00    -0.090 HD
ATOM     20  H   LIG d   1      -2.004  95.262 117.317  0.00  0.00    -0.090 HD
ATOM     21  H   LIG d   1      -2.166  94.416 118.711  0.00  0.00    -0.090 HD
ENDBRANCH   5  18
BRANCH   3  22
ATOM     22  C   LIG d   1       2.316  92.856 117.764  0.00  0.00     0.382 C 
ATOM     23  O   LIG d   1       3.143  92.350 116.967  0.00  0.00    -0.241 OA
ATOM     24  O   LIG d   1       2.718  93.616 118.665  0.00  0.00    -0.241 OA
ENDBRANCH   3  22
TORSDOF 7
ENDMDL
MODEL 3
REMARK VINA RESULT:      -4.9      2.153      3.446
REMARK  7 active torsions:
REMARK  status: ('A' for Active; 'I' for Inactive)
REMARK    1  A    between atoms: C_2  and  C_3 
REMARK    2  A    between atoms: C_3  and  O_6 
REMARK    3  A    between atoms: C_3  and  C_4 
REMARK    4  A    between atoms: C_7  and  O_6 
REMARK    5  A    between atoms: C_9  and  C_10 
REMARK    6  A    between atoms: N_15  and  C_14 
REMARK    7  A    between atoms: N_20  and  C_19 
REMARK       I    between atoms: C_22  and  N_20 
ROOT
ATOM      1  C   LIG d   1      -4.717  93.169 118.994  0.00  0.00     0.161 C 
ATOM      2  C   LIG d   1      -5.841  92.780 118.246  0.00  0.00     0.016 C 
ATOM      3  C   LIG d   1      -5.764  91.973 117.088  0.00  0.00     0.038 C 
ATOM      4  C   LIG d   1      -4.564  91.370 116.683  0.00  0.00     0.028 C 
ATOM      5  C   LIG d   1      -3.322  92.142 117.115  0.00  0.00    -0.047 C 
ATOM      6  C   LIG d   1      -3.412  92.429 118.631  0.00  0.00     0.091 C 
ENDROOT
BRANCH   1   7
ATOM      7  O   LIG d   1      -4.996  93.032 120.401  0.00  0.00    -0.368 OA
BRANCH   7   8
ATOM      8  C   LIG d   1      -5.117  94.267 121.149  0.00  0.00     0.119 C 
BRANCH   8   9
ATOM      9  C   LIG d   1      -6.608  94.457 121.491  0.00  0.00     0.028 C 
ATOM     10  C   LIG d   1      -7.296  95.477 120.568  0.00  0.00     0.006 C 
ENDBRANCH   8   9
BRANCH   8  11
ATOM     11  C   LIG d   1      -4.741  95.478 120.291  0.00  0.00     0.028 C 
ATOM     12  C   LIG d   1      -3.517  96.234 120.832  0.00  0.00     0.006 C 
ENDBRANCH   8  11
ENDBRANCH   7   8
ENDBRANCH   1   7
BRANCH   6  13
ATOM     13  N   LIG d   1      -2.277  93.254 119.120  0.00  0.00    -0.311 N 
ATOM     14  C   LIG d   1      -1.492  92.894 120.134  0.00  0.00     0.210 C 
ATOM     15  C   LIG d   1      -0.393  93.900 120.490  0.00  0.00     0.109 C 
ATOM     16  O   LIG d   1      -1.582  91.822 120.752  0.00  0.00    -0.276 OA
ATOM     17  H   LIG d   1      -2.113  94.126 118.655  0.00  0.00     0.149 HD
ENDBRANCH   6  13
BRANCH   5  18
ATOM     18  N   LIG d   1      -2.145  91.333 116.749  0.00  0.00     0.381 N 
ATOM     19  H   LIG d   1      -2.305  90.374 116.985  0.00  0.00    -0.090 HD
ATOM     20  H   LIG d   1      -1.351  91.658 117.272  0.00  0.00    -0.090 HD
ATOM     21  H   LIG d   1      -1.964  91.416 115.772  0.00  0.00    -0.090 HD
ENDBRANCH   5  18
BRANCH   3  22
ATOM     22  C   LIG d   1      -6.890  91.794 116.299  0.00  0.00     0.382 C 
ATOM     23  O   LIG d   1      -7.476  92.789 115.807  0.00  0.00    -0.241 OA
ATOM     24  O   LIG d   1      -7.354  90.654 116.109  0.00  0.00    -0.241 OA
ENDBRANCH   3  22
TORSDOF 7
ENDMDL
MODEL 4
REMARK VINA RESULT:      -4.8     13.393     14.996
REMARK  7 active torsions:
REMARK  status: ('A' for Active; 'I' for Inactive)
REMARK    1  A    between atoms: C_2  and  C_3 
REMARK    2  A    between atoms: C_3  and  O_6 
REMARK    3  A    between atoms: C_3  and  C_4 
REMARK    4  A    between atoms: C_7  and  O_6 
REMARK    5  A    between atoms: C_9  and  C_10 
REMARK    6  A    between atoms: N_15  and  C_14 
REMARK    7  A    between atoms: N_20  and  C_19 
REMARK       I    between atoms: C_22  and  N_20 
ROOT
ATOM      1  C   LIG d   1      -8.308  78.491 118.370  0.00  0.00     0.161 C 
ATOM      2  C   LIG d   1      -9.512  77.791 118.551  0.00  0.00     0.016 C 
ATOM      3  C   LIG d   1      -9.756  76.509 118.008  0.00  0.00     0.038 C 
ATOM      4  C   LIG d   1      -8.749  75.770 117.369  0.00  0.00     0.028 C 
ATOM      5  C   LIG d   1      -7.675  76.641 116.725  0.00  0.00    -0.047 C 
ATOM      6  C   LIG d   1      -7.158  77.655 117.770  0.00  0.00     0.091 C 
ENDROOT
BRANCH   1   7
ATOM      7  O   LIG d   1      -7.897  79.087 119.616  0.00  0.00    -0.368 OA
BRANCH   7   8
ATOM      8  C   LIG d   1      -7.976  80.532 119.688  0.00  0.00     0.119 C 
BRANCH   8   9
ATOM      9  C   LIG d   1      -9.013  80.885 120.772  0.00  0.00     0.028 C 
ATOM     10  C   LIG d   1     -10.391  81.220 120.179  0.00  0.00     0.006 C 
ENDBRANCH   8   9
BRANCH   8  11
ATOM     11  C   LIG d   1      -8.530  81.126 118.389  0.00  0.00     0.028 C 
ATOM     12  C   LIG d   1      -7.542  82.083 117.704  0.00  0.00     0.006 C 
ENDBRANCH   8  11
ENDBRANCH   7   8
ENDBRANCH   1   7
BRANCH   6  13
ATOM     13  N   LIG d   1      -6.164  78.602 117.198  0.00  0.00    -0.311 N 
ATOM     14  C   LIG d   1      -4.849  78.395 117.235  0.00  0.00     0.210 C 
ATOM     15  C   LIG d   1      -4.002  79.505 116.605  0.00  0.00     0.109 C 
ATOM     16  O   LIG d   1      -4.305  77.382 117.700  0.00  0.00    -0.276 OA
ATOM     17  H   LIG d   1      -6.521  79.435 116.773  0.00  0.00     0.149 HD
ENDBRANCH   6  13
BRANCH   5  18
ATOM     18  N   LIG d   1      -6.620  75.744 116.217  0.00  0.00     0.381 N 
ATOM     19  H   LIG d   1      -6.945  74.798 116.227  0.00  0.00    -0.090 HD
ATOM     20  H   LIG d   1      -5.819  75.809 116.821  0.00  0.00    -0.090 HD
ATOM     21  H   LIG d   1      -6.367  76.006 115.290  0.00  0.00    -0.090 HD
ENDBRANCH   5  18
BRANCH   3  22
ATOM     22  C   LIG d   1     -11.032  75.969 118.067  0.00  0.00     0.382 C 
ATOM     23  O   LIG d   1     -11.289  74.901 117.460  0.00  0.00    -0.241 OA
ATOM     24  O   LIG d   1     -11.940  76.559 118.682  0.00  0.00    -0.241 OA
ENDBRANCH   3  22
TORSDOF 7
ENDMDL
MODEL 5
REMARK VINA RESULT:      -4.8     12.910     14.511
REMARK  7 active torsions:
REMARK  status: ('A' for Active; 'I' for Inactive)
REMARK    1  A    between atoms: C_2  and  C_3 
REMARK    2  A    between atoms: C_3  and  O_6 
REMARK    3  A    between atoms: C_3  and  C_4 
REMARK    4  A    between atoms: C_7  and  O_6 
REMARK    5  A    between atoms: C_9  and  C_10 
REMARK    6  A    between atoms: N_15  and  C_14 
REMARK    7  A    between atoms: N_20  and  C_19 
REMARK       I    between atoms: C_22  and  N_20 
ROOT
ATOM      1  C   LIG d   1      -8.475  79.029 119.856  0.00  0.00     0.161 C 
ATOM      2  C   LIG d   1      -9.229  79.911 119.064  0.00  0.00     0.016 C 
ATOM      3  C   LIG d   1      -8.651  80.859 118.189  0.00  0.00     0.038 C 
ATOM      4  C   LIG d   1      -7.272  80.887 117.932  0.00  0.00     0.028 C 
ATOM      5  C   LIG d   1      -6.430  80.354 119.086  0.00  0.00    -0.047 C 
ATOM      6  C   LIG d   1      -6.973  78.969 119.506  0.00  0.00     0.091 C 
ENDROOT
BRANCH   1   7
ATOM      7  O   LIG d   1      -9.054  77.711 119.805  0.00  0.00    -0.368 OA
BRANCH   7   8
ATOM      8  C   LIG d   1      -9.606  77.305 118.529  0.00  0.00     0.119 C 
BRANCH   8   9
ATOM      9  C   LIG d   1     -11.024  76.762 118.790  0.00  0.00     0.028 C 
ATOM     10  C   LIG d   1     -11.367  75.561 117.892  0.00  0.00     0.006 C 
ENDBRANCH   8   9
BRANCH   8  11
ATOM     11  C   LIG d   1      -8.825  76.131 117.931  0.00  0.00     0.028 C 
ATOM     12  C   LIG d   1      -7.726  76.581 116.956  0.00  0.00     0.006 C 
ENDBRANCH   8  11
ENDBRANCH   7   8
ENDBRANCH   1   7
BRANCH   6  13
ATOM     13  N   LIG d   1      -6.258  78.414 120.685  0.00  0.00    -0.311 N 
ATOM     14  C   LIG d   1      -5.233  77.569 120.589  0.00  0.00     0.210 C 
ATOM     15  C   LIG d   1      -4.653  77.102 121.928  0.00  0.00     0.109 C 
ATOM     16  O   LIG d   1      -4.728  77.187 119.523  0.00  0.00    -0.276 OA
ATOM     17  H   LIG d   1      -6.582  78.696 121.589  0.00  0.00     0.149 HD
ENDBRANCH   6  13
BRANCH   5  18
ATOM     18  N   LIG d   1      -5.027  80.312 118.632  0.00  0.00     0.381 N 
ATOM     19  H   LIG d   1      -4.877  79.496 118.073  0.00  0.00    -0.090 HD
ATOM     20  H   LIG d   1      -4.427  80.259 119.435  0.00  0.00    -0.090 HD
ATOM     21  H   LIG d   1      -4.815  81.129 118.103  0.00  0.00    -0.090 HD
ENDBRANCH   5  18
BRANCH   3  22
ATOM     22  C   LIG d   1      -9.452  81.820 117.590  0.00  0.00     0.382 C 
ATOM     23  O   LIG d   1     -10.615  82.021 118.017  0.00  0.00    -0.241 OA
ATOM     24  O   LIG d   1      -9.043  82.457 116.601  0.00  0.00    -0.241 OA
ENDBRANCH   3  22
TORSDOF 7
ENDMDL
MODEL 6
REMARK VINA RESULT:      -4.6     12.538     14.172
REMARK  7 active torsions:
REMARK  status: ('A' for Active; 'I' for Inactive)
REMARK    1  A    between atoms: C_2  and  C_3 
REMARK    2  A    between atoms: C_3  and  O_6 
REMARK    3  A    between atoms: C_3  and  C_4 
REMARK    4  A    between atoms: C_7  and  O_6 
REMARK    5  A    between atoms: C_9  and  C_10 
REMARK    6  A    between atoms: N_15  and  C_14 
REMARK    7  A    between atoms: N_20  and  C_19 
REMARK       I    between atoms: C_22  and  N_20 
ROOT
ATOM      1  C   LIG d   1      -8.384  79.488 118.778  0.00  0.00     0.161 C 
ATOM      2  C   LIG d   1      -9.443  78.636 118.425  0.00  0.00     0.016 C 
ATOM      3  C   LIG d   1      -9.668  77.380 119.033  0.00  0.00     0.038 C 
ATOM      4  C   LIG d   1      -8.932  76.954 120.149  0.00  0.00     0.028 C 
ATOM      5  C   LIG d   1      -7.532  77.556 120.216  0.00  0.00    -0.047 C 
ATOM      6  C   LIG d   1      -7.637  79.091 120.069  0.00  0.00     0.091 C 
ENDROOT
BRANCH   1   7
ATOM      7  O   LIG d   1      -8.859  80.846 118.873  0.00  0.00    -0.368 OA
BRANCH   7   8
ATOM      8  C   LIG d   1      -8.285  81.789 117.935  0.00  0.00     0.119 C 
BRANCH   8   9
ATOM      9  C   LIG d   1      -7.598  82.898 118.755  0.00  0.00     0.028 C 
ATOM     10  C   LIG d   1      -8.130  82.977 120.196  0.00  0.00     0.006 C 
ENDBRANCH   8   9
BRANCH   8  11
ATOM     11  C   LIG d   1      -9.371  82.500 117.123  0.00  0.00     0.028 C 
ATOM     12  C   LIG d   1     -10.790  82.183 117.621  0.00  0.00     0.006 C 
ENDBRANCH   8  11
ENDBRANCH   7   8
ENDBRANCH   1   7
BRANCH   6  13
ATOM     13  N   LIG d   1      -6.306  79.750 120.040  0.00  0.00    -0.311 N 
ATOM     14  C   LIG d   1      -5.717  80.262 121.120  0.00  0.00     0.210 C 
ATOM     15  C   LIG d   1      -4.355  80.915 120.865  0.00  0.00     0.109 C 
ATOM     16  O   LIG d   1      -6.180  80.209 122.269  0.00  0.00    -0.276 OA
ATOM     17  H   LIG d   1      -5.845  79.809 119.153  0.00  0.00     0.149 HD
ENDBRANCH   6  13
BRANCH   5  18
ATOM     18  N   LIG d   1      -6.929  77.138 121.496  0.00  0.00     0.381 N 
ATOM     19  H   LIG d   1      -6.139  77.716 121.703  0.00  0.00    -0.090 HD
ATOM     20  H   LIG d   1      -6.610  76.189 121.411  0.00  0.00    -0.090 HD
ATOM     21  H   LIG d   1      -7.601  77.205 122.228  0.00  0.00    -0.090 HD
ENDBRANCH   5  18
BRANCH   3  22
ATOM     22  C   LIG d   1     -10.613  76.517 118.499  0.00  0.00     0.382 C 
ATOM     23  O   LIG d   1     -10.248  75.550 117.787  0.00  0.00    -0.241 OA
ATOM     24  O   LIG d   1     -11.828  76.718 118.684  0.00  0.00    -0.241 OA
ENDBRANCH   3  22
TORSDOF 7
ENDMDL
MODEL 7
REMARK VINA RESULT:      -4.6     12.441     14.027
REMARK  7 active torsions:
REMARK  status: ('A' for Active; 'I' for Inactive)
REMARK    1  A    between atoms: C_2  and  C_3 
REMARK    2  A    between atoms: C_3  and  O_6 
REMARK    3  A    between atoms: C_3  and  C_4 
REMARK    4  A    between atoms: C_7  and  O_6 
REMARK    5  A    between atoms: C_9  and  C_10 
REMARK    6  A    between atoms: N_15  and  C_14 
REMARK    7  A    between atoms: N_20  and  C_19 
REMARK       I    between atoms: C_22  and  N_20 
ROOT
ATOM      1  C   LIG d   1      -9.229  79.830 119.300  0.00  0.00     0.161 C 
ATOM      2  C   LIG d   1     -10.118  78.782 119.007  0.00  0.00     0.016 C 
ATOM      3  C   LIG d   1      -9.713  77.435 118.864  0.00  0.00     0.038 C 
ATOM      4  C   LIG d   1      -8.405  77.019 119.154  0.00  0.00     0.028 C 
ATOM      5  C   LIG d   1      -7.364  78.117 118.961  0.00  0.00    -0.047 C 
ATOM      6  C   LIG d   1      -7.817  79.379 119.729  0.00  0.00     0.091 C 
ENDROOT
BRANCH   1   7
ATOM      7  O   LIG d   1      -9.805  80.694 120.299  0.00  0.00    -0.368 OA
BRANCH   7   8
ATOM      8  C   LIG d   1     -10.502  81.864 119.805  0.00  0.00     0.119 C 
BRANCH   8   9
ATOM      9  C   LIG d   1      -9.830  82.279 118.482  0.00  0.00     0.028 C 
ATOM     10  C   LIG d   1     -10.819  82.302 117.304  0.00  0.00     0.006 C 
ENDBRANCH   8   9
BRANCH   8  11
ATOM     11  C   LIG d   1     -10.320  83.060 120.745  0.00  0.00     0.028 C 
ATOM     12  C   LIG d   1      -9.048  83.867 120.441  0.00  0.00     0.006 C 
ENDBRANCH   8  11
ENDBRANCH   7   8
ENDBRANCH   1   7
BRANCH   6  13
ATOM     13  N   LIG d   1      -6.897  80.528 119.525  0.00  0.00    -0.311 N 
ATOM     14  C   LIG d   1      -6.421  81.272 120.522  0.00  0.00     0.210 C 
ATOM     15  C   LIG d   1      -5.503  82.420 120.090  0.00  0.00     0.109 C 
ATOM     16  O   LIG d   1      -6.645  81.070 121.725  0.00  0.00    -0.276 OA
ATOM     17  H   LIG d   1      -6.638  80.743 118.582  0.00  0.00     0.149 HD
ENDBRANCH   6  13
BRANCH   5  18
ATOM     18  N   LIG d   1      -6.068  77.589 119.430  0.00  0.00     0.381 N 
ATOM     19  H   LIG d   1      -5.352  77.814 118.769  0.00  0.00    -0.090 HD
ATOM     20  H   LIG d   1      -6.131  76.589 119.499  0.00  0.00    -0.090 HD
ATOM     21  H   LIG d   1      -5.844  77.977 120.319  0.00  0.00    -0.090 HD
ENDBRANCH   5  18
BRANCH   3  22
ATOM     22  C   LIG d   1     -10.613  76.494 118.387  0.00  0.00     0.382 C 
ATOM     23  O   LIG d   1     -11.840  76.632 118.607  0.00  0.00    -0.241 OA
ATOM     24  O   LIG d   1     -10.208  75.486 117.777  0.00  0.00    -0.241 OA
ENDBRANCH   3  22
TORSDOF 7
ENDMDL
MODEL 8
REMARK VINA RESULT:      -4.5      2.809      5.024
REMARK  7 active torsions:
REMARK  status: ('A' for Active; 'I' for Inactive)
REMARK    1  A    between atoms: C_2  and  C_3 
REMARK    2  A    between atoms: C_3  and  O_6 
REMARK    3  A    between atoms: C_3  and  C_4 
REMARK    4  A    between atoms: C_7  and  O_6 
REMARK    5  A    between atoms: C_9  and  C_10 
REMARK    6  A    between atoms: N_15  and  C_14 
REMARK    7  A    between atoms: N_20  and  C_19 
REMARK       I    between atoms: C_22  and  N_20 
ROOT
ATOM      1  C   LIG d   1      -4.885  93.772 119.464  0.00  0.00     0.161 C 
ATOM      2  C   LIG d   1      -4.408  92.884 118.486  0.00  0.00     0.016 C 
ATOM      3  C   LIG d   1      -5.234  92.291 117.503  0.00  0.00     0.038 C 
ATOM      4  C   LIG d   1      -6.576  92.667 117.338  0.00  0.00     0.028 C 
ATOM      5  C   LIG d   1      -7.223  93.181 118.620  0.00  0.00    -0.047 C 
ATOM      6  C   LIG d   1      -6.323  94.280 119.231  0.00  0.00     0.091 C 
ENDROOT
BRANCH   1   7
ATOM      7  O   LIG d   1      -3.977  94.884 119.599  0.00  0.00    -0.368 OA
BRANCH   7   8
ATOM      8  C   LIG d   1      -2.567  94.575 119.468  0.00  0.00     0.119 C 
BRANCH   8   9
ATOM      9  C   LIG d   1      -1.877  94.998 120.779  0.00  0.00     0.028 C 
ATOM     10  C   LIG d   1      -1.332  96.434 120.718  0.00  0.00     0.006 C 
ENDBRANCH   8   9
BRANCH   8  11
ATOM     11  C   LIG d   1      -1.911  95.421 118.373  0.00  0.00     0.028 C 
ATOM     12  C   LIG d   1      -1.241  94.569 117.283  0.00  0.00     0.006 C 
ENDBRANCH   8  11
ENDBRANCH   7   8
ENDBRANCH   1   7
BRANCH   6  13
ATOM     13  N   LIG d   1      -6.841  94.778 120.532  0.00  0.00    -0.311 N 
ATOM     14  C   LIG d   1      -7.561  95.891 120.656  0.00  0.00     0.210 C 
ATOM     15  C   LIG d   1      -7.978  96.235 122.089  0.00  0.00     0.109 C 
ATOM     16  O   LIG d   1      -7.923  96.609 119.711  0.00  0.00    -0.276 OA
ATOM     17  H   LIG d   1      -6.621  94.239 121.346  0.00  0.00     0.149 HD
ENDBRANCH   6  13
BRANCH   5  18
ATOM     18  N   LIG d   1      -8.573  93.665 118.274  0.00  0.00     0.381 N 
ATOM     19  H   LIG d   1      -9.113  93.786 119.108  0.00  0.00    -0.090 HD
ATOM     20  H   LIG d   1      -9.028  92.978 117.700  0.00  0.00    -0.090 HD
ATOM     21  H   LIG d   1      -8.510  94.530 117.783  0.00  0.00    -0.090 HD
ENDBRANCH   5  18
BRANCH   3  22
ATOM     22  C   LIG d   1      -4.730  91.281 116.699  0.00  0.00     0.382 C 
ATOM     23  O   LIG d   1      -3.495  91.058 116.673  0.00  0.00    -0.241 OA
ATOM     24  O   LIG d   1      -5.488  90.620 115.964  0.00  0.00    -0.241 OA
ENDBRANCH   3  22
TORSDOF 7
ENDMDL
MODEL 9
REMARK VINA RESULT:      -4.5     13.105     15.125
REMARK  7 active torsions:
REMARK  status: ('A' for Active; 'I' for Inactive)
REMARK    1  A    between atoms: C_2  and  C_3 
REMARK    2  A    between atoms: C_3  and  O_6 
REMARK    3  A    between atoms: C_3  and  C_4 
REMARK    4  A    between atoms: C_7  and  O_6 
REMARK    5  A    between atoms: C_9  and  C_10 
REMARK    6  A    between atoms: N_15  and  C_14 
REMARK    7  A    between atoms: N_20  and  C_19 
REMARK       I    between atoms: C_22  and  N_20 
ROOT
ATOM      1  C   LIG d   1      -7.083  77.800 117.810  0.00  0.00     0.161 C 
ATOM      2  C   LIG d   1      -7.851  76.680 117.450  0.00  0.00     0.016 C 
ATOM      3  C   LIG d   1      -9.204  76.512 117.824  0.00  0.00     0.038 C 
ATOM      4  C   LIG d   1      -9.930  77.530 118.460  0.00  0.00     0.028 C 
ATOM      5  C   LIG d   1      -9.058  78.469 119.287  0.00  0.00    -0.047 C 
ATOM      6  C   LIG d   1      -7.889  78.972 118.409  0.00  0.00     0.091 C 
ENDROOT
BRANCH   1   7
ATOM      7  O   LIG d   1      -6.313  78.249 116.678  0.00  0.00    -0.368 OA
BRANCH   7   8
ATOM      8  C   LIG d   1      -4.884  78.021 116.748  0.00  0.00     0.119 C 
BRANCH   8   9
ATOM      9  C   LIG d   1      -4.583  77.389 118.121  0.00  0.00     0.028 C 
ATOM     10  C   LIG d   1      -3.579  76.228 118.025  0.00  0.00     0.006 C 
ENDBRANCH   8   9
BRANCH   8  11
ATOM     11  C   LIG d   1      -4.107  79.341 116.731  0.00  0.00     0.028 C 
ATOM     12  C   LIG d   1      -2.847  79.279 115.852  0.00  0.00     0.006 C 
ENDBRANCH   8  11
ENDBRANCH   7   8
ENDBRANCH   1   7
BRANCH   6  13
ATOM     13  N   LIG d   1      -6.941  79.830 119.166  0.00  0.00    -0.311 N 
ATOM     14  C   LIG d   1      -6.631  81.074 118.806  0.00  0.00     0.210 C 
ATOM     15  C   LIG d   1      -5.616  81.776 119.714  0.00  0.00     0.109 C 
ATOM     16  O   LIG d   1      -7.124  81.674 117.839  0.00  0.00    -0.276 OA
ATOM     17  H   LIG d   1      -6.518  79.433 119.982  0.00  0.00     0.149 HD
ENDBRANCH   6  13
BRANCH   5  18
ATOM     18  N   LIG d   1      -9.921  79.559 119.780  0.00  0.00     0.381 N 
ATOM     19  H   LIG d   1     -10.144  80.181 119.029  0.00  0.00    -0.090 HD
ATOM     20  H   LIG d   1      -9.421  80.077 120.481  0.00  0.00    -0.090 HD
ATOM     21  H   LIG d   1     -10.758  79.183 120.168  0.00  0.00    -0.090 HD
ENDBRANCH   5  18
BRANCH   3  22
ATOM     22  C   LIG d   1      -9.834  75.298 117.596  0.00  0.00     0.382 C 
ATOM     23  O   LIG d   1      -9.150  74.263 117.405  0.00  0.00    -0.241 OA
ATOM     24  O   LIG d   1     -11.076  75.232 117.535  0.00  0.00    -0.241 OA
ENDBRANCH   3  22
TORSDOF 7
ENDMDL
