MODEL 1
REMARK VINA RESULT:      -5.4      0.000      0.000
REMARK  7 active torsions:
REMARK  status: ('A' for Active; 'I' for Inactive)
REMARK    1  A    between atoms: C_2  and  C_3 
REMARK    2  A    between atoms: C_3  and  O_6 
REMARK    3  A    between atoms: C_3  and  C_4 
REMARK    4  A    between atoms: C_7  and  O_6 
REMARK    5  A    between atoms: C_9  and  C_10 
REMARK    6  A    between atoms: N_15  and  C_14 
REMARK    7  A    between atoms: N_20  and  C_19 
REMARK       I    between atoms: C_22  and  N_20 
ROOT
ATOM      1  C   LIG d   1      -5.495  93.014 117.415  0.00  0.00     0.161 C 
ATOM      2  C   LIG d   1      -6.594  92.167 117.195  0.00  0.00     0.016 C 
ATOM      3  C   LIG d   1      -6.469  90.791 116.897  0.00  0.00     0.038 C 
ATOM      4  C   LIG d   1      -5.232  90.131 116.947  0.00  0.00     0.028 C 
ATOM      5  C   LIG d   1      -4.045  91.047 116.669  0.00  0.00    -0.047 C 
ATOM      6  C   LIG d   1      -4.144  92.289 117.584  0.00  0.00     0.091 C 
ENDROOT
BRANCH   1   7
ATOM      7  O   LIG d   1      -5.753  93.864 118.550  0.00  0.00    -0.368 OA
BRANCH   7   8
ATOM      8  C   LIG d   1      -6.726  93.375 119.506  0.00  0.00     0.119 C 
BRANCH   8   9
ATOM      9  C   LIG d   1      -7.683  94.538 119.829  0.00  0.00     0.028 C 
ATOM     10  C   LIG d   1      -8.457  95.022 118.591  0.00  0.00     0.006 C 
ENDBRANCH   8   9
BRANCH   8  11
ATOM     11  C   LIG d   1      -6.064  93.012 120.838  0.00  0.00     0.028 C 
ATOM     12  C   LIG d   1      -4.643  93.583 120.973  0.00  0.00     0.006 C 
ENDBRANCH   8  11
ENDBRANCH   7   8
ENDBRANCH   1   7
BRANCH   6  13
ATOM     13  N   LIG d   1      -3.067  93.278 117.317  0.00  0.00    -0.311 N 
ATOM     14  C   LIG d   1      -1.930  93.329 118.009  0.00  0.00     0.210 C 
ATOM     15  C   LIG d   1      -0.963  94.437 117.583  0.00  0.00     0.109 C 
ATOM     16  O   LIG d   1      -1.617  92.541 118.914  0.00  0.00    -0.276 OA
ATOM     17  H   LIG d   1      -3.224  93.935 116.578  0.00  0.00     0.149 HD
ENDBRANCH   6  13
BRANCH   5  18
ATOM     18  N   LIG d   1      -2.815  90.263 116.889  0.00  0.00     0.381 N 
ATOM     19  H   LIG d   1      -2.723  89.570 116.174  0.00  0.00    -0.090 HD
ATOM     20  H   LIG d   1      -2.883  89.794 117.775  0.00  0.00    -0.090 HD
ATOM     21  H   LIG d   1      -2.021  90.865 116.883  0.00  0.00    -0.090 HD
ENDBRANCH   5  18
BRANCH   3  22
ATOM     22  C   LIG d   1      -7.585  90.068 116.504  0.00  0.00     0.382 C 
ATOM     23  O   LIG d   1      -8.472  90.615 115.805  0.00  0.00    -0.241 OA
ATOM     24  O   LIG d   1      -7.738  88.890 116.877  0.00  0.00    -0.241 OA
ENDBRANCH   3  22
TORSDOF 7
ENDMDL
MODEL 2
REMARK VINA RESULT:      -4.9      2.187      4.417
REMARK  7 active torsions:
REMARK  status: ('A' for Active; 'I' for Inactive)
REMARK    1  A    between atoms: C_2  and  C_3 
REMARK    2  A    between atoms: C_3  and  O_6 
REMARK    3  A    between atoms: C_3  and  C_4 
REMARK    4  A    between atoms: C_7  and  O_6 
REMARK    5  A    between atoms: C_9  and  C_10 
REMARK    6  A    between atoms: N_15  and  C_14 
REMARK    7  A    between atoms: N_20  and  C_19 
REMARK       I    between atoms: C_22  and  N_20 
ROOT
ATOM      1  C   LIG d   1      -4.054  91.082 117.857  0.00  0.00     0.161 C 
ATOM      2  C   LIG d   1      -5.132  90.432 117.233  0.00  0.00     0.016 C 
ATOM      3  C   LIG d   1      -6.350  91.075 116.916  0.00  0.00     0.038 C 
ATOM      4  C   LIG d   1      -6.519  92.459 117.065  0.00  0.00     0.028 C 
ATOM      5  C   LIG d   1      -5.641  93.062 118.156  0.00  0.00    -0.047 C 
ATOM      6  C   LIG d   1      -4.178  92.619 117.926  0.00  0.00     0.091 C 
ENDROOT
BRANCH   1   7
ATOM      7  O   LIG d   1      -2.819  90.708 117.214  0.00  0.00    -0.368 OA
BRANCH   7   8
ATOM      8  C   LIG d   1      -1.881  89.958 118.024  0.00  0.00     0.119 C 
BRANCH   8   9
ATOM      9  C   LIG d   1      -0.462  90.382 117.601  0.00  0.00     0.028 C 
ATOM     10  C   LIG d   1       0.368  90.915 118.781  0.00  0.00     0.006 C 
ENDBRANCH   8   9
BRANCH   8  11
ATOM     11  C   LIG d   1      -1.962  88.458 117.725  0.00  0.00     0.028 C 
ATOM     12  C   LIG d   1      -2.108  87.604 118.995  0.00  0.00     0.006 C 
ENDBRANCH   8  11
ENDBRANCH   7   8
ENDBRANCH   1   7
BRANCH   6  13
ATOM     13  N   LIG d   1      -3.266  93.096 118.997  0.00  0.00    -0.311 N 
ATOM     14  C   LIG d   1      -2.116  93.723 118.755  0.00  0.00     0.210 C 
ATOM     15  C   LIG d   1      -1.317  94.113 120.003  0.00  0.00     0.109 C 
ATOM     16  O   LIG d   1      -1.697  94.023 117.627  0.00  0.00    -0.276 OA
ATOM     17  H   LIG d   1      -3.543  92.922 119.943  0.00  0.00     0.149 HD
ENDBRANCH   6  13
BRANCH   5  18
ATOM     18  N   LIG d   1      -5.815  94.527 118.110  0.00  0.00     0.381 N 
ATOM     19  H   LIG d   1      -6.780  94.748 117.964  0.00  0.00    -0.090 HD
ATOM     20  H   LIG d   1      -5.286  94.893 117.338  0.00  0.00    -0.090 HD
ATOM     21  H   LIG d   1      -5.498  94.935 118.962  0.00  0.00    -0.090 HD
ENDBRANCH   5  18
BRANCH   3  22
ATOM     22  C   LIG d   1      -7.431  90.323 116.480  0.00  0.00     0.382 C 
ATOM     23  O   LIG d   1      -8.340  90.864 115.805  0.00  0.00    -0.241 OA
ATOM     24  O   LIG d   1      -7.531  89.121 116.791  0.00  0.00    -0.241 OA
ENDBRANCH   3  22
TORSDOF 7
ENDMDL
MODEL 3
REMARK VINA RESULT:      -4.7      2.201      4.430
REMARK  7 active torsions:
REMARK  status: ('A' for Active; 'I' for Inactive)
REMARK    1  A    between atoms: C_2  and  C_3 
REMARK    2  A    between atoms: C_3  and  O_6 
REMARK    3  A    between atoms: C_3  and  C_4 
REMARK    4  A    between atoms: C_7  and  O_6 
REMARK    5  A    between atoms: C_9  and  C_10 
REMARK    6  A    between atoms: N_15  and  C_14 
REMARK    7  A    between atoms: N_20  and  C_19 
REMARK       I    between atoms: C_22  and  N_20 
ROOT
ATOM      1  C   LIG d   1      -4.277  92.666 118.320  0.00  0.00     0.161 C 
ATOM      2  C   LIG d   1      -4.477  91.511 117.545  0.00  0.00     0.016 C 
ATOM      3  C   LIG d   1      -5.719  91.172 116.960  0.00  0.00     0.038 C 
ATOM      4  C   LIG d   1      -6.814  92.048 116.986  0.00  0.00     0.028 C 
ATOM      5  C   LIG d   1      -6.807  92.991 118.184  0.00  0.00    -0.047 C 
ATOM      6  C   LIG d   1      -5.430  93.689 118.266  0.00  0.00     0.091 C 
ENDROOT
BRANCH   1   7
ATOM      7  O   LIG d   1      -3.033  93.293 117.950  0.00  0.00    -0.368 OA
BRANCH   7   8
ATOM      8  C   LIG d   1      -1.831  92.697 118.496  0.00  0.00     0.119 C 
BRANCH   8   9
ATOM      9  C   LIG d   1      -1.912  92.814 120.030  0.00  0.00     0.028 C 
ATOM     10  C   LIG d   1      -1.696  91.464 120.734  0.00  0.00     0.006 C 
ENDBRANCH   8   9
BRANCH   8  11
ATOM     11  C   LIG d   1      -0.583  93.489 118.094  0.00  0.00     0.028 C 
ATOM     12  C   LIG d   1      -0.913  94.737 117.259  0.00  0.00     0.006 C 
ENDBRANCH   8  11
ENDBRANCH   7   8
ENDBRANCH   1   7
BRANCH   6  13
ATOM     13  N   LIG d   1      -5.309  94.566 119.459  0.00  0.00    -0.311 N 
ATOM     14  C   LIG d   1      -5.616  95.862 119.451  0.00  0.00     0.210 C 
ATOM     15  C   LIG d   1      -5.399  96.587 120.783  0.00  0.00     0.109 C 
ATOM     16  O   LIG d   1      -6.077  96.474 118.475  0.00  0.00    -0.276 OA
ATOM     17  H   LIG d   1      -4.972  94.145 120.303  0.00  0.00     0.149 HD
ENDBRANCH   6  13
BRANCH   5  18
ATOM     18  N   LIG d   1      -7.926  93.938 118.013  0.00  0.00     0.381 N 
ATOM     19  H   LIG d   1      -7.902  94.626 118.739  0.00  0.00    -0.090 HD
ATOM     20  H   LIG d   1      -8.792  93.434 118.085  0.00  0.00    -0.090 HD
ATOM     21  H   LIG d   1      -7.864  94.381 117.123  0.00  0.00    -0.090 HD
ENDBRANCH   5  18
BRANCH   3  22
ATOM     22  C   LIG d   1      -5.886  89.926 116.375  0.00  0.00     0.382 C 
ATOM     23  O   LIG d   1      -6.991  89.338 116.456  0.00  0.00    -0.241 OA
ATOM     24  O   LIG d   1      -4.932  89.363 115.806  0.00  0.00    -0.241 OA
ENDBRANCH   3  22
TORSDOF 7
ENDMDL
MODEL 4
REMARK VINA RESULT:      -4.7     14.129     16.349
REMARK  7 active torsions:
REMARK  status: ('A' for Active; 'I' for Inactive)
REMARK    1  A    between atoms: C_2  and  C_3 
REMARK    2  A    between atoms: C_3  and  O_6 
REMARK    3  A    between atoms: C_3  and  C_4 
REMARK    4  A    between atoms: C_7  and  O_6 
REMARK    5  A    between atoms: C_9  and  C_10 
REMARK    6  A    between atoms: N_15  and  C_14 
REMARK    7  A    between atoms: N_20  and  C_19 
REMARK       I    between atoms: C_22  and  N_20 
ROOT
ATOM      1  C   LIG d   1      -6.135  76.172 117.144  0.00  0.00     0.161 C 
ATOM      2  C   LIG d   1      -7.092  75.144 117.161  0.00  0.00     0.016 C 
ATOM      3  C   LIG d   1      -6.766  73.774 117.044  0.00  0.00     0.038 C 
ATOM      4  C   LIG d   1      -5.437  73.325 117.054  0.00  0.00     0.028 C 
ATOM      5  C   LIG d   1      -4.445  74.357 116.527  0.00  0.00    -0.047 C 
ATOM      6  C   LIG d   1      -4.672  75.694 117.268  0.00  0.00     0.091 C 
ENDROOT
BRANCH   1   7
ATOM      7  O   LIG d   1      -6.435  77.136 118.172  0.00  0.00    -0.368 OA
BRANCH   7   8
ATOM      8  C   LIG d   1      -6.434  78.526 117.762  0.00  0.00     0.119 C 
BRANCH   8   9
ATOM      9  C   LIG d   1      -5.376  79.258 118.610  0.00  0.00     0.028 C 
ATOM     10  C   LIG d   1      -4.978  78.463 119.865  0.00  0.00     0.006 C 
ENDBRANCH   8   9
BRANCH   8  11
ATOM     11  C   LIG d   1      -7.764  79.207 118.096  0.00  0.00     0.028 C 
ATOM     12  C   LIG d   1      -7.627  80.727 118.277  0.00  0.00     0.006 C 
ENDBRANCH   8  11
ENDBRANCH   7   8
ENDBRANCH   1   7
BRANCH   6  13
ATOM     13  N   LIG d   1      -3.800  76.782 116.754  0.00  0.00    -0.311 N 
ATOM     14  C   LIG d   1      -2.629  77.104 117.302  0.00  0.00     0.210 C 
ATOM     15  C   LIG d   1      -1.898  78.269 116.628  0.00  0.00     0.109 C 
ATOM     16  O   LIG d   1      -2.112  76.513 118.262  0.00  0.00    -0.276 OA
ATOM     17  H   LIG d   1      -4.128  77.293 115.958  0.00  0.00     0.149 HD
ENDBRANCH   6  13
BRANCH   5  18
ATOM     18  N   LIG d   1      -3.088  73.811 116.722  0.00  0.00     0.381 N 
ATOM     19  H   LIG d   1      -2.874  73.778 117.699  0.00  0.00    -0.090 HD
ATOM     20  H   LIG d   1      -2.426  74.420 116.274  0.00  0.00    -0.090 HD
ATOM     21  H   LIG d   1      -3.029  72.897 116.330  0.00  0.00    -0.090 HD
ENDBRANCH   5  18
BRANCH   3  22
ATOM     22  C   LIG d   1      -7.775  72.838 116.875  0.00  0.00     0.382 C 
ATOM     23  O   LIG d   1      -8.926  73.071 117.319  0.00  0.00    -0.241 OA
ATOM     24  O   LIG d   1      -7.539  71.746 116.324  0.00  0.00    -0.241 OA
ENDBRANCH   3  22
TORSDOF 7
ENDMDL
MODEL 5
REMARK VINA RESULT:      -4.7     15.056     17.592
REMARK  7 active torsions:
REMARK  status: ('A' for Active; 'I' for Inactive)
REMARK    1  A    between atoms: C_2  and  C_3 
REMARK    2  A    between atoms: C_3  and  O_6 
REMARK    3  A    between atoms: C_3  and  C_4 
REMARK    4  A    between atoms: C_7  and  O_6 
REMARK    5  A    between atoms: C_9  and  C_10 
REMARK    6  A    between atoms: N_15  and  C_14 
REMARK    7  A    between atoms: N_20  and  C_19 
REMARK       I    between atoms: C_22  and  N_20 
ROOT
ATOM      1  C   LIG d   1      -4.234  74.698 117.120  0.00  0.00     0.161 C 
ATOM      2  C   LIG d   1      -5.117  73.640 116.846  0.00  0.00     0.016 C 
ATOM      3  C   LIG d   1      -6.519  73.799 116.765  0.00  0.00     0.038 C 
ATOM      4  C   LIG d   1      -7.126  75.063 116.804  0.00  0.00     0.028 C 
ATOM      5  C   LIG d   1      -6.321  76.097 117.583  0.00  0.00    -0.047 C 
ATOM      6  C   LIG d   1      -4.868  76.103 117.056  0.00  0.00     0.091 C 
ENDROOT
BRANCH   1   7
ATOM      7  O   LIG d   1      -3.093  74.622 116.243  0.00  0.00    -0.368 OA
BRANCH   7   8
ATOM      8  C   LIG d   1      -1.804  74.886 116.849  0.00  0.00     0.119 C 
BRANCH   8   9
ATOM      9  C   LIG d   1      -0.949  75.637 115.810  0.00  0.00     0.028 C 
ATOM     10  C   LIG d   1      -0.013  76.671 116.458  0.00  0.00     0.006 C 
ENDBRANCH   8   9
BRANCH   8  11
ATOM     11  C   LIG d   1      -1.046  73.586 117.135  0.00  0.00     0.028 C 
ATOM     12  C   LIG d   1      -0.665  73.431 118.616  0.00  0.00     0.006 C 
ENDBRANCH   8  11
ENDBRANCH   7   8
ENDBRANCH   1   7
BRANCH   6  13
ATOM     13  N   LIG d   1      -3.991  77.027 117.821  0.00  0.00    -0.311 N 
ATOM     14  C   LIG d   1      -3.408  78.097 117.283  0.00  0.00     0.210 C 
ATOM     15  C   LIG d   1      -2.528  78.905 118.243  0.00  0.00     0.109 C 
ATOM     16  O   LIG d   1      -3.561  78.473 116.111  0.00  0.00    -0.276 OA
ATOM     17  H   LIG d   1      -3.837  76.815 118.787  0.00  0.00     0.149 HD
ENDBRANCH   6  13
BRANCH   5  18
ATOM     18  N   LIG d   1      -6.997  77.399 117.427  0.00  0.00     0.381 N 
ATOM     19  H   LIG d   1      -7.169  77.801 118.327  0.00  0.00    -0.090 HD
ATOM     20  H   LIG d   1      -7.882  77.253 116.972  0.00  0.00    -0.090 HD
ATOM     21  H   LIG d   1      -6.433  78.013 116.883  0.00  0.00    -0.090 HD
ENDBRANCH   5  18
BRANCH   3  22
ATOM     22  C   LIG d   1      -7.334  72.679 116.683  0.00  0.00     0.382 C 
ATOM     23  O   LIG d   1      -6.946  71.667 116.051  0.00  0.00    -0.241 OA
ATOM     24  O   LIG d   1      -8.469  72.686 117.195  0.00  0.00    -0.241 OA
ENDBRANCH   3  22
TORSDOF 7
ENDMDL
MODEL 6
REMARK VINA RESULT:      -4.6      2.492      4.475
REMARK  7 active torsions:
REMARK  status: ('A' for Active; 'I' for Inactive)
REMARK    1  A    between atoms: C_2  and  C_3 
REMARK    2  A    between atoms: C_3  and  O_6 
REMARK    3  A    between atoms: C_3  and  C_4 
REMARK    4  A    between atoms: C_7  and  O_6 
REMARK    5  A    between atoms: C_9  and  C_10 
REMARK    6  A    between atoms: N_15  and  C_14 
REMARK    7  A    between atoms: N_20  and  C_19 
REMARK       I    between atoms: C_22  and  N_20 
ROOT
ATOM      1  C   LIG d   1      -5.350  91.958 119.296  0.00  0.00     0.161 C 
ATOM      2  C   LIG d   1      -4.497  91.054 118.640  0.00  0.00     0.016 C 
ATOM      3  C   LIG d   1      -4.680  90.645 117.299  0.00  0.00     0.038 C 
ATOM      4  C   LIG d   1      -5.647  91.233 116.470  0.00  0.00     0.028 C 
ATOM      5  C   LIG d   1      -6.848  91.780 117.234  0.00  0.00    -0.047 C 
ATOM      6  C   LIG d   1      -6.344  92.694 118.373  0.00  0.00     0.091 C 
ENDROOT
BRANCH   1   7
ATOM      7  O   LIG d   1      -4.569  92.907 120.049  0.00  0.00    -0.368 OA
BRANCH   7   8
ATOM      8  C   LIG d   1      -4.269  94.158 119.383  0.00  0.00     0.119 C 
BRANCH   8   9
ATOM      9  C   LIG d   1      -2.737  94.261 119.259  0.00  0.00     0.028 C 
ATOM     10  C   LIG d   1      -2.199  93.545 118.008  0.00  0.00     0.006 C 
ENDBRANCH   8   9
BRANCH   8  11
ATOM     11  C   LIG d   1      -4.689  95.358 120.236  0.00  0.00     0.028 C 
ATOM     12  C   LIG d   1      -4.366  96.705 119.570  0.00  0.00     0.006 C 
ENDBRANCH   8  11
ENDBRANCH   7   8
ENDBRANCH   1   7
BRANCH   6  13
ATOM     13  N   LIG d   1      -7.452  93.205 119.223  0.00  0.00    -0.311 N 
ATOM     14  C   LIG d   1      -8.006  94.405 119.061  0.00  0.00     0.210 C 
ATOM     15  C   LIG d   1      -9.120  94.742 120.057  0.00  0.00     0.109 C 
ATOM     16  O   LIG d   1      -7.703  95.209 118.167  0.00  0.00    -0.276 OA
ATOM     17  H   LIG d   1      -7.780  92.604 119.953  0.00  0.00     0.149 HD
ENDBRANCH   6  13
BRANCH   5  18
ATOM     18  N   LIG d   1      -7.709  92.485 116.265  0.00  0.00     0.381 N 
ATOM     19  H   LIG d   1      -8.621  92.614 116.654  0.00  0.00    -0.090 HD
ATOM     20  H   LIG d   1      -7.796  91.921 115.437  0.00  0.00    -0.090 HD
ATOM     21  H   LIG d   1      -7.310  93.368 116.034  0.00  0.00    -0.090 HD
ENDBRANCH   5  18
BRANCH   3  22
ATOM     22  C   LIG d   1      -3.915  89.608 116.786  0.00  0.00     0.382 C 
ATOM     23  O   LIG d   1      -2.791  89.354 117.282  0.00  0.00    -0.241 OA
ATOM     24  O   LIG d   1      -4.316  88.952 115.806  0.00  0.00    -0.241 OA
ENDBRANCH   3  22
TORSDOF 7
ENDMDL
MODEL 7
REMARK VINA RESULT:      -4.5      2.135      4.820
REMARK  7 active torsions:
REMARK  status: ('A' for Active; 'I' for Inactive)
REMARK    1  A    between atoms: C_2  and  C_3 
REMARK    2  A    between atoms: C_3  and  O_6 
REMARK    3  A    between atoms: C_3  and  C_4 
REMARK    4  A    between atoms: C_7  and  O_6 
REMARK    5  A    between atoms: C_9  and  C_10 
REMARK    6  A    between atoms: N_15  and  C_14 
REMARK    7  A    between atoms: N_20  and  C_19 
REMARK       I    between atoms: C_22  and  N_20 
ROOT
ATOM      1  C   LIG d   1      -5.675  93.154 118.850  0.00  0.00     0.161 C 
ATOM      2  C   LIG d   1      -6.970  93.693 118.763  0.00  0.00     0.016 C 
ATOM      3  C   LIG d   1      -7.264  95.054 119.009  0.00  0.00     0.038 C 
ATOM      4  C   LIG d   1      -6.255  96.006 119.214  0.00  0.00     0.028 C 
ATOM      5  C   LIG d   1      -4.980  95.418 119.810  0.00  0.00    -0.047 C 
ATOM      6  C   LIG d   1      -4.546  94.200 118.964  0.00  0.00     0.091 C 
ENDROOT
BRANCH   1   7
ATOM      7  O   LIG d   1      -5.435  92.276 117.733  0.00  0.00    -0.368 OA
BRANCH   7   8
ATOM      8  C   LIG d   1      -5.639  90.863 117.977  0.00  0.00     0.119 C 
BRANCH   8   9
ATOM      9  C   LIG d   1      -4.262  90.244 118.290  0.00  0.00     0.028 C 
ATOM     10  C   LIG d   1      -3.298  90.325 117.094  0.00  0.00     0.006 C 
ENDBRANCH   8   9
BRANCH   8  11
ATOM     11  C   LIG d   1      -6.130  90.144 116.717  0.00  0.00     0.028 C 
ATOM     12  C   LIG d   1      -7.618  89.767 116.789  0.00  0.00     0.006 C 
ENDBRANCH   8  11
ENDBRANCH   7   8
ENDBRANCH   1   7
BRANCH   6  13
ATOM     13  N   LIG d   1      -3.354  93.514 119.527  0.00  0.00    -0.311 N 
ATOM     14  C   LIG d   1      -2.206  93.376 118.864  0.00  0.00     0.210 C 
ATOM     15  C   LIG d   1      -1.110  92.619 119.621  0.00  0.00     0.109 C 
ATOM     16  O   LIG d   1      -1.982  93.837 117.735  0.00  0.00    -0.276 OA
ATOM     17  H   LIG d   1      -3.438  93.137 120.450  0.00  0.00     0.149 HD
ENDBRANCH   6  13
BRANCH   5  18
ATOM     18  N   LIG d   1      -3.967  96.490 119.842  0.00  0.00     0.381 N 
ATOM     19  H   LIG d   1      -4.361  97.338 119.486  0.00  0.00    -0.090 HD
ATOM     20  H   LIG d   1      -3.197  96.228 119.252  0.00  0.00    -0.090 HD
ATOM     21  H   LIG d   1      -3.648  96.630 120.775  0.00  0.00    -0.090 HD
ENDBRANCH   5  18
BRANCH   3  22
ATOM     22  C   LIG d   1      -8.586  95.467 119.092  0.00  0.00     0.382 C 
ATOM     23  O   LIG d   1      -9.479  94.835 118.479  0.00  0.00    -0.241 OA
ATOM     24  O   LIG d   1      -8.889  96.489 119.736  0.00  0.00    -0.241 OA
ENDBRANCH   3  22
TORSDOF 7
ENDMDL
MODEL 8
REMARK VINA RESULT:      -4.3      3.161      5.136
REMARK  7 active torsions:
REMARK  status: ('A' for Active; 'I' for Inactive)
REMARK    1  A    between atoms: C_2  and  C_3 
REMARK    2  A    between atoms: C_3  and  O_6 
REMARK    3  A    between atoms: C_3  and  C_4 
REMARK    4  A    between atoms: C_7  and  O_6 
REMARK    5  A    between atoms: C_9  and  C_10 
REMARK    6  A    between atoms: N_15  and  C_14 
REMARK    7  A    between atoms: N_20  and  C_19 
REMARK       I    between atoms: C_22  and  N_20 
ROOT
ATOM      1  C   LIG d   1      -2.843  90.560 119.413  0.00  0.00     0.161 C 
ATOM      2  C   LIG d   1      -4.024  90.153 118.772  0.00  0.00     0.016 C 
ATOM      3  C   LIG d   1      -4.675  90.922 117.779  0.00  0.00     0.038 C 
ATOM      4  C   LIG d   1      -4.101  92.087 117.249  0.00  0.00     0.028 C 
ATOM      5  C   LIG d   1      -3.165  92.797 118.221  0.00  0.00    -0.047 C 
ATOM      6  C   LIG d   1      -2.143  91.776 118.770  0.00  0.00     0.091 C 
ENDROOT
BRANCH   1   7
ATOM      7  O   LIG d   1      -1.930  89.449 119.507  0.00  0.00    -0.368 OA
BRANCH   7   8
ATOM      8  C   LIG d   1      -2.353  88.221 118.865  0.00  0.00     0.119 C 
BRANCH   8   9
ATOM      9  C   LIG d   1      -2.376  87.119 119.942  0.00  0.00     0.028 C 
ATOM     10  C   LIG d   1      -1.368  85.994 119.653  0.00  0.00     0.006 C 
ENDBRANCH   8   9
BRANCH   8  11
ATOM     11  C   LIG d   1      -1.327  87.753 117.828  0.00  0.00     0.028 C 
ATOM     12  C   LIG d   1      -0.268  88.821 117.513  0.00  0.00     0.006 C 
ENDBRANCH   8  11
ENDBRANCH   7   8
ENDBRANCH   1   7
BRANCH   6  13
ATOM     13  N   LIG d   1      -1.241  92.369 119.792  0.00  0.00    -0.311 N 
ATOM     14  C   LIG d   1       0.082  92.426 119.657  0.00  0.00     0.210 C 
ATOM     15  C   LIG d   1       0.826  93.060 120.837  0.00  0.00     0.109 C 
ATOM     16  O   LIG d   1       0.709  92.041 118.658  0.00  0.00    -0.276 OA
ATOM     17  H   LIG d   1      -1.669  92.733 120.621  0.00  0.00     0.149 HD
ENDBRANCH   6  13
BRANCH   5  18
ATOM     18  N   LIG d   1      -2.533  93.915 117.495  0.00  0.00     0.381 N 
ATOM     19  H   LIG d   1      -2.323  93.634 116.558  0.00  0.00    -0.090 HD
ATOM     20  H   LIG d   1      -1.671  94.154 117.953  0.00  0.00    -0.090 HD
ATOM     21  H   LIG d   1      -3.142  94.703 117.485  0.00  0.00    -0.090 HD
ENDBRANCH   5  18
BRANCH   3  22
ATOM     22  C   LIG d   1      -5.933  90.546 117.335  0.00  0.00     0.382 C 
ATOM     23  O   LIG d   1      -6.942  91.213 117.669  0.00  0.00    -0.241 OA
ATOM     24  O   LIG d   1      -6.078  89.523 116.639  0.00  0.00    -0.241 OA
ENDBRANCH   3  22
TORSDOF 7
ENDMDL
MODEL 9
REMARK VINA RESULT:      -4.2     12.304     14.956
REMARK  7 active torsions:
REMARK  status: ('A' for Active; 'I' for Inactive)
REMARK    1  A    between atoms: C_2  and  C_3 
REMARK    2  A    between atoms: C_3  and  O_6 
REMARK    3  A    between atoms: C_3  and  C_4 
REMARK    4  A    between atoms: C_7  and  O_6 
REMARK    5  A    between atoms: C_9  and  C_10 
REMARK    6  A    between atoms: N_15  and  C_14 
REMARK    7  A    between atoms: N_20  and  C_19 
REMARK       I    between atoms: C_22  and  N_20 
ROOT
ATOM      1  C   LIG d   1      -5.850  77.900 117.700  0.00  0.00     0.161 C 
ATOM      2  C   LIG d   1      -7.132  78.461 117.578  0.00  0.00     0.016 C 
ATOM      3  C   LIG d   1      -7.516  79.668 118.207  0.00  0.00     0.038 C 
ATOM      4  C   LIG d   1      -6.592  80.479 118.882  0.00  0.00     0.028 C 
ATOM      5  C   LIG d   1      -5.411  79.704 119.456  0.00  0.00    -0.047 C 
ATOM      6  C   LIG d   1      -4.796  78.828 118.340  0.00  0.00     0.091 C 
ENDROOT
BRANCH   1   7
ATOM      7  O   LIG d   1      -5.394  77.439 116.412  0.00  0.00    -0.368 OA
BRANCH   7   8
ATOM      8  C   LIG d   1      -5.442  76.008 116.195  0.00  0.00     0.119 C 
BRANCH   8   9
ATOM      9  C   LIG d   1      -5.791  75.346 117.542  0.00  0.00     0.028 C 
ATOM     10  C   LIG d   1      -6.952  74.345 117.421  0.00  0.00     0.006 C 
ENDBRANCH   8   9
BRANCH   8  11
ATOM     11  C   LIG d   1      -4.064  75.456 115.817  0.00  0.00     0.028 C 
ATOM     12  C   LIG d   1      -3.492  74.502 116.878  0.00  0.00     0.006 C 
ENDBRANCH   8  11
ENDBRANCH   7   8
ENDBRANCH   1   7
BRANCH   6  13
ATOM     13  N   LIG d   1      -3.687  77.973 118.837  0.00  0.00    -0.311 N 
ATOM     14  C   LIG d   1      -2.508  77.873 118.226  0.00  0.00     0.210 C 
ATOM     15  C   LIG d   1      -1.511  76.921 118.894  0.00  0.00     0.109 C 
ATOM     16  O   LIG d   1      -2.181  78.507 117.211  0.00  0.00    -0.276 OA
ATOM     17  H   LIG d   1      -3.855  77.448 119.673  0.00  0.00     0.149 HD
ENDBRANCH   6  13
BRANCH   5  18
ATOM     18  N   LIG d   1      -4.460  80.686 120.010  0.00  0.00     0.381 N 
ATOM     19  H   LIG d   1      -4.857  81.604 119.967  0.00  0.00    -0.090 HD
ATOM     20  H   LIG d   1      -3.623  80.678 119.453  0.00  0.00    -0.090 HD
ATOM     21  H   LIG d   1      -4.242  80.455 120.954  0.00  0.00    -0.090 HD
ENDBRANCH   5  18
BRANCH   3  22
ATOM     22  C   LIG d   1      -8.848  80.053 118.198  0.00  0.00     0.382 C 
ATOM     23  O   LIG d   1      -9.750  79.198 118.369  0.00  0.00    -0.241 OA
ATOM     24  O   LIG d   1      -9.161  81.239 117.978  0.00  0.00    -0.241 OA
ENDBRANCH   3  22
TORSDOF 7
ENDMDL
