MODEL 1
REMARK VINA RESULT:      -5.3      0.000      0.000
REMARK  7 active torsions:
REMARK  status: ('A' for Active; 'I' for Inactive)
REMARK    1  A    between atoms: C_2  and  C_3 
REMARK    2  A    between atoms: C_3  and  O_6 
REMARK    3  A    between atoms: C_3  and  C_4 
REMARK    4  A    between atoms: C_7  and  O_6 
REMARK    5  A    between atoms: C_9  and  C_10 
REMARK    6  A    between atoms: N_15  and  C_14 
REMARK    7  A    between atoms: N_20  and  C_19 
REMARK       I    between atoms: C_22  and  N_20 
ROOT
ATOM      1  C   LIG d   1      -4.289  91.717 118.585  0.00  0.00     0.161 C 
ATOM      2  C   LIG d   1      -5.102  91.000 117.692  0.00  0.00     0.016 C 
ATOM      3  C   LIG d   1      -6.340  91.481 117.209  0.00  0.00     0.038 C 
ATOM      4  C   LIG d   1      -6.781  92.787 117.470  0.00  0.00     0.028 C 
ATOM      5  C   LIG d   1      -6.236  93.360 118.774  0.00  0.00    -0.047 C 
ATOM      6  C   LIG d   1      -4.700  93.190 118.793  0.00  0.00     0.091 C 
ENDROOT
BRANCH   1   7
ATOM      7  O   LIG d   1      -2.912  91.637 118.165  0.00  0.00    -0.368 OA
BRANCH   7   8
ATOM      8  C   LIG d   1      -2.051  90.789 118.964  0.00  0.00     0.119 C 
BRANCH   8   9
ATOM      9  C   LIG d   1      -0.897  91.666 119.489  0.00  0.00     0.028 C 
ATOM     10  C   LIG d   1      -0.170  92.417 118.360  0.00  0.00     0.006 C 
ENDBRANCH   8   9
BRANCH   8  11
ATOM     11  C   LIG d   1      -1.382  89.709 118.109  0.00  0.00     0.028 C 
ATOM     12  C   LIG d   1      -2.222  88.426 118.007  0.00  0.00     0.006 C 
ENDBRANCH   8  11
ENDBRANCH   7   8
ENDBRANCH   1   7
BRANCH   6  13
ATOM     13  N   LIG d   1      -4.095  93.649 120.071  0.00  0.00    -0.311 N 
ATOM     14  C   LIG d   1      -3.101  94.533 120.135  0.00  0.00     0.210 C 
ATOM     15  C   LIG d   1      -2.611  94.854 121.551  0.00  0.00     0.109 C 
ATOM     16  O   LIG d   1      -2.601  95.107 119.156  0.00  0.00    -0.276 OA
ATOM     17  H   LIG d   1      -4.462  93.258 120.916  0.00  0.00     0.149 HD
ENDBRANCH   6  13
BRANCH   5  18
ATOM     18  N   LIG d   1      -6.662  94.770 118.852  0.00  0.00     0.381 N 
ATOM     19  H   LIG d   1      -6.551  95.208 117.960  0.00  0.00    -0.090 HD
ATOM     20  H   LIG d   1      -6.078  95.250 119.514  0.00  0.00    -0.090 HD
ATOM     21  H   LIG d   1      -7.615  94.823 119.140  0.00  0.00    -0.090 HD
ENDBRANCH   5  18
BRANCH   3  22
ATOM     22  C   LIG d   1      -7.171  90.637 116.487  0.00  0.00     0.382 C 
ATOM     23  O   LIG d   1      -8.302  91.036 116.118  0.00  0.00    -0.241 OA
ATOM     24  O   LIG d   1      -6.822  89.467 116.240  0.00  0.00    -0.241 OA
ENDBRANCH   3  22
TORSDOF 7
ENDMDL
MODEL 2
REMARK VINA RESULT:      -5.2      0.929      1.853
REMARK  7 active torsions:
REMARK  status: ('A' for Active; 'I' for Inactive)
REMARK    1  A    between atoms: C_2  and  C_3 
REMARK    2  A    between atoms: C_3  and  O_6 
REMARK    3  A    between atoms: C_3  and  C_4 
REMARK    4  A    between atoms: C_7  and  O_6 
REMARK    5  A    between atoms: C_9  and  C_10 
REMARK    6  A    between atoms: N_15  and  C_14 
REMARK    7  A    between atoms: N_20  and  C_19 
REMARK       I    between atoms: C_22  and  N_20 
ROOT
ATOM      1  C   LIG d   1      -4.449  91.478 118.578  0.00  0.00     0.161 C 
ATOM      2  C   LIG d   1      -5.324  90.860 117.669  0.00  0.00     0.016 C 
ATOM      3  C   LIG d   1      -6.504  91.471 117.187  0.00  0.00     0.038 C 
ATOM      4  C   LIG d   1      -6.812  92.811 117.466  0.00  0.00     0.028 C 
ATOM      5  C   LIG d   1      -6.221  93.308 118.781  0.00  0.00    -0.047 C 
ATOM      6  C   LIG d   1      -4.710  92.981 118.807  0.00  0.00     0.091 C 
ENDROOT
BRANCH   1   7
ATOM      7  O   LIG d   1      -3.085  91.264 118.165  0.00  0.00    -0.368 OA
BRANCH   7   8
ATOM      8  C   LIG d   1      -2.334  90.286 118.926  0.00  0.00     0.119 C 
BRANCH   8   9
ATOM      9  C   LIG d   1      -2.163  89.039 118.035  0.00  0.00     0.028 C 
ATOM     10  C   LIG d   1      -1.775  87.790 118.844  0.00  0.00     0.006 C 
ENDBRANCH   8   9
BRANCH   8  11
ATOM     11  C   LIG d   1      -3.123  89.806 120.147  0.00  0.00     0.028 C 
ATOM     12  C   LIG d   1      -2.567  90.357 121.470  0.00  0.00     0.006 C 
ENDBRANCH   8  11
ENDBRANCH   7   8
ENDBRANCH   1   7
BRANCH   6  13
ATOM     13  N   LIG d   1      -4.071  93.358 120.095  0.00  0.00    -0.311 N 
ATOM     14  C   LIG d   1      -2.987  94.127 120.178  0.00  0.00     0.210 C 
ATOM     15  C   LIG d   1      -2.479  94.377 121.601  0.00  0.00     0.109 C 
ATOM     16  O   LIG d   1      -2.418  94.654 119.210  0.00  0.00    -0.276 OA
ATOM     17  H   LIG d   1      -4.487  93.000 120.932  0.00  0.00     0.149 HD
ENDBRANCH   6  13
BRANCH   5  18
ATOM     18  N   LIG d   1      -6.502  94.752 118.879  0.00  0.00     0.381 N 
ATOM     19  H   LIG d   1      -6.315  95.194 118.001  0.00  0.00    -0.090 HD
ATOM     20  H   LIG d   1      -5.895  95.155 119.571  0.00  0.00    -0.090 HD
ATOM     21  H   LIG d   1      -7.454  94.898 119.136  0.00  0.00    -0.090 HD
ENDBRANCH   5  18
BRANCH   3  22
ATOM     22  C   LIG d   1      -7.411  90.727 116.448  0.00  0.00     0.382 C 
ATOM     23  O   LIG d   1      -7.296  89.479 116.386  0.00  0.00    -0.241 OA
ATOM     24  O   LIG d   1      -8.317  91.292 115.805  0.00  0.00    -0.241 OA
ENDBRANCH   3  22
TORSDOF 7
ENDMDL
MODEL 3
REMARK VINA RESULT:      -5.1      2.239      4.754
REMARK  7 active torsions:
REMARK  status: ('A' for Active; 'I' for Inactive)
REMARK    1  A    between atoms: C_2  and  C_3 
REMARK    2  A    between atoms: C_3  and  O_6 
REMARK    3  A    between atoms: C_3  and  C_4 
REMARK    4  A    between atoms: C_7  and  O_6 
REMARK    5  A    between atoms: C_9  and  C_10 
REMARK    6  A    between atoms: N_15  and  C_14 
REMARK    7  A    between atoms: N_20  and  C_19 
REMARK       I    between atoms: C_22  and  N_20 
ROOT
ATOM      1  C   LIG d   1      -6.182  93.559 118.513  0.00  0.00     0.161 C 
ATOM      2  C   LIG d   1      -6.992  92.661 117.798  0.00  0.00     0.016 C 
ATOM      3  C   LIG d   1      -6.515  91.445 117.257  0.00  0.00     0.038 C 
ATOM      4  C   LIG d   1      -5.223  90.970 117.525  0.00  0.00     0.028 C 
ATOM      5  C   LIG d   1      -4.218  92.080 117.818  0.00  0.00    -0.047 C 
ATOM      6  C   LIG d   1      -4.798  93.006 118.911  0.00  0.00     0.091 C 
ENDROOT
BRANCH   1   7
ATOM      7  O   LIG d   1      -6.887  94.032 119.678  0.00  0.00    -0.368 OA
BRANCH   7   8
ATOM      8  C   LIG d   1      -8.061  94.844 119.427  0.00  0.00     0.119 C 
BRANCH   8   9
ATOM      9  C   LIG d   1      -7.590  96.134 118.728  0.00  0.00     0.028 C 
ATOM     10  C   LIG d   1      -6.854  97.085 119.687  0.00  0.00     0.006 C 
ENDBRANCH   8   9
BRANCH   8  11
ATOM     11  C   LIG d   1      -8.710  95.304 120.735  0.00  0.00     0.028 C 
ATOM     12  C   LIG d   1      -8.307  94.436 121.938  0.00  0.00     0.006 C 
ENDBRANCH   8  11
ENDBRANCH   7   8
ENDBRANCH   1   7
BRANCH   6  13
ATOM     13  N   LIG d   1      -3.915  94.167 119.197  0.00  0.00    -0.311 N 
ATOM     14  C   LIG d   1      -2.999  94.170 120.164  0.00  0.00     0.210 C 
ATOM     15  C   LIG d   1      -2.210  95.476 120.302  0.00  0.00     0.109 C 
ATOM     16  O   LIG d   1      -2.743  93.205 120.899  0.00  0.00    -0.276 OA
ATOM     17  H   LIG d   1      -4.034  94.982 118.628  0.00  0.00     0.149 HD
ENDBRANCH   6  13
BRANCH   5  18
ATOM     18  N   LIG d   1      -2.950  91.440 118.215  0.00  0.00     0.381 N 
ATOM     19  H   LIG d   1      -3.099  90.864 119.020  0.00  0.00    -0.090 HD
ATOM     20  H   LIG d   1      -2.287  92.155 118.458  0.00  0.00    -0.090 HD
ATOM     21  H   LIG d   1      -2.596  90.889 117.464  0.00  0.00    -0.090 HD
ENDBRANCH   5  18
BRANCH   3  22
ATOM     22  C   LIG d   1      -7.323  90.709 116.403  0.00  0.00     0.382 C 
ATOM     23  O   LIG d   1      -8.275  91.266 115.805  0.00  0.00    -0.241 OA
ATOM     24  O   LIG d   1      -7.139  89.486 116.257  0.00  0.00    -0.241 OA
ENDBRANCH   3  22
TORSDOF 7
ENDMDL
MODEL 4
REMARK VINA RESULT:      -4.9     10.646     13.352
REMARK  7 active torsions:
REMARK  status: ('A' for Active; 'I' for Inactive)
REMARK    1  A    between atoms: C_2  and  C_3 
REMARK    2  A    between atoms: C_3  and  O_6 
REMARK    3  A    between atoms: C_3  and  C_4 
REMARK    4  A    between atoms: C_7  and  O_6 
REMARK    5  A    between atoms: C_9  and  C_10 
REMARK    6  A    between atoms: N_15  and  C_14 
REMARK    7  A    between atoms: N_20  and  C_19 
REMARK       I    between atoms: C_22  and  N_20 
ROOT
ATOM      1  C   LIG d   1      -6.800  80.699 118.694  0.00  0.00     0.161 C 
ATOM      2  C   LIG d   1      -5.587  80.606 117.990  0.00  0.00     0.016 C 
ATOM      3  C   LIG d   1      -5.139  79.419 117.366  0.00  0.00     0.038 C 
ATOM      4  C   LIG d   1      -5.949  78.278 117.275  0.00  0.00     0.028 C 
ATOM      5  C   LIG d   1      -6.967  78.166 118.405  0.00  0.00    -0.047 C 
ATOM      6  C   LIG d   1      -7.748  79.496 118.510  0.00  0.00     0.091 C 
ENDROOT
BRANCH   1   7
ATOM      7  O   LIG d   1      -7.473  81.925 118.348  0.00  0.00    -0.368 OA
BRANCH   7   8
ATOM      8  C   LIG d   1      -7.491  82.953 119.369  0.00  0.00     0.119 C 
BRANCH   8   9
ATOM      9  C   LIG d   1      -6.677  82.429 120.567  0.00  0.00     0.028 C 
ATOM     10  C   LIG d   1      -5.826  83.529 121.224  0.00  0.00     0.006 C 
ENDBRANCH   8   9
BRANCH   8  11
ATOM     11  C   LIG d   1      -8.907  83.178 119.908  0.00  0.00     0.028 C 
ATOM     12  C   LIG d   1      -9.998  82.749 118.914  0.00  0.00     0.006 C 
ENDBRANCH   8  11
ENDBRANCH   7   8
ENDBRANCH   1   7
BRANCH   6  13
ATOM     13  N   LIG d   1      -8.707  79.501 119.646  0.00  0.00    -0.311 N 
ATOM     14  C   LIG d   1      -9.945  79.016 119.563  0.00  0.00     0.210 C 
ATOM     15  C   LIG d   1     -10.775  79.139 120.844  0.00  0.00     0.109 C 
ATOM     16  O   LIG d   1     -10.423  78.468 118.559  0.00  0.00    -0.276 OA
ATOM     17  H   LIG d   1      -8.390  79.900 120.508  0.00  0.00     0.149 HD
ENDBRANCH   6  13
BRANCH   5  18
ATOM     18  N   LIG d   1      -7.833  77.008 118.111  0.00  0.00     0.381 N 
ATOM     19  H   LIG d   1      -8.564  76.951 118.792  0.00  0.00    -0.090 HD
ATOM     20  H   LIG d   1      -7.284  76.169 118.166  0.00  0.00    -0.090 HD
ATOM     21  H   LIG d   1      -8.225  77.099 117.199  0.00  0.00    -0.090 HD
ENDBRANCH   5  18
BRANCH   3  22
ATOM     22  C   LIG d   1      -3.850  79.354 116.860  0.00  0.00     0.382 C 
ATOM     23  O   LIG d   1      -2.960  78.730 117.487  0.00  0.00    -0.241 OA
ATOM     24  O   LIG d   1      -3.554  79.949 115.806  0.00  0.00    -0.241 OA
ENDBRANCH   3  22
TORSDOF 7
ENDMDL
MODEL 5
REMARK VINA RESULT:      -4.9      1.731      2.713
REMARK  7 active torsions:
REMARK  status: ('A' for Active; 'I' for Inactive)
REMARK    1  A    between atoms: C_2  and  C_3 
REMARK    2  A    between atoms: C_3  and  O_6 
REMARK    3  A    between atoms: C_3  and  C_4 
REMARK    4  A    between atoms: C_7  and  O_6 
REMARK    5  A    between atoms: C_9  and  C_10 
REMARK    6  A    between atoms: N_15  and  C_14 
REMARK    7  A    between atoms: N_20  and  C_19 
REMARK       I    between atoms: C_22  and  N_20 
ROOT
ATOM      1  C   LIG d   1      -3.267  90.243 118.359  0.00  0.00     0.161 C 
ATOM      2  C   LIG d   1      -4.480  90.063 117.674  0.00  0.00     0.016 C 
ATOM      3  C   LIG d   1      -5.400  91.109 117.433  0.00  0.00     0.038 C 
ATOM      4  C   LIG d   1      -5.098  92.446 117.731  0.00  0.00     0.028 C 
ATOM      5  C   LIG d   1      -4.104  92.601 118.877  0.00  0.00    -0.047 C 
ATOM      6  C   LIG d   1      -2.869  91.716 118.593  0.00  0.00     0.091 C 
ENDROOT
BRANCH   1   7
ATOM      7  O   LIG d   1      -2.210  89.542 117.674  0.00  0.00    -0.368 OA
BRANCH   7   8
ATOM      8  C   LIG d   1      -1.966  88.180 118.103  0.00  0.00     0.119 C 
BRANCH   8   9
ATOM      9  C   LIG d   1      -2.283  88.106 119.609  0.00  0.00     0.028 C 
ATOM     10  C   LIG d   1      -1.805  86.790 120.246  0.00  0.00     0.006 C 
ENDBRANCH   8   9
BRANCH   8  11
ATOM     11  C   LIG d   1      -0.484  87.814 117.982  0.00  0.00     0.028 C 
ATOM     12  C   LIG d   1       0.449  88.985 118.331  0.00  0.00     0.006 C 
ENDBRANCH   8  11
ENDBRANCH   7   8
ENDBRANCH   1   7
BRANCH   6  13
ATOM     13  N   LIG d   1      -1.884  91.744 119.705  0.00  0.00    -0.311 N 
ATOM     14  C   LIG d   1      -0.801  92.520 119.706  0.00  0.00     0.210 C 
ATOM     15  C   LIG d   1       0.094  92.380 120.942  0.00  0.00     0.109 C 
ATOM     16  O   LIG d   1      -0.514  93.334 118.816  0.00  0.00    -0.276 OA
ATOM     17  H   LIG d   1      -2.056  91.137 120.483  0.00  0.00     0.149 HD
ENDBRANCH   6  13
BRANCH   5  18
ATOM     18  N   LIG d   1      -3.774  94.035 118.989  0.00  0.00     0.381 N 
ATOM     19  H   LIG d   1      -3.316  94.343 118.154  0.00  0.00    -0.090 HD
ATOM     20  H   LIG d   1      -3.143  94.164 119.760  0.00  0.00    -0.090 HD
ATOM     21  H   LIG d   1      -4.604  94.565 119.137  0.00  0.00    -0.090 HD
ENDBRANCH   5  18
BRANCH   3  22
ATOM     22  C   LIG d   1      -6.656  90.815 116.924  0.00  0.00     0.382 C 
ATOM     23  O   LIG d   1      -7.570  91.674 116.976  0.00  0.00    -0.241 OA
ATOM     24  O   LIG d   1      -6.900  89.688 116.454  0.00  0.00    -0.241 OA
ENDBRANCH   3  22
TORSDOF 7
ENDMDL
MODEL 6
REMARK VINA RESULT:      -4.8      1.755      4.678
REMARK  7 active torsions:
REMARK  status: ('A' for Active; 'I' for Inactive)
REMARK    1  A    between atoms: C_2  and  C_3 
REMARK    2  A    between atoms: C_3  and  O_6 
REMARK    3  A    between atoms: C_3  and  C_4 
REMARK    4  A    between atoms: C_7  and  O_6 
REMARK    5  A    between atoms: C_9  and  C_10 
REMARK    6  A    between atoms: N_15  and  C_14 
REMARK    7  A    between atoms: N_20  and  C_19 
REMARK       I    between atoms: C_22  and  N_20 
ROOT
ATOM      1  C   LIG d   1      -4.305  91.353 118.112  0.00  0.00     0.161 C 
ATOM      2  C   LIG d   1      -3.277  92.255 118.433  0.00  0.00     0.016 C 
ATOM      3  C   LIG d   1      -3.510  93.542 118.970  0.00  0.00     0.038 C 
ATOM      4  C   LIG d   1      -4.790  93.959 119.366  0.00  0.00     0.028 C 
ATOM      5  C   LIG d   1      -5.915  93.278 118.594  0.00  0.00    -0.047 C 
ATOM      6  C   LIG d   1      -5.700  91.748 118.640  0.00  0.00     0.091 C 
ENDROOT
BRANCH   1   7
ATOM      7  O   LIG d   1      -3.953  90.031 118.564  0.00  0.00    -0.368 OA
BRANCH   7   8
ATOM      8  C   LIG d   1      -2.537  89.763 118.713  0.00  0.00     0.119 C 
BRANCH   8   9
ATOM      9  C   LIG d   1      -2.208  88.522 117.861  0.00  0.00     0.028 C 
ATOM     10  C   LIG d   1      -1.412  87.466 118.646  0.00  0.00     0.006 C 
ENDBRANCH   8   9
BRANCH   8  11
ATOM     11  C   LIG d   1      -2.193  89.369 120.153  0.00  0.00     0.028 C 
ATOM     12  C   LIG d   1      -3.250  89.834 121.167  0.00  0.00     0.006 C 
ENDBRANCH   8  11
ENDBRANCH   7   8
ENDBRANCH   1   7
BRANCH   6  13
ATOM     13  N   LIG d   1      -6.710  91.009 117.838  0.00  0.00    -0.311 N 
ATOM     14  C   LIG d   1      -6.855  91.161 116.523  0.00  0.00     0.210 C 
ATOM     15  C   LIG d   1      -7.970  90.319 115.894  0.00  0.00     0.109 C 
ATOM     16  O   LIG d   1      -6.146  91.889 115.812  0.00  0.00    -0.276 OA
ATOM     17  H   LIG d   1      -7.307  90.374 118.330  0.00  0.00     0.149 HD
ENDBRANCH   6  13
BRANCH   5  18
ATOM     18  N   LIG d   1      -7.191  93.701 119.200  0.00  0.00     0.381 N 
ATOM     19  H   LIG d   1      -7.836  92.937 119.200  0.00  0.00    -0.090 HD
ATOM     20  H   LIG d   1      -7.582  94.445 118.649  0.00  0.00    -0.090 HD
ATOM     21  H   LIG d   1      -7.038  94.015 120.134  0.00  0.00    -0.090 HD
ENDBRANCH   5  18
BRANCH   3  22
ATOM     22  C   LIG d   1      -2.461  94.442 119.079  0.00  0.00     0.382 C 
ATOM     23  O   LIG d   1      -2.559  95.429 119.847  0.00  0.00    -0.241 OA
ATOM     24  O   LIG d   1      -1.436  94.304 118.385  0.00  0.00    -0.241 OA
ENDBRANCH   3  22
TORSDOF 7
ENDMDL
MODEL 7
REMARK VINA RESULT:      -4.7      2.354      4.190
REMARK  7 active torsions:
REMARK  status: ('A' for Active; 'I' for Inactive)
REMARK    1  A    between atoms: C_2  and  C_3 
REMARK    2  A    between atoms: C_3  and  O_6 
REMARK    3  A    between atoms: C_3  and  C_4 
REMARK    4  A    between atoms: C_7  and  O_6 
REMARK    5  A    between atoms: C_9  and  C_10 
REMARK    6  A    between atoms: N_15  and  C_14 
REMARK    7  A    between atoms: N_20  and  C_19 
REMARK       I    between atoms: C_22  and  N_20 
ROOT
ATOM      1  C   LIG d   1      -4.346  92.579 119.246  0.00  0.00     0.161 C 
ATOM      2  C   LIG d   1      -5.392  93.509 119.365  0.00  0.00     0.016 C 
ATOM      3  C   LIG d   1      -6.531  93.510 118.528  0.00  0.00     0.038 C 
ATOM      4  C   LIG d   1      -6.775  92.481 117.606  0.00  0.00     0.028 C 
ATOM      5  C   LIG d   1      -5.505  91.804 117.104  0.00  0.00    -0.047 C 
ATOM      6  C   LIG d   1      -4.647  91.382 118.319  0.00  0.00     0.091 C 
ENDROOT
BRANCH   1   7
ATOM      7  O   LIG d   1      -3.954  92.114 120.552  0.00  0.00    -0.368 OA
BRANCH   7   8
ATOM      8  C   LIG d   1      -2.600  92.429 120.961  0.00  0.00     0.119 C 
BRANCH   8   9
ATOM      9  C   LIG d   1      -2.690  93.283 122.241  0.00  0.00     0.028 C 
ATOM     10  C   LIG d   1      -2.903  94.776 121.937  0.00  0.00     0.006 C 
ENDBRANCH   8   9
BRANCH   8  11
ATOM     11  C   LIG d   1      -1.899  93.318 119.930  0.00  0.00     0.028 C 
ATOM     12  C   LIG d   1      -0.565  92.729 119.444  0.00  0.00     0.006 C 
ENDBRANCH   8  11
ENDBRANCH   7   8
ENDBRANCH   1   7
BRANCH   6  13
ATOM     13  N   LIG d   1      -3.347  90.787 117.916  0.00  0.00    -0.311 N 
ATOM     14  C   LIG d   1      -2.883  89.638 118.405  0.00  0.00     0.210 C 
ATOM     15  C   LIG d   1      -1.511  89.214 117.870  0.00  0.00     0.109 C 
ATOM     16  O   LIG d   1      -3.491  88.914 119.207  0.00  0.00    -0.276 OA
ATOM     17  H   LIG d   1      -2.802  91.293 117.245  0.00  0.00     0.149 HD
ENDBRANCH   6  13
BRANCH   5  18
ATOM     18  N   LIG d   1      -5.911  90.665 116.260  0.00  0.00     0.381 N 
ATOM     19  H   LIG d   1      -5.238  89.929 116.337  0.00  0.00    -0.090 HD
ATOM     20  H   LIG d   1      -5.941  90.965 115.301  0.00  0.00    -0.090 HD
ATOM     21  H   LIG d   1      -6.808  90.335 116.540  0.00  0.00    -0.090 HD
ENDBRANCH   5  18
BRANCH   3  22
ATOM     22  C   LIG d   1      -7.422  94.572 118.581  0.00  0.00     0.382 C 
ATOM     23  O   LIG d   1      -8.638  94.382 118.339  0.00  0.00    -0.241 OA
ATOM     24  O   LIG d   1      -7.017  95.724 118.825  0.00  0.00    -0.241 OA
ENDBRANCH   3  22
TORSDOF 7
ENDMDL
MODEL 8
REMARK VINA RESULT:      -4.7      2.454      4.378
REMARK  7 active torsions:
REMARK  status: ('A' for Active; 'I' for Inactive)
REMARK    1  A    between atoms: C_2  and  C_3 
REMARK    2  A    between atoms: C_3  and  O_6 
REMARK    3  A    between atoms: C_3  and  C_4 
REMARK    4  A    between atoms: C_7  and  O_6 
REMARK    5  A    between atoms: C_9  and  C_10 
REMARK    6  A    between atoms: N_15  and  C_14 
REMARK    7  A    between atoms: N_20  and  C_19 
REMARK       I    between atoms: C_22  and  N_20 
ROOT
ATOM      1  C   LIG d   1      -5.746  92.918 119.696  0.00  0.00     0.161 C 
ATOM      2  C   LIG d   1      -4.729  91.956 119.579  0.00  0.00     0.016 C 
ATOM      3  C   LIG d   1      -4.589  91.104 118.460  0.00  0.00     0.038 C 
ATOM      4  C   LIG d   1      -5.371  91.260 117.306  0.00  0.00     0.028 C 
ATOM      5  C   LIG d   1      -6.736  91.883 117.580  0.00  0.00    -0.047 C 
ATOM      6  C   LIG d   1      -6.541  93.179 118.400  0.00  0.00     0.091 C 
ENDROOT
BRANCH   1   7
ATOM      7  O   LIG d   1      -5.197  94.150 120.204  0.00  0.00    -0.368 OA
BRANCH   7   8
ATOM      8  C   LIG d   1      -3.773  94.150 120.474  0.00  0.00     0.119 C 
BRANCH   8   9
ATOM      9  C   LIG d   1      -3.573  94.686 121.904  0.00  0.00     0.028 C 
ATOM     10  C   LIG d   1      -2.591  95.869 121.956  0.00  0.00     0.006 C 
ENDBRANCH   8   9
BRANCH   8  11
ATOM     11  C   LIG d   1      -3.034  95.135 119.564  0.00  0.00     0.028 C 
ATOM     12  C   LIG d   1      -2.160  94.434 118.512  0.00  0.00     0.006 C 
ENDBRANCH   8  11
ENDBRANCH   7   8
ENDBRANCH   1   7
BRANCH   6  13
ATOM     13  N   LIG d   1      -7.832  93.807 118.784  0.00  0.00    -0.311 N 
ATOM     14  C   LIG d   1      -8.038  95.123 118.776  0.00  0.00     0.210 C 
ATOM     15  C   LIG d   1      -9.436  95.561 119.226  0.00  0.00     0.109 C 
ATOM     16  O   LIG d   1      -7.207  95.967 118.409  0.00  0.00    -0.276 OA
ATOM     17  H   LIG d   1      -8.572  93.194 119.065  0.00  0.00     0.149 HD
ENDBRANCH   6  13
BRANCH   5  18
ATOM     18  N   LIG d   1      -7.390  92.115 116.278  0.00  0.00     0.381 N 
ATOM     19  H   LIG d   1      -8.282  91.663 116.262  0.00  0.00    -0.090 HD
ATOM     20  H   LIG d   1      -6.820  91.716 115.553  0.00  0.00    -0.090 HD
ATOM     21  H   LIG d   1      -7.502  93.093 116.123  0.00  0.00    -0.090 HD
ENDBRANCH   5  18
BRANCH   3  22
ATOM     22  C   LIG d   1      -3.683  90.055 118.504  0.00  0.00     0.382 C 
ATOM     23  O   LIG d   1      -3.748  89.208 119.427  0.00  0.00    -0.241 OA
ATOM     24  O   LIG d   1      -2.773  89.970 117.657  0.00  0.00    -0.241 OA
ENDBRANCH   3  22
TORSDOF 7
ENDMDL
MODEL 9
REMARK VINA RESULT:      -4.5     31.921     33.619
REMARK  7 active torsions:
REMARK  status: ('A' for Active; 'I' for Inactive)
REMARK    1  A    between atoms: C_2  and  C_3 
REMARK    2  A    between atoms: C_3  and  O_6 
REMARK    3  A    between atoms: C_3  and  C_4 
REMARK    4  A    between atoms: C_7  and  O_6 
REMARK    5  A    between atoms: C_9  and  C_10 
REMARK    6  A    between atoms: N_15  and  C_14 
REMARK    7  A    between atoms: N_20  and  C_19 
REMARK       I    between atoms: C_22  and  N_20 
ROOT
ATOM      1  C   LIG d   1      -0.084  59.475 121.258  0.00  0.00     0.161 C 
ATOM      2  C   LIG d   1      -1.474  59.291 121.171  0.00  0.00     0.016 C 
ATOM      3  C   LIG d   1      -2.222  59.559 120.001  0.00  0.00     0.038 C 
ATOM      4  C   LIG d   1      -1.605  59.887 118.785  0.00  0.00     0.028 C 
ATOM      5  C   LIG d   1      -0.254  60.573 118.957  0.00  0.00    -0.047 C 
ATOM      6  C   LIG d   1       0.621  59.726 119.909  0.00  0.00     0.091 C 
ENDROOT
BRANCH   1   7
ATOM      7  O   LIG d   1       0.516  58.353 121.935  0.00  0.00    -0.368 OA
BRANCH   7   8
ATOM      8  C   LIG d   1       0.995  57.279 121.089  0.00  0.00     0.119 C 
BRANCH   8   9
ATOM      9  C   LIG d   1       0.063  56.071 121.302  0.00  0.00     0.028 C 
ATOM     10  C   LIG d   1      -0.543  55.558 119.984  0.00  0.00     0.006 C 
ENDBRANCH   8   9
BRANCH   8  11
ATOM     11  C   LIG d   1       2.383  56.802 121.526  0.00  0.00     0.028 C 
ATOM     12  C   LIG d   1       3.304  56.479 120.338  0.00  0.00     0.006 C 
ENDBRANCH   8  11
ENDBRANCH   7   8
ENDBRANCH   1   7
BRANCH   6  13
ATOM     13  N   LIG d   1       1.930  60.369 120.198  0.00  0.00    -0.311 N 
ATOM     14  C   LIG d   1       3.032  60.141 119.486  0.00  0.00     0.210 C 
ATOM     15  C   LIG d   1       4.279  60.891 119.966  0.00  0.00     0.109 C 
ATOM     16  O   LIG d   1       3.088  59.414 118.483  0.00  0.00    -0.276 OA
ATOM     17  H   LIG d   1       1.967  60.998 120.976  0.00  0.00     0.149 HD
ENDBRANCH   6  13
BRANCH   5  18
ATOM     18  N   LIG d   1       0.338  60.734 117.616  0.00  0.00     0.381 N 
ATOM     19  H   LIG d   1       0.649  61.677 117.494  0.00  0.00    -0.090 HD
ATOM     20  H   LIG d   1      -0.365  60.542 116.925  0.00  0.00    -0.090 HD
ATOM     21  H   LIG d   1       1.104  60.107 117.504  0.00  0.00    -0.090 HD
ENDBRANCH   5  18
BRANCH   3  22
ATOM     22  C   LIG d   1      -3.608  59.538 120.053  0.00  0.00     0.382 C 
ATOM     23  O   LIG d   1      -4.198  58.619 120.669  0.00  0.00    -0.241 OA
ATOM     24  O   LIG d   1      -4.275  60.401 119.452  0.00  0.00    -0.241 OA
ENDBRANCH   3  22
TORSDOF 7
ENDMDL
