MODEL 1
REMARK VINA RESULT:      -5.8      0.000      0.000
REMARK  7 active torsions:
REMARK  status: ('A' for Active; 'I' for Inactive)
REMARK    1  A    between atoms: C_2  and  C_3 
REMARK    2  A    between atoms: C_3  and  O_6 
REMARK    3  A    between atoms: C_3  and  C_4 
REMARK    4  A    between atoms: C_7  and  O_6 
REMARK    5  A    between atoms: C_9  and  C_10 
REMARK    6  A    between atoms: N_15  and  C_14 
REMARK    7  A    between atoms: N_20  and  C_19 
REMARK       I    between atoms: C_22  and  N_20 
ROOT
ATOM      1  C   LIG d   1      -8.954  73.720 118.732  0.00  0.00     0.161 C 
ATOM      2  C   LIG d   1      -8.580  72.632 117.925  0.00  0.00     0.016 C 
ATOM      3  C   LIG d   1      -9.509  71.806 117.252  0.00  0.00     0.038 C 
ATOM      4  C   LIG d   1     -10.879  72.105 117.219  0.00  0.00     0.028 C 
ATOM      5  C   LIG d   1     -11.355  72.899 118.431  0.00  0.00    -0.047 C 
ATOM      6  C   LIG d   1     -10.438  74.129 118.618  0.00  0.00     0.091 C 
ENDROOT
BRANCH   1   7
ATOM      7  O   LIG d   1      -8.101  74.848 118.457  0.00  0.00    -0.368 OA
BRANCH   7   8
ATOM      8  C   LIG d   1      -8.484  75.679 117.334  0.00  0.00     0.119 C 
BRANCH   8   9
ATOM      9  C   LIG d   1      -7.300  75.700 116.348  0.00  0.00     0.028 C 
ATOM     10  C   LIG d   1      -6.008  75.145 116.971  0.00  0.00     0.006 C 
ENDBRANCH   8   9
BRANCH   8  11
ATOM     11  C   LIG d   1      -8.682  77.137 117.761  0.00  0.00     0.028 C 
ATOM     12  C   LIG d   1      -8.160  77.419 119.179  0.00  0.00     0.006 C 
ENDBRANCH   8  11
ENDBRANCH   7   8
ENDBRANCH   1   7
BRANCH   6  13
ATOM     13  N   LIG d   1     -10.782  74.914 119.832  0.00  0.00    -0.311 N 
ATOM     14  C   LIG d   1     -11.579  75.981 119.813  0.00  0.00     0.210 C 
ATOM     15  C   LIG d   1     -11.788  76.656 121.172  0.00  0.00     0.109 C 
ATOM     16  O   LIG d   1     -12.159  76.413 118.805  0.00  0.00    -0.276 OA
ATOM     17  H   LIG d   1     -10.380  74.614 120.698  0.00  0.00     0.149 HD
ENDBRANCH   6  13
BRANCH   5  18
ATOM     18  N   LIG d   1     -12.767  73.260 118.201  0.00  0.00     0.381 N 
ATOM     19  H   LIG d   1     -13.294  72.440 117.978  0.00  0.00    -0.090 HD
ATOM     20  H   LIG d   1     -12.818  73.890 117.419  0.00  0.00    -0.090 HD
ATOM     21  H   LIG d   1     -13.144  73.696 119.013  0.00  0.00    -0.090 HD
ENDBRANCH   5  18
BRANCH   3  22
ATOM     22  C   LIG d   1      -9.074  70.643 116.636  0.00  0.00     0.382 C 
ATOM     23  O   LIG d   1      -9.674  69.561 116.843  0.00  0.00    -0.241 OA
ATOM     24  O   LIG d   1      -8.062  70.653 115.910  0.00  0.00    -0.241 OA
ENDBRANCH   3  22
TORSDOF 7
ENDMDL
MODEL 2
REMARK VINA RESULT:      -5.4      2.054      4.176
REMARK  7 active torsions:
REMARK  status: ('A' for Active; 'I' for Inactive)
REMARK    1  A    between atoms: C_2  and  C_3 
REMARK    2  A    between atoms: C_3  and  O_6 
REMARK    3  A    between atoms: C_3  and  C_4 
REMARK    4  A    between atoms: C_7  and  O_6 
REMARK    5  A    between atoms: C_9  and  C_10 
REMARK    6  A    between atoms: N_15  and  C_14 
REMARK    7  A    between atoms: N_20  and  C_19 
REMARK       I    between atoms: C_22  and  N_20 
ROOT
ATOM      1  C   LIG d   1     -10.597  73.659 118.157  0.00  0.00     0.161 C 
ATOM      2  C   LIG d   1     -10.275  72.392 117.645  0.00  0.00     0.016 C 
ATOM      3  C   LIG d   1      -8.974  72.030 117.225  0.00  0.00     0.038 C 
ATOM      4  C   LIG d   1      -7.868  72.867 117.432  0.00  0.00     0.028 C 
ATOM      5  C   LIG d   1      -8.231  74.348 117.481  0.00  0.00    -0.047 C 
ATOM      6  C   LIG d   1      -9.382  74.549 118.494  0.00  0.00     0.091 C 
ENDROOT
BRANCH   1   7
ATOM      7  O   LIG d   1     -11.449  73.518 119.311  0.00  0.00    -0.368 OA
BRANCH   7   8
ATOM      8  C   LIG d   1     -12.625  74.363 119.343  0.00  0.00     0.119 C 
BRANCH   8   9
ATOM      9  C   LIG d   1     -12.672  75.039 120.727  0.00  0.00     0.028 C 
ATOM     10  C   LIG d   1     -11.543  74.558 121.654  0.00  0.00     0.006 C 
ENDBRANCH   8   9
BRANCH   8  11
ATOM     11  C   LIG d   1     -13.910  73.534 119.252  0.00  0.00     0.028 C 
ATOM     12  C   LIG d   1     -15.118  74.235 119.893  0.00  0.00     0.006 C 
ENDBRANCH   8  11
ENDBRANCH   7   8
ENDBRANCH   1   7
BRANCH   6  13
ATOM     13  N   LIG d   1      -9.855  75.957 118.542  0.00  0.00    -0.311 N 
ATOM     14  C   LIG d   1      -9.449  76.835 119.457  0.00  0.00     0.210 C 
ATOM     15  C   LIG d   1     -10.076  78.228 119.339  0.00  0.00     0.109 C 
ATOM     16  O   LIG d   1      -8.606  76.603 120.336  0.00  0.00    -0.276 OA
ATOM     17  H   LIG d   1     -10.517  76.240 117.846  0.00  0.00     0.149 HD
ENDBRANCH   6  13
BRANCH   5  18
ATOM     18  N   LIG d   1      -7.010  75.094 117.839  0.00  0.00     0.381 N 
ATOM     19  H   LIG d   1      -6.212  74.495 117.763  0.00  0.00    -0.090 HD
ATOM     20  H   LIG d   1      -7.084  75.401 118.793  0.00  0.00    -0.090 HD
ATOM     21  H   LIG d   1      -6.902  75.880 117.237  0.00  0.00    -0.090 HD
ENDBRANCH   5  18
BRANCH   3  22
ATOM     22  C   LIG d   1      -8.777  70.832 116.554  0.00  0.00     0.382 C 
ATOM     23  O   LIG d   1      -7.780  70.690 115.805  0.00  0.00    -0.241 OA
ATOM     24  O   LIG d   1      -9.606  69.908 116.653  0.00  0.00    -0.241 OA
ENDBRANCH   3  22
TORSDOF 7
ENDMDL
MODEL 3
REMARK VINA RESULT:      -5.0      2.391      5.594
REMARK  7 active torsions:
REMARK  status: ('A' for Active; 'I' for Inactive)
REMARK    1  A    between atoms: C_2  and  C_3 
REMARK    2  A    between atoms: C_3  and  O_6 
REMARK    3  A    between atoms: C_3  and  C_4 
REMARK    4  A    between atoms: C_7  and  O_6 
REMARK    5  A    between atoms: C_9  and  C_10 
REMARK    6  A    between atoms: N_15  and  C_14 
REMARK    7  A    between atoms: N_20  and  C_19 
REMARK       I    between atoms: C_22  and  N_20 
ROOT
ATOM      1  C   LIG d   1      -9.534  74.303 120.005  0.00  0.00     0.161 C 
ATOM      2  C   LIG d   1     -10.779  74.414 120.646  0.00  0.00     0.016 C 
ATOM      3  C   LIG d   1     -11.592  75.569 120.573  0.00  0.00     0.038 C 
ATOM      4  C   LIG d   1     -11.281  76.642 119.725  0.00  0.00     0.028 C 
ATOM      5  C   LIG d   1      -9.787  76.784 119.450  0.00  0.00    -0.047 C 
ATOM      6  C   LIG d   1      -9.230  75.419 118.985  0.00  0.00     0.091 C 
ENDROOT
BRANCH   1   7
ATOM      7  O   LIG d   1      -9.421  73.009 119.380  0.00  0.00    -0.368 OA
BRANCH   7   8
ATOM      8  C   LIG d   1      -9.639  72.971 117.949  0.00  0.00     0.119 C 
BRANCH   8   9
ATOM      9  C   LIG d   1     -11.033  72.358 117.709  0.00  0.00     0.028 C 
ATOM     10  C   LIG d   1     -12.120  73.429 117.520  0.00  0.00     0.006 C 
ENDBRANCH   8   9
BRANCH   8  11
ATOM     11  C   LIG d   1      -8.655  72.021 117.260  0.00  0.00     0.028 C 
ATOM     12  C   LIG d   1      -9.340  70.780 116.667  0.00  0.00     0.006 C 
ENDBRANCH   8  11
ENDBRANCH   7   8
ENDBRANCH   1   7
BRANCH   6  13
ATOM     13  N   LIG d   1      -7.759  75.449 118.775  0.00  0.00    -0.311 N 
ATOM     14  C   LIG d   1      -7.192  75.669 117.591  0.00  0.00     0.210 C 
ATOM     15  C   LIG d   1      -5.660  75.638 117.592  0.00  0.00     0.109 C 
ATOM     16  O   LIG d   1      -7.810  75.919 116.545  0.00  0.00    -0.276 OA
ATOM     17  H   LIG d   1      -7.181  75.287 119.577  0.00  0.00     0.149 HD
ENDBRANCH   6  13
BRANCH   5  18
ATOM     18  N   LIG d   1      -9.619  77.851 118.446  0.00  0.00     0.381 N 
ATOM     19  H   LIG d   1      -8.653  77.930 118.195  0.00  0.00    -0.090 HD
ATOM     20  H   LIG d   1      -9.913  78.724 118.846  0.00  0.00    -0.090 HD
ATOM     21  H   LIG d   1     -10.164  77.647 117.637  0.00  0.00    -0.090 HD
ENDBRANCH   5  18
BRANCH   3  22
ATOM     22  C   LIG d   1     -12.710  75.675 121.387  0.00  0.00     0.382 C 
ATOM     23  O   LIG d   1     -13.006  76.779 121.903  0.00  0.00    -0.241 OA
ATOM     24  O   LIG d   1     -13.400  74.671 121.646  0.00  0.00    -0.241 OA
ENDBRANCH   3  22
TORSDOF 7
ENDMDL
MODEL 4
REMARK VINA RESULT:      -5.0      2.387      4.357
REMARK  7 active torsions:
REMARK  status: ('A' for Active; 'I' for Inactive)
REMARK    1  A    between atoms: C_2  and  C_3 
REMARK    2  A    between atoms: C_3  and  O_6 
REMARK    3  A    between atoms: C_3  and  C_4 
REMARK    4  A    between atoms: C_7  and  O_6 
REMARK    5  A    between atoms: C_9  and  C_10 
REMARK    6  A    between atoms: N_15  and  C_14 
REMARK    7  A    between atoms: N_20  and  C_19 
REMARK       I    between atoms: C_22  and  N_20 
ROOT
ATOM      1  C   LIG d   1      -8.943  74.539 118.003  0.00  0.00     0.161 C 
ATOM      2  C   LIG d   1      -8.922  73.161 117.728  0.00  0.00     0.016 C 
ATOM      3  C   LIG d   1      -7.932  72.543 116.930  0.00  0.00     0.038 C 
ATOM      4  C   LIG d   1      -6.804  73.241 116.473  0.00  0.00     0.028 C 
ATOM      5  C   LIG d   1      -7.046  74.737 116.303  0.00  0.00    -0.047 C 
ATOM      6  C   LIG d   1      -7.660  75.298 117.606  0.00  0.00     0.091 C 
ENDROOT
BRANCH   1   7
ATOM      7  O   LIG d   1      -9.242  74.754 119.397  0.00  0.00    -0.368 OA
BRANCH   7   8
ATOM      8  C   LIG d   1     -10.100  73.769 120.024  0.00  0.00     0.119 C 
BRANCH   8   9
ATOM      9  C   LIG d   1     -11.553  74.262 119.881  0.00  0.00     0.028 C 
ATOM     10  C   LIG d   1     -12.399  73.343 118.984  0.00  0.00     0.006 C 
ENDBRANCH   8   9
BRANCH   8  11
ATOM     11  C   LIG d   1      -9.845  73.689 121.532  0.00  0.00     0.028 C 
ATOM     12  C   LIG d   1      -9.807  75.070 122.205  0.00  0.00     0.006 C 
ENDBRANCH   8  11
ENDBRANCH   7   8
ENDBRANCH   1   7
BRANCH   6  13
ATOM     13  N   LIG d   1      -8.006  76.739 117.496  0.00  0.00    -0.311 N 
ATOM     14  C   LIG d   1      -7.182  77.721 117.858  0.00  0.00     0.210 C 
ATOM     15  C   LIG d   1      -7.743  79.135 117.680  0.00  0.00     0.109 C 
ATOM     16  O   LIG d   1      -6.027  77.555 118.279  0.00  0.00    -0.276 OA
ATOM     17  H   LIG d   1      -8.912  76.964 117.134  0.00  0.00     0.149 HD
ENDBRANCH   6  13
BRANCH   5  18
ATOM     18  N   LIG d   1      -5.755  75.361 115.957  0.00  0.00     0.381 N 
ATOM     19  H   LIG d   1      -5.745  76.313 116.265  0.00  0.00    -0.090 HD
ATOM     20  H   LIG d   1      -5.647  75.352 114.958  0.00  0.00    -0.090 HD
ATOM     21  H   LIG d   1      -5.008  74.858 116.384  0.00  0.00    -0.090 HD
ENDBRANCH   5  18
BRANCH   3  22
ATOM     22  C   LIG d   1      -8.087  71.219 116.546  0.00  0.00     0.382 C 
ATOM     23  O   LIG d   1      -9.053  70.549 116.983  0.00  0.00    -0.241 OA
ATOM     24  O   LIG d   1      -7.247  70.674 115.805  0.00  0.00    -0.241 OA
ENDBRANCH   3  22
TORSDOF 7
ENDMDL
MODEL 5
REMARK VINA RESULT:      -4.9      2.018      4.590
REMARK  7 active torsions:
REMARK  status: ('A' for Active; 'I' for Inactive)
REMARK    1  A    between atoms: C_2  and  C_3 
REMARK    2  A    between atoms: C_3  and  O_6 
REMARK    3  A    between atoms: C_3  and  C_4 
REMARK    4  A    between atoms: C_7  and  O_6 
REMARK    5  A    between atoms: C_9  and  C_10 
REMARK    6  A    between atoms: N_15  and  C_14 
REMARK    7  A    between atoms: N_20  and  C_19 
REMARK       I    between atoms: C_22  and  N_20 
ROOT
ATOM      1  C   LIG d   1     -10.094  74.786 118.755  0.00  0.00     0.161 C 
ATOM      2  C   LIG d   1     -11.404  74.926 119.242  0.00  0.00     0.016 C 
ATOM      3  C   LIG d   1     -12.416  73.959 119.044  0.00  0.00     0.038 C 
ATOM      4  C   LIG d   1     -12.143  72.708 118.471  0.00  0.00     0.028 C 
ATOM      5  C   LIG d   1     -10.956  72.726 117.513  0.00  0.00    -0.047 C 
ATOM      6  C   LIG d   1      -9.749  73.379 118.223  0.00  0.00     0.091 C 
ENDROOT
BRANCH   1   7
ATOM      7  O   LIG d   1      -9.150  75.185 119.768  0.00  0.00    -0.368 OA
BRANCH   7   8
ATOM      8  C   LIG d   1      -8.644  76.539 119.671  0.00  0.00     0.119 C 
BRANCH   8   9
ATOM      9  C   LIG d   1      -8.851  77.007 118.218  0.00  0.00     0.028 C 
ATOM     10  C   LIG d   1      -9.227  78.496 118.129  0.00  0.00     0.006 C 
ENDBRANCH   8   9
BRANCH   8  11
ATOM     11  C   LIG d   1      -7.130  76.586 119.901  0.00  0.00     0.028 C 
ATOM     12  C   LIG d   1      -6.332  75.987 118.732  0.00  0.00     0.006 C 
ENDBRANCH   8  11
ENDBRANCH   7   8
ENDBRANCH   1   7
BRANCH   6  13
ATOM     13  N   LIG d   1      -8.570  73.513 117.329  0.00  0.00    -0.311 N 
ATOM     14  C   LIG d   1      -7.759  72.500 117.027  0.00  0.00     0.210 C 
ATOM     15  C   LIG d   1      -6.592  72.859 116.103  0.00  0.00     0.109 C 
ATOM     16  O   LIG d   1      -7.915  71.331 117.412  0.00  0.00    -0.276 OA
ATOM     17  H   LIG d   1      -8.387  74.421 116.947  0.00  0.00     0.149 HD
ENDBRANCH   6  13
BRANCH   5  18
ATOM     18  N   LIG d   1     -10.699  71.335 117.097  0.00  0.00     0.381 N 
ATOM     19  H   LIG d   1     -11.470  70.754 117.360  0.00  0.00    -0.090 HD
ATOM     20  H   LIG d   1      -9.877  71.001 117.569  0.00  0.00    -0.090 HD
ATOM     21  H   LIG d   1     -10.564  71.293 116.110  0.00  0.00    -0.090 HD
ENDBRANCH   5  18
BRANCH   3  22
ATOM     22  C   LIG d   1     -13.727  74.255 119.386  0.00  0.00     0.382 C 
ATOM     23  O   LIG d   1     -14.491  73.344 119.785  0.00  0.00    -0.241 OA
ATOM     24  O   LIG d   1     -14.166  75.413 119.258  0.00  0.00    -0.241 OA
ENDBRANCH   3  22
TORSDOF 7
ENDMDL
MODEL 6
REMARK VINA RESULT:      -4.6      2.729      4.583
REMARK  7 active torsions:
REMARK  status: ('A' for Active; 'I' for Inactive)
REMARK    1  A    between atoms: C_2  and  C_3 
REMARK    2  A    between atoms: C_3  and  O_6 
REMARK    3  A    between atoms: C_3  and  C_4 
REMARK    4  A    between atoms: C_7  and  O_6 
REMARK    5  A    between atoms: C_9  and  C_10 
REMARK    6  A    between atoms: N_15  and  C_14 
REMARK    7  A    between atoms: N_20  and  C_19 
REMARK       I    between atoms: C_22  and  N_20 
ROOT
ATOM      1  C   LIG d   1      -9.541  75.638 117.591  0.00  0.00     0.161 C 
ATOM      2  C   LIG d   1     -10.875  75.382 117.947  0.00  0.00     0.016 C 
ATOM      3  C   LIG d   1     -11.355  74.098 118.294  0.00  0.00     0.038 C 
ATOM      4  C   LIG d   1     -10.493  73.003 118.455  0.00  0.00     0.028 C 
ATOM      5  C   LIG d   1      -9.223  73.103 117.616  0.00  0.00    -0.047 C 
ATOM      6  C   LIG d   1      -8.563  74.478 117.868  0.00  0.00     0.091 C 
ENDROOT
BRANCH   1   7
ATOM      7  O   LIG d   1      -9.085  76.843 118.237  0.00  0.00    -0.368 OA
BRANCH   7   8
ATOM      8  C   LIG d   1      -9.776  77.212 119.457  0.00  0.00     0.119 C 
BRANCH   8   9
ATOM      9  C   LIG d   1     -10.027  78.732 119.404  0.00  0.00     0.028 C 
ATOM     10  C   LIG d   1      -9.464  79.376 118.127  0.00  0.00     0.006 C 
ENDBRANCH   8   9
BRANCH   8  11
ATOM     11  C   LIG d   1      -8.892  76.990 120.687  0.00  0.00     0.028 C 
ATOM     12  C   LIG d   1      -9.142  75.633 121.363  0.00  0.00     0.006 C 
ENDBRANCH   8  11
ENDBRANCH   7   8
ENDBRANCH   1   7
BRANCH   6  13
ATOM     13  N   LIG d   1      -7.359  74.692 117.023  0.00  0.00    -0.311 N 
ATOM     14  C   LIG d   1      -6.247  75.277 117.465  0.00  0.00     0.210 C 
ATOM     15  C   LIG d   1      -5.132  75.416 116.424  0.00  0.00     0.109 C 
ATOM     16  O   LIG d   1      -6.067  75.664 118.630  0.00  0.00    -0.276 OA
ATOM     17  H   LIG d   1      -7.408  74.380 116.073  0.00  0.00     0.149 HD
ENDBRANCH   6  13
BRANCH   5  18
ATOM     18  N   LIG d   1      -8.355  71.968 117.985  0.00  0.00     0.381 N 
ATOM     19  H   LIG d   1      -7.659  71.832 117.279  0.00  0.00    -0.090 HD
ATOM     20  H   LIG d   1      -8.915  71.136 118.040  0.00  0.00    -0.090 HD
ATOM     21  H   LIG d   1      -7.919  72.144 118.863  0.00  0.00    -0.090 HD
ENDBRANCH   5  18
BRANCH   3  22
ATOM     22  C   LIG d   1     -12.718  73.891 118.445  0.00  0.00     0.382 C 
ATOM     23  O   LIG d   1     -13.526  74.808 118.163  0.00  0.00    -0.241 OA
ATOM     24  O   LIG d   1     -13.147  72.814 118.900  0.00  0.00    -0.241 OA
ENDBRANCH   3  22
TORSDOF 7
ENDMDL
MODEL 7
REMARK VINA RESULT:      -4.6      2.813      4.566
REMARK  7 active torsions:
REMARK  status: ('A' for Active; 'I' for Inactive)
REMARK    1  A    between atoms: C_2  and  C_3 
REMARK    2  A    between atoms: C_3  and  O_6 
REMARK    3  A    between atoms: C_3  and  C_4 
REMARK    4  A    between atoms: C_7  and  O_6 
REMARK    5  A    between atoms: C_9  and  C_10 
REMARK    6  A    between atoms: N_15  and  C_14 
REMARK    7  A    between atoms: N_20  and  C_19 
REMARK       I    between atoms: C_22  and  N_20 
ROOT
ATOM      1  C   LIG d   1      -9.208  75.977 117.718  0.00  0.00     0.161 C 
ATOM      2  C   LIG d   1     -10.578  75.839 117.996  0.00  0.00     0.016 C 
ATOM      3  C   LIG d   1     -11.197  74.595 118.260  0.00  0.00     0.038 C 
ATOM      4  C   LIG d   1     -10.454  73.415 118.414  0.00  0.00     0.028 C 
ATOM      5  C   LIG d   1      -9.138  73.423 117.645  0.00  0.00    -0.047 C 
ATOM      6  C   LIG d   1      -8.362  74.715 117.991  0.00  0.00     0.091 C 
ENDROOT
BRANCH   1   7
ATOM      7  O   LIG d   1      -8.674  77.104 118.440  0.00  0.00    -0.368 OA
BRANCH   7   8
ATOM      8  C   LIG d   1      -8.743  78.384 117.765  0.00  0.00     0.119 C 
BRANCH   8   9
ATOM      9  C   LIG d   1      -7.299  78.893 117.590  0.00  0.00     0.028 C 
ATOM     10  C   LIG d   1      -6.633  79.242 118.932  0.00  0.00     0.006 C 
ENDBRANCH   8   9
BRANCH   8  11
ATOM     11  C   LIG d   1      -9.441  79.435 118.633  0.00  0.00     0.028 C 
ATOM     12  C   LIG d   1     -10.013  80.601 117.812  0.00  0.00     0.006 C 
ENDBRANCH   8  11
ENDBRANCH   7   8
ENDBRANCH   1   7
BRANCH   6  13
ATOM     13  N   LIG d   1      -7.100  74.843 117.218  0.00  0.00    -0.311 N 
ATOM     14  C   LIG d   1      -5.984  75.371 117.717  0.00  0.00     0.210 C 
ATOM     15  C   LIG d   1      -4.803  75.427 116.744  0.00  0.00     0.109 C 
ATOM     16  O   LIG d   1      -5.851  75.770 118.884  0.00  0.00    -0.276 OA
ATOM     17  H   LIG d   1      -7.110  74.516 116.271  0.00  0.00     0.149 HD
ENDBRANCH   6  13
BRANCH   5  18
ATOM     18  N   LIG d   1      -8.404  72.195 118.005  0.00  0.00     0.381 N 
ATOM     19  H   LIG d   1      -7.921  71.842 117.203  0.00  0.00    -0.090 HD
ATOM     20  H   LIG d   1      -9.063  71.499 118.307  0.00  0.00    -0.090 HD
ATOM     21  H   LIG d   1      -7.755  72.387 118.735  0.00  0.00    -0.090 HD
ENDBRANCH   5  18
BRANCH   3  22
ATOM     22  C   LIG d   1     -12.580  74.518 118.333  0.00  0.00     0.382 C 
ATOM     23  O   LIG d   1     -13.142  73.398 118.393  0.00  0.00    -0.241 OA
ATOM     24  O   LIG d   1     -13.273  75.552 118.295  0.00  0.00    -0.241 OA
ENDBRANCH   3  22
TORSDOF 7
ENDMDL
MODEL 8
REMARK VINA RESULT:      -4.6      2.741      5.799
REMARK  7 active torsions:
REMARK  status: ('A' for Active; 'I' for Inactive)
REMARK    1  A    between atoms: C_2  and  C_3 
REMARK    2  A    between atoms: C_3  and  O_6 
REMARK    3  A    between atoms: C_3  and  C_4 
REMARK    4  A    between atoms: C_7  and  O_6 
REMARK    5  A    between atoms: C_9  and  C_10 
REMARK    6  A    between atoms: N_15  and  C_14 
REMARK    7  A    between atoms: N_20  and  C_19 
REMARK       I    between atoms: C_22  and  N_20 
ROOT
ATOM      1  C   LIG d   1      -9.566  76.980 118.447  0.00  0.00     0.161 C 
ATOM      2  C   LIG d   1      -8.569  77.723 117.794  0.00  0.00     0.016 C 
ATOM      3  C   LIG d   1      -8.311  79.087 118.066  0.00  0.00     0.038 C 
ATOM      4  C   LIG d   1      -8.936  79.763 119.124  0.00  0.00     0.028 C 
ATOM      5  C   LIG d   1     -10.308  79.197 119.477  0.00  0.00    -0.047 C 
ATOM      6  C   LIG d   1     -10.183  77.670 119.681  0.00  0.00     0.091 C 
ENDROOT
BRANCH   1   7
ATOM      7  O   LIG d   1      -9.053  75.681 118.803  0.00  0.00    -0.368 OA
BRANCH   7   8
ATOM      8  C   LIG d   1      -9.426  74.586 117.931  0.00  0.00     0.119 C 
BRANCH   8   9
ATOM      9  C   LIG d   1     -10.480  73.742 118.673  0.00  0.00     0.028 C 
ATOM     10  C   LIG d   1     -11.132  72.686 117.765  0.00  0.00     0.006 C 
ENDBRANCH   8   9
BRANCH   8  11
ATOM     11  C   LIG d   1      -8.247  73.641 117.687  0.00  0.00     0.028 C 
ATOM     12  C   LIG d   1      -7.128  74.286 116.854  0.00  0.00     0.006 C 
ENDBRANCH   8  11
ENDBRANCH   7   8
ENDBRANCH   1   7
BRANCH   6  13
ATOM     13  N   LIG d   1     -11.495  77.025 119.948  0.00  0.00    -0.311 N 
ATOM     14  C   LIG d   1     -11.738  76.272 121.019  0.00  0.00     0.210 C 
ATOM     15  C   LIG d   1     -13.151  75.685 121.091  0.00  0.00     0.109 C 
ATOM     16  O   LIG d   1     -10.927  76.060 121.933  0.00  0.00    -0.276 OA
ATOM     17  H   LIG d   1     -12.221  77.170 119.273  0.00  0.00     0.149 HD
ENDBRANCH   6  13
BRANCH   5  18
ATOM     18  N   LIG d   1     -10.785  79.904 120.681  0.00  0.00     0.381 N 
ATOM     19  H   LIG d   1     -11.189  79.250 121.320  0.00  0.00    -0.090 HD
ATOM     20  H   LIG d   1     -11.495  80.562 120.412  0.00  0.00    -0.090 HD
ATOM     21  H   LIG d   1     -10.028  80.382 121.118  0.00  0.00    -0.090 HD
ENDBRANCH   5  18
BRANCH   3  22
ATOM     22  C   LIG d   1      -7.446  79.799 117.249  0.00  0.00     0.382 C 
ATOM     23  O   LIG d   1      -7.743  80.962 116.885  0.00  0.00    -0.241 OA
ATOM     24  O   LIG d   1      -6.394  79.276 116.835  0.00  0.00    -0.241 OA
ENDBRANCH   3  22
TORSDOF 7
ENDMDL
MODEL 9
REMARK VINA RESULT:      -4.5      2.662      4.736
REMARK  7 active torsions:
REMARK  status: ('A' for Active; 'I' for Inactive)
REMARK    1  A    between atoms: C_2  and  C_3 
REMARK    2  A    between atoms: C_3  and  O_6 
REMARK    3  A    between atoms: C_3  and  C_4 
REMARK    4  A    between atoms: C_7  and  O_6 
REMARK    5  A    between atoms: C_9  and  C_10 
REMARK    6  A    between atoms: N_15  and  C_14 
REMARK    7  A    between atoms: N_20  and  C_19 
REMARK       I    between atoms: C_22  and  N_20 
ROOT
ATOM      1  C   LIG d   1      -9.678  76.375 117.644  0.00  0.00     0.161 C 
ATOM      2  C   LIG d   1      -9.149  75.094 117.413  0.00  0.00     0.016 C 
ATOM      3  C   LIG d   1      -7.764  74.811 117.425  0.00  0.00     0.038 C 
ATOM      4  C   LIG d   1      -6.815  75.765 117.821  0.00  0.00     0.028 C 
ATOM      5  C   LIG d   1      -7.261  77.202 117.573  0.00  0.00    -0.047 C 
ATOM      6  C   LIG d   1      -8.665  77.404 118.188  0.00  0.00     0.091 C 
ENDROOT
BRANCH   1   7
ATOM      7  O   LIG d   1     -10.817  76.282 118.522  0.00  0.00    -0.368 OA
BRANCH   7   8
ATOM      8  C   LIG d   1     -11.162  74.951 118.980  0.00  0.00     0.119 C 
BRANCH   8   9
ATOM      9  C   LIG d   1     -12.639  74.704 118.614  0.00  0.00     0.028 C 
ATOM     10  C   LIG d   1     -13.047  73.231 118.785  0.00  0.00     0.006 C 
ENDBRANCH   8   9
BRANCH   8  11
ATOM     11  C   LIG d   1     -11.101  74.853 120.507  0.00  0.00     0.028 C 
ATOM     12  C   LIG d   1      -9.949  73.964 121.001  0.00  0.00     0.006 C 
ENDBRANCH   8  11
ENDBRANCH   7   8
ENDBRANCH   1   7
BRANCH   6  13
ATOM     13  N   LIG d   1      -9.212  78.760 117.917  0.00  0.00    -0.311 N 
ATOM     14  C   LIG d   1      -9.700  79.556 118.867  0.00  0.00     0.210 C 
ATOM     15  C   LIG d   1     -10.232  80.904 118.370  0.00  0.00     0.109 C 
ATOM     16  O   LIG d   1      -9.714  79.287 120.077  0.00  0.00    -0.276 OA
ATOM     17  H   LIG d   1      -9.211  79.070 116.966  0.00  0.00     0.149 HD
ENDBRANCH   6  13
BRANCH   5  18
ATOM     18  N   LIG d   1      -6.240  78.092 118.157  0.00  0.00     0.381 N 
ATOM     19  H   LIG d   1      -6.139  78.910 117.590  0.00  0.00    -0.090 HD
ATOM     20  H   LIG d   1      -5.359  77.610 118.174  0.00  0.00    -0.090 HD
ATOM     21  H   LIG d   1      -6.503  78.352 119.083  0.00  0.00    -0.090 HD
ENDBRANCH   5  18
BRANCH   3  22
ATOM     22  C   LIG d   1      -7.313  73.571 116.998  0.00  0.00     0.382 C 
ATOM     23  O   LIG d   1      -6.217  73.476 116.395  0.00  0.00    -0.241 OA
ATOM     24  O   LIG d   1      -8.008  72.552 117.170  0.00  0.00    -0.241 OA
ENDBRANCH   3  22
TORSDOF 7
ENDMDL
