MODEL 1
REMARK VINA RESULT:      -5.2      0.000      0.000
REMARK  7 active torsions:
REMARK  status: ('A' for Active; 'I' for Inactive)
REMARK    1  A    between atoms: C_2  and  C_3 
REMARK    2  A    between atoms: C_3  and  O_6 
REMARK    3  A    between atoms: C_3  and  C_4 
REMARK    4  A    between atoms: C_7  and  O_6 
REMARK    5  A    between atoms: C_9  and  C_10 
REMARK    6  A    between atoms: N_15  and  C_14 
REMARK    7  A    between atoms: N_20  and  C_19 
REMARK       I    between atoms: C_22  and  N_20 
ROOT
ATOM      1  C   LIG d   1      -5.369  92.586 119.292  0.00  0.00     0.161 C 
ATOM      2  C   LIG d   1      -5.576  91.579 118.335  0.00  0.00     0.016 C 
ATOM      3  C   LIG d   1      -6.476  91.708 117.251  0.00  0.00     0.038 C 
ATOM      4  C   LIG d   1      -7.120  92.920 116.964  0.00  0.00     0.028 C 
ATOM      5  C   LIG d   1      -7.328  93.802 118.190  0.00  0.00    -0.047 C 
ATOM      6  C   LIG d   1      -5.980  93.957 118.931  0.00  0.00     0.091 C 
ENDROOT
BRANCH   1   7
ATOM      7  O   LIG d   1      -3.959  92.722 119.560  0.00  0.00    -0.368 OA
BRANCH   7   8
ATOM      8  C   LIG d   1      -3.084  92.685 118.406  0.00  0.00     0.119 C 
BRANCH   8   9
ATOM      9  C   LIG d   1      -1.935  91.709 118.727  0.00  0.00     0.028 C 
ATOM     10  C   LIG d   1      -2.115  90.346 118.038  0.00  0.00     0.006 C 
ENDBRANCH   8   9
BRANCH   8  11
ATOM     11  C   LIG d   1      -2.410  94.041 118.175  0.00  0.00     0.028 C 
ATOM     12  C   LIG d   1      -0.996  93.911 117.588  0.00  0.00     0.006 C 
ENDBRANCH   8  11
ENDBRANCH   7   8
ENDBRANCH   1   7
BRANCH   6  13
ATOM     13  N   LIG d   1      -6.110  94.736 120.190  0.00  0.00    -0.311 N 
ATOM     14  C   LIG d   1      -5.897  96.048 120.265  0.00  0.00     0.210 C 
ATOM     15  C   LIG d   1      -6.067  96.652 121.663  0.00  0.00     0.109 C 
ATOM     16  O   LIG d   1      -5.614  96.775 119.301  0.00  0.00    -0.276 OA
ATOM     17  H   LIG d   1      -6.367  94.230 121.015  0.00  0.00     0.149 HD
ENDBRANCH   6  13
BRANCH   5  18
ATOM     18  N   LIG d   1      -7.883  95.088 117.726  0.00  0.00     0.381 N 
ATOM     19  H   LIG d   1      -7.205  95.813 117.848  0.00  0.00    -0.090 HD
ATOM     20  H   LIG d   1      -8.689  95.313 118.282  0.00  0.00    -0.090 HD
ATOM     21  H   LIG d   1      -8.140  95.021 116.766  0.00  0.00    -0.090 HD
ENDBRANCH   5  18
BRANCH   3  22
ATOM     22  C   LIG d   1      -6.768  90.604 116.465  0.00  0.00     0.382 C 
ATOM     23  O   LIG d   1      -7.932  90.137 116.449  0.00  0.00    -0.241 OA
ATOM     24  O   LIG d   1      -5.872  90.042 115.807  0.00  0.00    -0.241 OA
ENDBRANCH   3  22
TORSDOF 7
ENDMDL
MODEL 2
REMARK VINA RESULT:      -5.1     12.461     14.867
REMARK  7 active torsions:
REMARK  status: ('A' for Active; 'I' for Inactive)
REMARK    1  A    between atoms: C_2  and  C_3 
REMARK    2  A    between atoms: C_3  and  O_6 
REMARK    3  A    between atoms: C_3  and  C_4 
REMARK    4  A    between atoms: C_7  and  O_6 
REMARK    5  A    between atoms: C_9  and  C_10 
REMARK    6  A    between atoms: N_15  and  C_14 
REMARK    7  A    between atoms: N_20  and  C_19 
REMARK       I    between atoms: C_22  and  N_20 
ROOT
ATOM      1  C   LIG d   1      -7.217  79.485 118.391  0.00  0.00     0.161 C 
ATOM      2  C   LIG d   1      -6.150  79.222 117.515  0.00  0.00     0.016 C 
ATOM      3  C   LIG d   1      -5.951  77.973 116.884  0.00  0.00     0.038 C 
ATOM      4  C   LIG d   1      -6.896  76.940 116.969  0.00  0.00     0.028 C 
ATOM      5  C   LIG d   1      -7.731  76.986 118.244  0.00  0.00    -0.047 C 
ATOM      6  C   LIG d   1      -8.320  78.405 118.408  0.00  0.00     0.091 C 
ENDROOT
BRANCH   1   7
ATOM      7  O   LIG d   1      -7.785  80.776 118.096  0.00  0.00    -0.368 OA
BRANCH   7   8
ATOM      8  C   LIG d   1      -7.963  81.667 119.225  0.00  0.00     0.119 C 
BRANCH   8   9
ATOM      9  C   LIG d   1      -9.397  82.227 119.151  0.00  0.00     0.028 C 
ATOM     10  C   LIG d   1     -10.154  81.738 117.905  0.00  0.00     0.006 C 
ENDBRANCH   8   9
BRANCH   8  11
ATOM     11  C   LIG d   1      -7.045  82.888 119.121  0.00  0.00     0.028 C 
ATOM     12  C   LIG d   1      -5.608  82.594 119.580  0.00  0.00     0.006 C 
ENDBRANCH   8  11
ENDBRANCH   7   8
ENDBRANCH   1   7
BRANCH   6  13
ATOM     13  N   LIG d   1      -9.081  78.561 119.675  0.00  0.00    -0.311 N 
ATOM     14  C   LIG d   1     -10.356  78.201 119.813  0.00  0.00     0.210 C 
ATOM     15  C   LIG d   1     -10.957  78.466 121.197  0.00  0.00     0.109 C 
ATOM     16  O   LIG d   1     -11.037  77.658 118.930  0.00  0.00    -0.276 OA
ATOM     17  H   LIG d   1      -8.596  78.964 120.452  0.00  0.00     0.149 HD
ENDBRANCH   6  13
BRANCH   5  18
ATOM     18  N   LIG d   1      -8.765  75.939 118.138  0.00  0.00     0.381 N 
ATOM     19  H   LIG d   1      -9.669  76.340 118.289  0.00  0.00    -0.090 HD
ATOM     20  H   LIG d   1      -8.603  75.249 118.850  0.00  0.00    -0.090 HD
ATOM     21  H   LIG d   1      -8.728  75.513 117.238  0.00  0.00    -0.090 HD
ENDBRANCH   5  18
BRANCH   3  22
ATOM     22  C   LIG d   1      -4.774  77.734 116.190  0.00  0.00     0.382 C 
ATOM     23  O   LIG d   1      -4.406  76.555 115.969  0.00  0.00    -0.241 OA
ATOM     24  O   LIG d   1      -4.054  78.681 115.822  0.00  0.00    -0.241 OA
ENDBRANCH   3  22
TORSDOF 7
ENDMDL
MODEL 3
REMARK VINA RESULT:      -5.0     12.937     15.012
REMARK  7 active torsions:
REMARK  status: ('A' for Active; 'I' for Inactive)
REMARK    1  A    between atoms: C_2  and  C_3 
REMARK    2  A    between atoms: C_3  and  O_6 
REMARK    3  A    between atoms: C_3  and  C_4 
REMARK    4  A    between atoms: C_7  and  O_6 
REMARK    5  A    between atoms: C_9  and  C_10 
REMARK    6  A    between atoms: N_15  and  C_14 
REMARK    7  A    between atoms: N_20  and  C_19 
REMARK       I    between atoms: C_22  and  N_20 
ROOT
ATOM      1  C   LIG d   1      -6.741  77.917 117.629  0.00  0.00     0.161 C 
ATOM      2  C   LIG d   1      -7.430  76.722 117.359  0.00  0.00     0.016 C 
ATOM      3  C   LIG d   1      -8.787  76.513 117.695  0.00  0.00     0.038 C 
ATOM      4  C   LIG d   1      -9.595  77.547 118.192  0.00  0.00     0.028 C 
ATOM      5  C   LIG d   1      -8.814  78.616 118.949  0.00  0.00    -0.047 C 
ATOM      6  C   LIG d   1      -7.637  79.094 118.070  0.00  0.00     0.091 C 
ENDROOT
BRANCH   1   7
ATOM      7  O   LIG d   1      -5.947  78.292 116.486  0.00  0.00    -0.368 OA
BRANCH   7   8
ATOM      8  C   LIG d   1      -4.511  78.174 116.642  0.00  0.00     0.119 C 
BRANCH   8   9
ATOM      9  C   LIG d   1      -4.238  77.729 118.091  0.00  0.00     0.028 C 
ATOM     10  C   LIG d   1      -3.418  76.430 118.162  0.00  0.00     0.006 C 
ENDBRANCH   8   9
BRANCH   8  11
ATOM     11  C   LIG d   1      -3.822  79.533 116.497  0.00  0.00     0.028 C 
ATOM     12  C   LIG d   1      -3.046  79.945 117.758  0.00  0.00     0.006 C 
ENDBRANCH   8  11
ENDBRANCH   7   8
ENDBRANCH   1   7
BRANCH   6  13
ATOM     13  N   LIG d   1      -6.771  80.080 118.768  0.00  0.00    -0.311 N 
ATOM     14  C   LIG d   1      -6.528  81.303 118.300  0.00  0.00     0.210 C 
ATOM     15  C   LIG d   1      -5.592  82.152 119.166  0.00  0.00     0.109 C 
ATOM     16  O   LIG d   1      -7.023  81.776 117.266  0.00  0.00    -0.276 OA
ATOM     17  H   LIG d   1      -6.353  79.790 119.631  0.00  0.00     0.149 HD
ENDBRANCH   6  13
BRANCH   5  18
ATOM     18  N   LIG d   1      -9.757  79.698 119.291  0.00  0.00     0.381 N 
ATOM     19  H   LIG d   1      -9.311  80.585 119.173  0.00  0.00    -0.090 HD
ATOM     20  H   LIG d   1     -10.022  79.605 120.256  0.00  0.00    -0.090 HD
ATOM     21  H   LIG d   1     -10.564  79.643 118.710  0.00  0.00    -0.090 HD
ENDBRANCH   5  18
BRANCH   3  22
ATOM     22  C   LIG d   1      -9.339  75.247 117.572  0.00  0.00     0.382 C 
ATOM     23  O   LIG d   1      -8.607  74.233 117.671  0.00  0.00    -0.241 OA
ATOM     24  O   LIG d   1     -10.550  75.108 117.319  0.00  0.00    -0.241 OA
ENDBRANCH   3  22
TORSDOF 7
ENDMDL
MODEL 4
REMARK VINA RESULT:      -4.9      2.242      3.323
REMARK  7 active torsions:
REMARK  status: ('A' for Active; 'I' for Inactive)
REMARK    1  A    between atoms: C_2  and  C_3 
REMARK    2  A    between atoms: C_3  and  O_6 
REMARK    3  A    between atoms: C_3  and  C_4 
REMARK    4  A    between atoms: C_7  and  O_6 
REMARK    5  A    between atoms: C_9  and  C_10 
REMARK    6  A    between atoms: N_15  and  C_14 
REMARK    7  A    between atoms: N_20  and  C_19 
REMARK       I    between atoms: C_22  and  N_20 
ROOT
ATOM      1  C   LIG d   1      -3.408  91.244 118.147  0.00  0.00     0.161 C 
ATOM      2  C   LIG d   1      -4.401  90.752 117.284  0.00  0.00     0.016 C 
ATOM      3  C   LIG d   1      -5.544  91.495 116.909  0.00  0.00     0.038 C 
ATOM      4  C   LIG d   1      -5.696  92.846 117.254  0.00  0.00     0.028 C 
ATOM      5  C   LIG d   1      -4.970  93.228 118.539  0.00  0.00    -0.047 C 
ATOM      6  C   LIG d   1      -3.501  92.755 118.445  0.00  0.00     0.091 C 
ENDROOT
BRANCH   1   7
ATOM      7  O   LIG d   1      -2.104  90.914 117.629  0.00  0.00    -0.368 OA
BRANCH   7   8
ATOM      8  C   LIG d   1      -1.222  90.201 118.531  0.00  0.00     0.119 C 
BRANCH   8   9
ATOM      9  C   LIG d   1       0.187  90.805 118.374  0.00  0.00     0.028 C 
ATOM     10  C   LIG d   1       0.179  92.111 117.562  0.00  0.00     0.006 C 
ENDBRANCH   8   9
BRANCH   8  11
ATOM     11  C   LIG d   1      -1.080  88.731 118.125  0.00  0.00     0.028 C 
ATOM     12  C   LIG d   1       0.301  88.406 117.534  0.00  0.00     0.006 C 
ENDBRANCH   8  11
ENDBRANCH   7   8
ENDBRANCH   1   7
BRANCH   6  13
ATOM     13  N   LIG d   1      -2.740  93.014 119.695  0.00  0.00    -0.311 N 
ATOM     14  C   LIG d   1      -1.983  94.094 119.882  0.00  0.00     0.210 C 
ATOM     15  C   LIG d   1      -1.269  94.156 121.235  0.00  0.00     0.109 C 
ATOM     16  O   LIG d   1      -1.860  95.021 119.067  0.00  0.00    -0.276 OA
ATOM     17  H   LIG d   1      -2.808  92.328 120.421  0.00  0.00     0.149 HD
ENDBRANCH   6  13
BRANCH   5  18
ATOM     18  N   LIG d   1      -5.097  94.688 118.706  0.00  0.00     0.381 N 
ATOM     19  H   LIG d   1      -6.022  94.977 118.459  0.00  0.00    -0.090 HD
ATOM     20  H   LIG d   1      -4.449  95.144 118.088  0.00  0.00    -0.090 HD
ATOM     21  H   LIG d   1      -4.903  94.942 119.650  0.00  0.00    -0.090 HD
ENDBRANCH   5  18
BRANCH   3  22
ATOM     22  C   LIG d   1      -6.570  90.873 116.212  0.00  0.00     0.382 C 
ATOM     23  O   LIG d   1      -6.428  89.694 115.807  0.00  0.00    -0.241 OA
ATOM     24  O   LIG d   1      -7.617  91.492 115.946  0.00  0.00    -0.241 OA
ENDBRANCH   3  22
TORSDOF 7
ENDMDL
MODEL 5
REMARK VINA RESULT:      -4.9      1.584      2.457
REMARK  7 active torsions:
REMARK  status: ('A' for Active; 'I' for Inactive)
REMARK    1  A    between atoms: C_2  and  C_3 
REMARK    2  A    between atoms: C_3  and  O_6 
REMARK    3  A    between atoms: C_3  and  C_4 
REMARK    4  A    between atoms: C_7  and  O_6 
REMARK    5  A    between atoms: C_9  and  C_10 
REMARK    6  A    between atoms: N_15  and  C_14 
REMARK    7  A    between atoms: N_20  and  C_19 
REMARK       I    between atoms: C_22  and  N_20 
ROOT
ATOM      1  C   LIG d   1      -5.656  93.007 119.760  0.00  0.00     0.161 C 
ATOM      2  C   LIG d   1      -5.078  92.002 118.966  0.00  0.00     0.016 C 
ATOM      3  C   LIG d   1      -5.548  91.663 117.677  0.00  0.00     0.038 C 
ATOM      4  C   LIG d   1      -6.539  92.413 117.028  0.00  0.00     0.028 C 
ATOM      5  C   LIG d   1      -7.494  93.115 117.988  0.00  0.00    -0.047 C 
ATOM      6  C   LIG d   1      -6.667  93.910 119.025  0.00  0.00     0.091 C 
ENDROOT
BRANCH   1   7
ATOM      7  O   LIG d   1      -4.621  93.804 120.369  0.00  0.00    -0.368 OA
BRANCH   7   8
ATOM      8  C   LIG d   1      -3.976  94.776 119.508  0.00  0.00     0.119 C 
BRANCH   8   9
ATOM      9  C   LIG d   1      -2.475  94.430 119.463  0.00  0.00     0.028 C 
ATOM     10  C   LIG d   1      -1.986  94.126 118.037  0.00  0.00     0.006 C 
ENDBRANCH   8   9
BRANCH   8  11
ATOM     11  C   LIG d   1      -4.050  96.184 120.105  0.00  0.00     0.028 C 
ATOM     12  C   LIG d   1      -4.612  96.197 121.535  0.00  0.00     0.006 C 
ENDBRANCH   8  11
ENDBRANCH   7   8
ENDBRANCH   1   7
BRANCH   6  13
ATOM     13  N   LIG d   1      -7.522  94.559 120.053  0.00  0.00    -0.311 N 
ATOM     14  C   LIG d   1      -7.979  95.806 119.946  0.00  0.00     0.210 C 
ATOM     15  C   LIG d   1      -8.826  96.287 121.129  0.00  0.00     0.109 C 
ATOM     16  O   LIG d   1      -7.790  96.547 118.970  0.00  0.00    -0.276 OA
ATOM     17  H   LIG d   1      -7.750  94.018 120.864  0.00  0.00     0.149 HD
ENDBRANCH   6  13
BRANCH   5  18
ATOM     18  N   LIG d   1      -8.388  93.969 117.184  0.00  0.00     0.381 N 
ATOM     19  H   LIG d   1      -8.204  93.829 116.210  0.00  0.00    -0.090 HD
ATOM     20  H   LIG d   1      -8.204  94.931 117.405  0.00  0.00    -0.090 HD
ATOM     21  H   LIG d   1      -9.339  93.750 117.384  0.00  0.00    -0.090 HD
ENDBRANCH   5  18
BRANCH   3  22
ATOM     22  C   LIG d   1      -5.051  90.536 117.039  0.00  0.00     0.382 C 
ATOM     23  O   LIG d   1      -4.106  89.890 117.552  0.00  0.00    -0.241 OA
ATOM     24  O   LIG d   1      -5.506  90.184 115.934  0.00  0.00    -0.241 OA
ENDBRANCH   3  22
TORSDOF 7
ENDMDL
MODEL 6
REMARK VINA RESULT:      -4.8      1.629      4.915
REMARK  7 active torsions:
REMARK  status: ('A' for Active; 'I' for Inactive)
REMARK    1  A    between atoms: C_2  and  C_3 
REMARK    2  A    between atoms: C_3  and  O_6 
REMARK    3  A    between atoms: C_3  and  C_4 
REMARK    4  A    between atoms: C_7  and  O_6 
REMARK    5  A    between atoms: C_9  and  C_10 
REMARK    6  A    between atoms: N_15  and  C_14 
REMARK    7  A    between atoms: N_20  and  C_19 
REMARK       I    between atoms: C_22  and  N_20 
ROOT
ATOM      1  C   LIG d   1      -5.211  94.164 118.883  0.00  0.00     0.161 C 
ATOM      2  C   LIG d   1      -5.539  95.356 119.552  0.00  0.00     0.016 C 
ATOM      3  C   LIG d   1      -6.800  95.986 119.445  0.00  0.00     0.038 C 
ATOM      4  C   LIG d   1      -7.876  95.383 118.778  0.00  0.00     0.028 C 
ATOM      5  C   LIG d   1      -7.444  94.429 117.670  0.00  0.00    -0.047 C 
ATOM      6  C   LIG d   1      -6.408  93.433 118.240  0.00  0.00     0.091 C 
ENDROOT
BRANCH   1   7
ATOM      7  O   LIG d   1      -4.506  93.280 119.778  0.00  0.00    -0.368 OA
BRANCH   7   8
ATOM      8  C   LIG d   1      -3.061  93.290 119.676  0.00  0.00     0.119 C 
BRANCH   8   9
ATOM      9  C   LIG d   1      -2.703  93.499 118.192  0.00  0.00     0.028 C 
ATOM     10  C   LIG d   1      -1.242  93.938 117.997  0.00  0.00     0.006 C 
ENDBRANCH   8   9
BRANCH   8  11
ATOM     11  C   LIG d   1      -2.467  91.929 120.049  0.00  0.00     0.028 C 
ATOM     12  C   LIG d   1      -3.461  90.773 119.859  0.00  0.00     0.006 C 
ENDBRANCH   8  11
ENDBRANCH   7   8
ENDBRANCH   1   7
BRANCH   6  13
ATOM     13  N   LIG d   1      -5.870  92.517 117.201  0.00  0.00    -0.311 N 
ATOM     14  C   LIG d   1      -6.429  91.348 116.893  0.00  0.00     0.210 C 
ATOM     15  C   LIG d   1      -5.703  90.550 115.806  0.00  0.00     0.109 C 
ATOM     16  O   LIG d   1      -7.476  90.912 117.394  0.00  0.00    -0.276 OA
ATOM     17  H   LIG d   1      -5.040  92.808 116.722  0.00  0.00     0.149 HD
ENDBRANCH   6  13
BRANCH   5  18
ATOM     18  N   LIG d   1      -8.657  93.768 117.152  0.00  0.00     0.381 N 
ATOM     19  H   LIG d   1      -9.286  94.454 116.785  0.00  0.00    -0.090 HD
ATOM     20  H   LIG d   1      -9.116  93.292 117.909  0.00  0.00    -0.090 HD
ATOM     21  H   LIG d   1      -8.413  93.116 116.440  0.00  0.00    -0.090 HD
ENDBRANCH   5  18
BRANCH   3  22
ATOM     22  C   LIG d   1      -6.981  97.254 119.977  0.00  0.00     0.382 C 
ATOM     23  O   LIG d   1      -6.282  97.632 120.948  0.00  0.00    -0.241 OA
ATOM     24  O   LIG d   1      -7.865  98.007 119.527  0.00  0.00    -0.241 OA
ENDBRANCH   3  22
TORSDOF 7
ENDMDL
MODEL 7
REMARK VINA RESULT:      -4.8     12.562     14.939
REMARK  7 active torsions:
REMARK  status: ('A' for Active; 'I' for Inactive)
REMARK    1  A    between atoms: C_2  and  C_3 
REMARK    2  A    between atoms: C_3  and  O_6 
REMARK    3  A    between atoms: C_3  and  C_4 
REMARK    4  A    between atoms: C_7  and  O_6 
REMARK    5  A    between atoms: C_9  and  C_10 
REMARK    6  A    between atoms: N_15  and  C_14 
REMARK    7  A    between atoms: N_20  and  C_19 
REMARK       I    between atoms: C_22  and  N_20 
ROOT
ATOM      1  C   LIG d   1      -6.943  79.120 117.878  0.00  0.00     0.161 C 
ATOM      2  C   LIG d   1      -8.194  78.574 118.210  0.00  0.00     0.016 C 
ATOM      3  C   LIG d   1      -8.578  77.253 117.885  0.00  0.00     0.038 C 
ATOM      4  C   LIG d   1      -7.673  76.332 117.335  0.00  0.00     0.028 C 
ATOM      5  C   LIG d   1      -6.560  76.988 116.524  0.00  0.00    -0.047 C 
ATOM      6  C   LIG d   1      -5.903  78.096 117.377  0.00  0.00     0.091 C 
ENDROOT
BRANCH   1   7
ATOM      7  O   LIG d   1      -6.419  79.858 119.000  0.00  0.00    -0.368 OA
BRANCH   7   8
ATOM      8  C   LIG d   1      -6.244  81.283 118.800  0.00  0.00     0.119 C 
BRANCH   8   9
ATOM      9  C   LIG d   1      -4.777  81.620 119.132  0.00  0.00     0.028 C 
ATOM     10  C   LIG d   1      -4.655  82.689 120.230  0.00  0.00     0.006 C 
ENDBRANCH   8   9
BRANCH   8  11
ATOM     11  C   LIG d   1      -7.081  82.092 119.795  0.00  0.00     0.028 C 
ATOM     12  C   LIG d   1      -8.247  82.837 119.125  0.00  0.00     0.006 C 
ENDBRANCH   8  11
ENDBRANCH   7   8
ENDBRANCH   1   7
BRANCH   6  13
ATOM     13  N   LIG d   1      -4.859  78.844 116.629  0.00  0.00    -0.311 N 
ATOM     14  C   LIG d   1      -3.576  78.867 116.985  0.00  0.00     0.210 C 
ATOM     15  C   LIG d   1      -2.671  79.716 116.087  0.00  0.00     0.109 C 
ATOM     16  O   LIG d   1      -3.096  78.239 117.940  0.00  0.00    -0.276 OA
ATOM     17  H   LIG d   1      -5.156  79.357 115.822  0.00  0.00     0.149 HD
ENDBRANCH   6  13
BRANCH   5  18
ATOM     18  N   LIG d   1      -5.615  75.927 116.126  0.00  0.00     0.381 N 
ATOM     19  H   LIG d   1      -5.099  76.218 115.320  0.00  0.00    -0.090 HD
ATOM     20  H   LIG d   1      -6.134  75.101 115.887  0.00  0.00    -0.090 HD
ATOM     21  H   LIG d   1      -4.989  75.729 116.876  0.00  0.00    -0.090 HD
ENDBRANCH   5  18
BRANCH   3  22
ATOM     22  C   LIG d   1      -9.892  76.852 118.073  0.00  0.00     0.382 C 
ATOM     23  O   LIG d   1     -10.303  75.787 117.553  0.00  0.00    -0.241 OA
ATOM     24  O   LIG d   1     -10.683  77.565 118.719  0.00  0.00    -0.241 OA
ENDBRANCH   3  22
TORSDOF 7
ENDMDL
MODEL 8
REMARK VINA RESULT:      -4.7      2.764      5.066
REMARK  7 active torsions:
REMARK  status: ('A' for Active; 'I' for Inactive)
REMARK    1  A    between atoms: C_2  and  C_3 
REMARK    2  A    between atoms: C_3  and  O_6 
REMARK    3  A    between atoms: C_3  and  C_4 
REMARK    4  A    between atoms: C_7  and  O_6 
REMARK    5  A    between atoms: C_9  and  C_10 
REMARK    6  A    between atoms: N_15  and  C_14 
REMARK    7  A    between atoms: N_20  and  C_19 
REMARK       I    between atoms: C_22  and  N_20 
ROOT
ATOM      1  C   LIG d   1      -3.547  93.053 117.870  0.00  0.00     0.161 C 
ATOM      2  C   LIG d   1      -4.945  92.949 117.786  0.00  0.00     0.016 C 
ATOM      3  C   LIG d   1      -5.633  91.715 117.738  0.00  0.00     0.038 C 
ATOM      4  C   LIG d   1      -4.972  90.491 117.925  0.00  0.00     0.028 C 
ATOM      5  C   LIG d   1      -3.506  90.524 117.507  0.00  0.00    -0.047 C 
ATOM      6  C   LIG d   1      -2.818  91.730 118.186  0.00  0.00     0.091 C 
ENDROOT
BRANCH   1   7
ATOM      7  O   LIG d   1      -3.189  94.065 118.832  0.00  0.00    -0.368 OA
BRANCH   7   8
ATOM      8  C   LIG d   1      -4.181  94.360 119.846  0.00  0.00     0.119 C 
BRANCH   8   9
ATOM      9  C   LIG d   1      -4.181  95.886 120.064  0.00  0.00     0.028 C 
ATOM     10  C   LIG d   1      -5.378  96.358 120.905  0.00  0.00     0.006 C 
ENDBRANCH   8   9
BRANCH   8  11
ATOM     11  C   LIG d   1      -3.791  93.757 121.199  0.00  0.00     0.028 C 
ATOM     12  C   LIG d   1      -4.528  92.443 121.500  0.00  0.00     0.006 C 
ENDBRANCH   8  11
ENDBRANCH   7   8
ENDBRANCH   1   7
BRANCH   6  13
ATOM     13  N   LIG d   1      -1.401  91.886 117.765  0.00  0.00    -0.311 N 
ATOM     14  C   LIG d   1      -0.381  91.305 118.395  0.00  0.00     0.210 C 
ATOM     15  C   LIG d   1       1.000  91.612 117.809  0.00  0.00     0.109 C 
ATOM     16  O   LIG d   1      -0.492  90.538 119.363  0.00  0.00    -0.276 OA
ATOM     17  H   LIG d   1      -1.223  92.466 116.969  0.00  0.00     0.149 HD
ENDBRANCH   6  13
BRANCH   5  18
ATOM     18  N   LIG d   1      -2.906  89.230 117.883  0.00  0.00     0.381 N 
ATOM     19  H   LIG d   1      -3.515  88.483 117.613  0.00  0.00    -0.090 HD
ATOM     20  H   LIG d   1      -2.795  89.201 118.881  0.00  0.00    -0.090 HD
ATOM     21  H   LIG d   1      -2.021  89.123 117.439  0.00  0.00    -0.090 HD
ENDBRANCH   5  18
BRANCH   3  22
ATOM     22  C   LIG d   1      -6.991  91.695 117.462  0.00  0.00     0.382 C 
ATOM     23  O   LIG d   1      -7.701  92.694 117.731  0.00  0.00    -0.241 OA
ATOM     24  O   LIG d   1      -7.524  90.674 116.988  0.00  0.00    -0.241 OA
ENDBRANCH   3  22
TORSDOF 7
ENDMDL
MODEL 9
REMARK VINA RESULT:      -4.6     27.670     30.272
REMARK  7 active torsions:
REMARK  status: ('A' for Active; 'I' for Inactive)
REMARK    1  A    between atoms: C_2  and  C_3 
REMARK    2  A    between atoms: C_3  and  O_6 
REMARK    3  A    between atoms: C_3  and  C_4 
REMARK    4  A    between atoms: C_7  and  O_6 
REMARK    5  A    between atoms: C_9  and  C_10 
REMARK    6  A    between atoms: N_15  and  C_14 
REMARK    7  A    between atoms: N_20  and  C_19 
REMARK       I    between atoms: C_22  and  N_20 
ROOT
ATOM      1  C   LIG d   1     -14.557  64.906 117.667  0.00  0.00     0.161 C 
ATOM      2  C   LIG d   1     -15.748  64.756 116.937  0.00  0.00     0.016 C 
ATOM      3  C   LIG d   1     -16.669  63.707 117.157  0.00  0.00     0.038 C 
ATOM      4  C   LIG d   1     -16.535  62.816 118.233  0.00  0.00     0.028 C 
ATOM      5  C   LIG d   1     -15.091  62.623 118.682  0.00  0.00    -0.047 C 
ATOM      6  C   LIG d   1     -14.449  64.009 118.918  0.00  0.00     0.091 C 
ENDROOT
BRANCH   1   7
ATOM      7  O   LIG d   1     -14.375  66.290 118.026  0.00  0.00    -0.368 OA
BRANCH   7   8
ATOM      8  C   LIG d   1     -15.447  66.897 118.788  0.00  0.00     0.119 C 
BRANCH   8   9
ATOM      9  C   LIG d   1     -15.780  68.247 118.124  0.00  0.00     0.028 C 
ATOM     10  C   LIG d   1     -15.062  68.432 116.777  0.00  0.00     0.006 C 
ENDBRANCH   8   9
BRANCH   8  11
ATOM     11  C   LIG d   1     -14.993  67.245 120.209  0.00  0.00     0.028 C 
ATOM     12  C   LIG d   1     -13.481  67.501 120.305  0.00  0.00     0.006 C 
ENDBRANCH   8  11
ENDBRANCH   7   8
ENDBRANCH   1   7
BRANCH   6  13
ATOM     13  N   LIG d   1     -13.010  63.913 119.279  0.00  0.00    -0.311 N 
ATOM     14  C   LIG d   1     -12.562  63.992 120.531  0.00  0.00     0.210 C 
ATOM     15  C   LIG d   1     -11.041  63.889 120.681  0.00  0.00     0.109 C 
ATOM     16  O   LIG d   1     -13.282  64.105 121.534  0.00  0.00    -0.276 OA
ATOM     17  H   LIG d   1     -12.359  63.789 118.529  0.00  0.00     0.149 HD
ENDBRANCH   6  13
BRANCH   5  18
ATOM     18  N   LIG d   1     -15.110  61.781 119.894  0.00  0.00     0.381 N 
ATOM     19  H   LIG d   1     -14.846  60.845 119.660  0.00  0.00    -0.090 HD
ATOM     20  H   LIG d   1     -16.045  61.762 120.261  0.00  0.00    -0.090 HD
ATOM     21  H   LIG d   1     -14.485  62.150 120.575  0.00  0.00    -0.090 HD
ENDBRANCH   5  18
BRANCH   3  22
ATOM     22  C   LIG d   1     -17.719  63.517 116.271  0.00  0.00     0.382 C 
ATOM     23  O   LIG d   1     -18.023  62.358 115.899  0.00  0.00    -0.241 OA
ATOM     24  O   LIG d   1     -18.337  64.492 115.805  0.00  0.00    -0.241 OA
ENDBRANCH   3  22
TORSDOF 7
ENDMDL
