MODEL 1
REMARK VINA RESULT:      -5.4      0.000      0.000
REMARK  7 active torsions:
REMARK  status: ('A' for Active; 'I' for Inactive)
REMARK    1  A    between atoms: C_2  and  C_3 
REMARK    2  A    between atoms: C_3  and  O_6 
REMARK    3  A    between atoms: C_3  and  C_4 
REMARK    4  A    between atoms: C_7  and  O_6 
REMARK    5  A    between atoms: C_9  and  C_10 
REMARK    6  A    between atoms: N_15  and  C_14 
REMARK    7  A    between atoms: N_20  and  C_19 
REMARK       I    between atoms: C_22  and  N_20 
ROOT
ATOM      1  C   LIG d   1      -4.361  92.504 118.500  0.00  0.00     0.161 C 
ATOM      2  C   LIG d   1      -5.663  93.022 118.598  0.00  0.00     0.016 C 
ATOM      3  C   LIG d   1      -6.752  92.539 117.837  0.00  0.00     0.038 C 
ATOM      4  C   LIG d   1      -6.644  91.397 117.030  0.00  0.00     0.028 C 
ATOM      5  C   LIG d   1      -5.230  91.150 116.515  0.00  0.00    -0.047 C 
ATOM      6  C   LIG d   1      -4.248  91.185 117.707  0.00  0.00     0.091 C 
ENDROOT
BRANCH   1   7
ATOM      7  O   LIG d   1      -3.796  92.347 119.817  0.00  0.00    -0.368 OA
BRANCH   7   8
ATOM      8  C   LIG d   1      -2.783  93.311 120.195  0.00  0.00     0.119 C 
BRANCH   8   9
ATOM      9  C   LIG d   1      -2.448  94.145 118.943  0.00  0.00     0.028 C 
ATOM     10  C   LIG d   1      -0.962  94.055 118.557  0.00  0.00     0.006 C 
ENDBRANCH   8   9
BRANCH   8  11
ATOM     11  C   LIG d   1      -1.473  92.618 120.582  0.00  0.00     0.028 C 
ATOM     12  C   LIG d   1      -1.684  91.180 121.081  0.00  0.00     0.006 C 
ENDBRANCH   8  11
ENDBRANCH   7   8
ENDBRANCH   1   7
BRANCH   6  13
ATOM     13  N   LIG d   1      -2.832  91.036 117.280  0.00  0.00    -0.311 N 
ATOM     14  C   LIG d   1      -2.065  90.005 117.631  0.00  0.00     0.210 C 
ATOM     15  C   LIG d   1      -0.630  90.057 117.099  0.00  0.00     0.109 C 
ATOM     16  O   LIG d   1      -2.446  89.037 118.305  0.00  0.00    -0.276 OA
ATOM     17  H   LIG d   1      -2.451  91.761 116.705  0.00  0.00     0.149 HD
ENDBRANCH   6  13
BRANCH   5  18
ATOM     18  N   LIG d   1      -5.234  89.857 115.805  0.00  0.00     0.381 N 
ATOM     19  H   LIG d   1      -4.294  89.569 115.622  0.00  0.00    -0.090 HD
ATOM     20  H   LIG d   1      -5.706  89.970 114.926  0.00  0.00    -0.090 HD
ATOM     21  H   LIG d   1      -5.699  89.168 116.354  0.00  0.00    -0.090 HD
ENDBRANCH   5  18
BRANCH   3  22
ATOM     22  C   LIG d   1      -7.956  93.227 117.848  0.00  0.00     0.382 C 
ATOM     23  O   LIG d   1      -8.604  93.339 118.916  0.00  0.00    -0.241 OA
ATOM     24  O   LIG d   1      -8.425  93.697 116.794  0.00  0.00    -0.241 OA
ENDBRANCH   3  22
TORSDOF 7
ENDMDL
MODEL 2
REMARK VINA RESULT:      -5.3      1.293      2.048
REMARK  7 active torsions:
REMARK  status: ('A' for Active; 'I' for Inactive)
REMARK    1  A    between atoms: C_2  and  C_3 
REMARK    2  A    between atoms: C_3  and  O_6 
REMARK    3  A    between atoms: C_3  and  C_4 
REMARK    4  A    between atoms: C_7  and  O_6 
REMARK    5  A    between atoms: C_9  and  C_10 
REMARK    6  A    between atoms: N_15  and  C_14 
REMARK    7  A    between atoms: N_20  and  C_19 
REMARK       I    between atoms: C_22  and  N_20 
ROOT
ATOM      1  C   LIG d   1      -4.486  92.603 118.568  0.00  0.00     0.161 C 
ATOM      2  C   LIG d   1      -5.772  93.160 118.657  0.00  0.00     0.016 C 
ATOM      3  C   LIG d   1      -6.880  92.680 117.922  0.00  0.00     0.038 C 
ATOM      4  C   LIG d   1      -6.810  91.507 117.156  0.00  0.00     0.028 C 
ATOM      5  C   LIG d   1      -5.408  91.204 116.639  0.00  0.00    -0.047 C 
ATOM      6  C   LIG d   1      -4.415  91.254 117.822  0.00  0.00     0.091 C 
ENDROOT
BRANCH   1   7
ATOM      7  O   LIG d   1      -3.915  92.478 119.885  0.00  0.00    -0.368 OA
BRANCH   7   8
ATOM      8  C   LIG d   1      -4.338  91.327 120.656  0.00  0.00     0.119 C 
BRANCH   8   9
ATOM      9  C   LIG d   1      -4.998  91.851 121.947  0.00  0.00     0.028 C 
ATOM     10  C   LIG d   1      -6.532  91.746 121.906  0.00  0.00     0.006 C 
ENDBRANCH   8   9
BRANCH   8  11
ATOM     11  C   LIG d   1      -3.138  90.497 121.123  0.00  0.00     0.028 C 
ATOM     12  C   LIG d   1      -1.794  91.199 120.871  0.00  0.00     0.006 C 
ENDBRANCH   8  11
ENDBRANCH   7   8
ENDBRANCH   1   7
BRANCH   6  13
ATOM     13  N   LIG d   1      -3.007  91.052 117.390  0.00  0.00    -0.311 N 
ATOM     14  C   LIG d   1      -2.384  89.877 117.451  0.00  0.00     0.210 C 
ATOM     15  C   LIG d   1      -0.928  89.892 116.974  0.00  0.00     0.109 C 
ATOM     16  O   LIG d   1      -2.907  88.816 117.824  0.00  0.00    -0.276 OA
ATOM     17  H   LIG d   1      -2.517  91.853 117.045  0.00  0.00     0.149 HD
ENDBRANCH   6  13
BRANCH   5  18
ATOM     18  N   LIG d   1      -5.452  89.887 115.976  0.00  0.00     0.381 N 
ATOM     19  H   LIG d   1      -5.765  89.994 115.032  0.00  0.00    -0.090 HD
ATOM     20  H   LIG d   1      -6.108  89.301 116.461  0.00  0.00    -0.090 HD
ATOM     21  H   LIG d   1      -4.548  89.469 115.989  0.00  0.00    -0.090 HD
ENDBRANCH   5  18
BRANCH   3  22
ATOM     22  C   LIG d   1      -8.066  93.400 117.917  0.00  0.00     0.382 C 
ATOM     23  O   LIG d   1      -8.724  93.531 118.977  0.00  0.00    -0.241 OA
ATOM     24  O   LIG d   1      -8.508  93.882 116.857  0.00  0.00    -0.241 OA
ENDBRANCH   3  22
TORSDOF 7
ENDMDL
MODEL 3
REMARK VINA RESULT:      -5.1      2.772      4.541
REMARK  7 active torsions:
REMARK  status: ('A' for Active; 'I' for Inactive)
REMARK    1  A    between atoms: C_2  and  C_3 
REMARK    2  A    between atoms: C_3  and  O_6 
REMARK    3  A    between atoms: C_3  and  C_4 
REMARK    4  A    between atoms: C_7  and  O_6 
REMARK    5  A    between atoms: C_9  and  C_10 
REMARK    6  A    between atoms: N_15  and  C_14 
REMARK    7  A    between atoms: N_20  and  C_19 
REMARK       I    between atoms: C_22  and  N_20 
ROOT
ATOM      1  C   LIG d   1      -5.298  91.836 119.261  0.00  0.00     0.161 C 
ATOM      2  C   LIG d   1      -5.400  90.891 118.226  0.00  0.00     0.016 C 
ATOM      3  C   LIG d   1      -6.242  91.057 117.102  0.00  0.00     0.038 C 
ATOM      4  C   LIG d   1      -6.930  92.255 116.861  0.00  0.00     0.028 C 
ATOM      5  C   LIG d   1      -7.251  93.036 118.131  0.00  0.00    -0.047 C 
ATOM      6  C   LIG d   1      -5.956  93.199 118.960  0.00  0.00     0.091 C 
ENDROOT
BRANCH   1   7
ATOM      7  O   LIG d   1      -3.914  92.016 119.622  0.00  0.00    -0.368 OA
BRANCH   7   8
ATOM      8  C   LIG d   1      -2.946  91.798 118.567  0.00  0.00     0.119 C 
BRANCH   8   9
ATOM      9  C   LIG d   1      -1.771  91.007 119.174  0.00  0.00     0.028 C 
ATOM     10  C   LIG d   1      -2.115  89.526 119.403  0.00  0.00     0.006 C 
ENDBRANCH   8   9
BRANCH   8  11
ATOM     11  C   LIG d   1      -2.340  93.119 118.084  0.00  0.00     0.028 C 
ATOM     12  C   LIG d   1      -2.421  94.233 119.140  0.00  0.00     0.006 C 
ENDBRANCH   8  11
ENDBRANCH   7   8
ENDBRANCH   1   7
BRANCH   6  13
ATOM     13  N   LIG d   1      -6.197  93.878 120.260  0.00  0.00    -0.311 N 
ATOM     14  C   LIG d   1      -6.030  95.186 120.445  0.00  0.00     0.210 C 
ATOM     15  C   LIG d   1      -6.314  95.679 121.867  0.00  0.00     0.109 C 
ATOM     16  O   LIG d   1      -5.705  95.990 119.559  0.00  0.00    -0.276 OA
ATOM     17  H   LIG d   1      -6.494  93.306 121.026  0.00  0.00     0.149 HD
ENDBRANCH   6  13
BRANCH   5  18
ATOM     18  N   LIG d   1      -7.843  94.324 117.725  0.00  0.00     0.381 N 
ATOM     19  H   LIG d   1      -8.724  94.451 118.182  0.00  0.00    -0.090 HD
ATOM     20  H   LIG d   1      -8.002  94.311 116.733  0.00  0.00    -0.090 HD
ATOM     21  H   LIG d   1      -7.228  95.072 117.960  0.00  0.00    -0.090 HD
ENDBRANCH   5  18
BRANCH   3  22
ATOM     22  C   LIG d   1      -6.434  90.000 116.225  0.00  0.00     0.382 C 
ATOM     23  O   LIG d   1      -7.595  89.670 115.885  0.00  0.00    -0.241 OA
ATOM     24  O   LIG d   1      -5.462  89.343 115.806  0.00  0.00    -0.241 OA
ENDBRANCH   3  22
TORSDOF 7
ENDMDL
MODEL 4
REMARK VINA RESULT:      -4.9      2.202      4.196
REMARK  7 active torsions:
REMARK  status: ('A' for Active; 'I' for Inactive)
REMARK    1  A    between atoms: C_2  and  C_3 
REMARK    2  A    between atoms: C_3  and  O_6 
REMARK    3  A    between atoms: C_3  and  C_4 
REMARK    4  A    between atoms: C_7  and  O_6 
REMARK    5  A    between atoms: C_9  and  C_10 
REMARK    6  A    between atoms: N_15  and  C_14 
REMARK    7  A    between atoms: N_20  and  C_19 
REMARK       I    between atoms: C_22  and  N_20 
ROOT
ATOM      1  C   LIG d   1      -4.987  92.366 118.659  0.00  0.00     0.161 C 
ATOM      2  C   LIG d   1      -6.304  92.845 118.552  0.00  0.00     0.016 C 
ATOM      3  C   LIG d   1      -6.732  94.074 119.104  0.00  0.00     0.038 C 
ATOM      4  C   LIG d   1      -5.830  94.984 119.675  0.00  0.00     0.028 C 
ATOM      5  C   LIG d   1      -4.585  94.321 120.253  0.00  0.00    -0.047 C 
ATOM      6  C   LIG d   1      -3.965  93.396 119.181  0.00  0.00     0.091 C 
ENDROOT
BRANCH   1   7
ATOM      7  O   LIG d   1      -4.557  91.831 117.391  0.00  0.00    -0.368 OA
BRANCH   7   8
ATOM      8  C   LIG d   1      -4.746  90.407 117.203  0.00  0.00     0.119 C 
BRANCH   8   9
ATOM      9  C   LIG d   1      -3.355  89.745 117.256  0.00  0.00     0.028 C 
ATOM     10  C   LIG d   1      -3.033  89.166 118.644  0.00  0.00     0.006 C 
ENDBRANCH   8   9
BRANCH   8  11
ATOM     11  C   LIG d   1      -5.289  90.097 115.805  0.00  0.00     0.028 C 
ATOM     12  C   LIG d   1      -6.782  89.730 115.814  0.00  0.00     0.006 C 
ENDBRANCH   8  11
ENDBRANCH   7   8
ENDBRANCH   1   7
BRANCH   6  13
ATOM     13  N   LIG d   1      -2.789  92.644 119.693  0.00  0.00    -0.311 N 
ATOM     14  C   LIG d   1      -1.615  92.604 119.065  0.00  0.00     0.210 C 
ATOM     15  C   LIG d   1      -0.543  91.753 119.754  0.00  0.00     0.109 C 
ATOM     16  O   LIG d   1      -1.350  93.217 118.020  0.00  0.00    -0.276 OA
ATOM     17  H   LIG d   1      -2.907  92.143 120.551  0.00  0.00     0.149 HD
ENDBRANCH   6  13
BRANCH   5  18
ATOM     18  N   LIG d   1      -3.671  95.394 120.690  0.00  0.00     0.381 N 
ATOM     19  H   LIG d   1      -3.622  95.411 121.689  0.00  0.00    -0.090 HD
ATOM     20  H   LIG d   1      -4.033  96.277 120.376  0.00  0.00    -0.090 HD
ATOM     21  H   LIG d   1      -2.763  95.245 120.308  0.00  0.00    -0.090 HD
ENDBRANCH   5  18
BRANCH   3  22
ATOM     22  C   LIG d   1      -8.083  94.384 119.124  0.00  0.00     0.382 C 
ATOM     23  O   LIG d   1      -8.451  95.568 119.321  0.00  0.00    -0.241 OA
ATOM     24  O   LIG d   1      -8.939  93.489 118.992  0.00  0.00    -0.241 OA
ENDBRANCH   3  22
TORSDOF 7
ENDMDL
MODEL 5
REMARK VINA RESULT:      -4.7     10.189     12.547
REMARK  7 active torsions:
REMARK  status: ('A' for Active; 'I' for Inactive)
REMARK    1  A    between atoms: C_2  and  C_3 
REMARK    2  A    between atoms: C_3  and  O_6 
REMARK    3  A    between atoms: C_3  and  C_4 
REMARK    4  A    between atoms: C_7  and  O_6 
REMARK    5  A    between atoms: C_9  and  C_10 
REMARK    6  A    between atoms: N_15  and  C_14 
REMARK    7  A    between atoms: N_20  and  C_19 
REMARK       I    between atoms: C_22  and  N_20 
ROOT
ATOM      1  C   LIG d   1      -7.117  81.894 117.922  0.00  0.00     0.161 C 
ATOM      2  C   LIG d   1      -5.895  81.579 117.305  0.00  0.00     0.016 C 
ATOM      3  C   LIG d   1      -4.647  81.655 117.965  0.00  0.00     0.038 C 
ATOM      4  C   LIG d   1      -4.551  81.909 119.341  0.00  0.00     0.028 C 
ATOM      5  C   LIG d   1      -5.715  82.727 119.889  0.00  0.00    -0.047 C 
ATOM      6  C   LIG d   1      -7.043  82.065 119.454  0.00  0.00     0.091 C 
ENDROOT
BRANCH   1   7
ATOM      7  O   LIG d   1      -8.108  80.907 117.575  0.00  0.00    -0.368 OA
BRANCH   7   8
ATOM      8  C   LIG d   1      -8.297  79.831 118.528  0.00  0.00     0.119 C 
BRANCH   8   9
ATOM      9  C   LIG d   1      -7.473  78.626 118.033  0.00  0.00     0.028 C 
ATOM     10  C   LIG d   1      -8.308  77.336 117.960  0.00  0.00     0.006 C 
ENDBRANCH   8   9
BRANCH   8  11
ATOM     11  C   LIG d   1      -9.750  79.350 118.544  0.00  0.00     0.028 C 
ATOM     12  C   LIG d   1     -10.475  79.688 119.857  0.00  0.00     0.006 C 
ENDBRANCH   8  11
ENDBRANCH   7   8
ENDBRANCH   1   7
BRANCH   6  13
ATOM     13  N   LIG d   1      -8.232  82.849 119.877  0.00  0.00    -0.311 N 
ATOM     14  C   LIG d   1      -8.856  82.665 121.039  0.00  0.00     0.210 C 
ATOM     15  C   LIG d   1     -10.074  83.565 121.270  0.00  0.00     0.109 C 
ATOM     16  O   LIG d   1      -8.497  81.864 121.915  0.00  0.00    -0.276 OA
ATOM     17  H   LIG d   1      -8.572  83.542 119.239  0.00  0.00     0.149 HD
ENDBRANCH   6  13
BRANCH   5  18
ATOM     18  N   LIG d   1      -5.559  82.799 121.354  0.00  0.00     0.381 N 
ATOM     19  H   LIG d   1      -4.714  82.337 121.628  0.00  0.00    -0.090 HD
ATOM     20  H   LIG d   1      -6.332  82.325 121.788  0.00  0.00    -0.090 HD
ATOM     21  H   LIG d   1      -5.536  83.750 121.649  0.00  0.00    -0.090 HD
ENDBRANCH   5  18
BRANCH   3  22
ATOM     22  C   LIG d   1      -3.475  81.516 117.238  0.00  0.00     0.382 C 
ATOM     23  O   LIG d   1      -3.504  80.996 116.096  0.00  0.00    -0.241 OA
ATOM     24  O   LIG d   1      -2.383  81.863 117.726  0.00  0.00    -0.241 OA
ENDBRANCH   3  22
TORSDOF 7
ENDMDL
MODEL 6
REMARK VINA RESULT:      -4.7      2.719      5.089
REMARK  7 active torsions:
REMARK  status: ('A' for Active; 'I' for Inactive)
REMARK    1  A    between atoms: C_2  and  C_3 
REMARK    2  A    between atoms: C_3  and  O_6 
REMARK    3  A    between atoms: C_3  and  C_4 
REMARK    4  A    between atoms: C_7  and  O_6 
REMARK    5  A    between atoms: C_9  and  C_10 
REMARK    6  A    between atoms: N_15  and  C_14 
REMARK    7  A    between atoms: N_20  and  C_19 
REMARK       I    between atoms: C_22  and  N_20 
ROOT
ATOM      1  C   LIG d   1      -5.482  92.829 119.904  0.00  0.00     0.161 C 
ATOM      2  C   LIG d   1      -4.861  91.770 119.220  0.00  0.00     0.016 C 
ATOM      3  C   LIG d   1      -5.263  91.329 117.939  0.00  0.00     0.038 C 
ATOM      4  C   LIG d   1      -6.223  92.019 117.184  0.00  0.00     0.028 C 
ATOM      5  C   LIG d   1      -7.228  92.786 118.038  0.00  0.00    -0.047 C 
ATOM      6  C   LIG d   1      -6.458  93.665 119.050  0.00  0.00     0.091 C 
ENDROOT
BRANCH   1   7
ATOM      7  O   LIG d   1      -4.483  93.679 120.499  0.00  0.00    -0.368 OA
BRANCH   7   8
ATOM      8  C   LIG d   1      -3.896  94.679 119.630  0.00  0.00     0.119 C 
BRANCH   8   9
ATOM      9  C   LIG d   1      -2.404  94.332 119.466  0.00  0.00     0.028 C 
ATOM     10  C   LIG d   1      -2.064  93.865 118.040  0.00  0.00     0.006 C 
ENDBRANCH   8   9
BRANCH   8  11
ATOM     11  C   LIG d   1      -3.920  96.066 120.281  0.00  0.00     0.028 C 
ATOM     12  C   LIG d   1      -4.401  97.166 119.321  0.00  0.00     0.006 C 
ENDBRANCH   8  11
ENDBRANCH   7   8
ENDBRANCH   1   7
BRANCH   6  13
ATOM     13  N   LIG d   1      -7.366  94.385 119.980  0.00  0.00    -0.311 N 
ATOM     14  C   LIG d   1      -7.900  95.575 119.710  0.00  0.00     0.210 C 
ATOM     15  C   LIG d   1      -8.792  96.150 120.815  0.00  0.00     0.109 C 
ATOM     16  O   LIG d   1      -7.745  96.195 118.647  0.00  0.00    -0.276 OA
ATOM     17  H   LIG d   1      -7.571  93.940 120.854  0.00  0.00     0.149 HD
ENDBRANCH   6  13
BRANCH   5  18
ATOM     18  N   LIG d   1      -8.083  93.568 117.125  0.00  0.00     0.381 N 
ATOM     19  H   LIG d   1      -8.035  93.183 116.203  0.00  0.00    -0.090 HD
ATOM     20  H   LIG d   1      -7.743  94.513 117.091  0.00  0.00    -0.090 HD
ATOM     21  H   LIG d   1      -9.025  93.558 117.449  0.00  0.00    -0.090 HD
ENDBRANCH   5  18
BRANCH   3  22
ATOM     22  C   LIG d   1      -4.730  90.160 117.416  0.00  0.00     0.382 C 
ATOM     23  O   LIG d   1      -3.928  89.477 118.097  0.00  0.00    -0.241 OA
ATOM     24  O   LIG d   1      -5.007  89.804 116.255  0.00  0.00    -0.241 OA
ENDBRANCH   3  22
TORSDOF 7
ENDMDL
MODEL 7
REMARK VINA RESULT:      -4.5     10.713     12.427
REMARK  7 active torsions:
REMARK  status: ('A' for Active; 'I' for Inactive)
REMARK    1  A    between atoms: C_2  and  C_3 
REMARK    2  A    between atoms: C_3  and  O_6 
REMARK    3  A    between atoms: C_3  and  C_4 
REMARK    4  A    between atoms: C_7  and  O_6 
REMARK    5  A    between atoms: C_9  and  C_10 
REMARK    6  A    between atoms: N_15  and  C_14 
REMARK    7  A    between atoms: N_20  and  C_19 
REMARK       I    between atoms: C_22  and  N_20 
ROOT
ATOM      1  C   LIG d   1      -6.765  80.501 118.499  0.00  0.00     0.161 C 
ATOM      2  C   LIG d   1      -7.467  79.321 118.199  0.00  0.00     0.016 C 
ATOM      3  C   LIG d   1      -8.872  79.202 118.309  0.00  0.00     0.038 C 
ATOM      4  C   LIG d   1      -9.690  80.307 118.585  0.00  0.00     0.028 C 
ATOM      5  C   LIG d   1      -8.987  81.396 119.389  0.00  0.00    -0.047 C 
ATOM      6  C   LIG d   1      -7.652  81.749 118.695  0.00  0.00     0.091 C 
ENDROOT
BRANCH   1   7
ATOM      7  O   LIG d   1      -5.769  80.748 117.488  0.00  0.00    -0.368 OA
BRANCH   7   8
ATOM      8  C   LIG d   1      -4.416  80.343 117.814  0.00  0.00     0.119 C 
BRANCH   8   9
ATOM      9  C   LIG d   1      -3.558  81.621 117.894  0.00  0.00     0.028 C 
ATOM     10  C   LIG d   1      -3.007  81.870 119.309  0.00  0.00     0.006 C 
ENDBRANCH   8   9
BRANCH   8  11
ATOM     11  C   LIG d   1      -3.797  79.509 116.689  0.00  0.00     0.028 C 
ATOM     12  C   LIG d   1      -3.519  78.057 117.108  0.00  0.00     0.006 C 
ENDBRANCH   8  11
ENDBRANCH   7   8
ENDBRANCH   1   7
BRANCH   6  13
ATOM     13  N   LIG d   1      -6.861  82.746 119.462  0.00  0.00    -0.311 N 
ATOM     14  C   LIG d   1      -6.460  82.556 120.718  0.00  0.00     0.210 C 
ATOM     15  C   LIG d   1      -5.674  83.719 121.329  0.00  0.00     0.109 C 
ATOM     16  O   LIG d   1      -6.654  81.520 121.372  0.00  0.00    -0.276 OA
ATOM     17  H   LIG d   1      -6.633  83.603 118.996  0.00  0.00     0.149 HD
ENDBRANCH   6  13
BRANCH   5  18
ATOM     18  N   LIG d   1      -9.909  82.543 119.486  0.00  0.00     0.381 N 
ATOM     19  H   LIG d   1      -9.697  83.080 120.302  0.00  0.00    -0.090 HD
ATOM     20  H   LIG d   1     -10.849  82.199 119.571  0.00  0.00    -0.090 HD
ATOM     21  H   LIG d   1      -9.829  83.115 118.673  0.00  0.00    -0.090 HD
ENDBRANCH   5  18
BRANCH   3  22
ATOM     22  C   LIG d   1      -9.467  77.956 118.181  0.00  0.00     0.382 C 
ATOM     23  O   LIG d   1      -8.785  76.970 117.814  0.00  0.00    -0.241 OA
ATOM     24  O   LIG d   1     -10.688  77.816 118.386  0.00  0.00    -0.241 OA
ENDBRANCH   3  22
TORSDOF 7
ENDMDL
MODEL 8
REMARK VINA RESULT:      -4.5      2.233      4.109
REMARK  7 active torsions:
REMARK  status: ('A' for Active; 'I' for Inactive)
REMARK    1  A    between atoms: C_2  and  C_3 
REMARK    2  A    between atoms: C_3  and  O_6 
REMARK    3  A    between atoms: C_3  and  C_4 
REMARK    4  A    between atoms: C_7  and  O_6 
REMARK    5  A    between atoms: C_9  and  C_10 
REMARK    6  A    between atoms: N_15  and  C_14 
REMARK    7  A    between atoms: N_20  and  C_19 
REMARK       I    between atoms: C_22  and  N_20 
ROOT
ATOM      1  C   LIG d   1      -5.417  92.104 119.712  0.00  0.00     0.161 C 
ATOM      2  C   LIG d   1      -6.756  92.506 119.852  0.00  0.00     0.016 C 
ATOM      3  C   LIG d   1      -7.174  93.856 119.800  0.00  0.00     0.038 C 
ATOM      4  C   LIG d   1      -6.294  94.891 119.450  0.00  0.00     0.028 C 
ATOM      5  C   LIG d   1      -4.839  94.592 119.796  0.00  0.00    -0.047 C 
ATOM      6  C   LIG d   1      -4.459  93.209 119.219  0.00  0.00     0.091 C 
ENDROOT
BRANCH   1   7
ATOM      7  O   LIG d   1      -5.341  90.953 118.848  0.00  0.00    -0.368 OA
BRANCH   7   8
ATOM      8  C   LIG d   1      -5.111  91.224 117.443  0.00  0.00     0.119 C 
BRANCH   8   9
ATOM      9  C   LIG d   1      -6.468  91.110 116.722  0.00  0.00     0.028 C 
ATOM     10  C   LIG d   1      -6.596  89.808 115.914  0.00  0.00     0.006 C 
ENDBRANCH   8   9
BRANCH   8  11
ATOM     11  C   LIG d   1      -4.223  90.151 116.807  0.00  0.00     0.028 C 
ATOM     12  C   LIG d   1      -3.167  89.599 117.778  0.00  0.00     0.006 C 
ENDBRANCH   8  11
ENDBRANCH   7   8
ENDBRANCH   1   7
BRANCH   6  13
ATOM     13  N   LIG d   1      -3.078  92.802 119.584  0.00  0.00    -0.311 N 
ATOM     14  C   LIG d   1      -2.020  93.015 118.804  0.00  0.00     0.210 C 
ATOM     15  C   LIG d   1      -0.690  92.499 119.361  0.00  0.00     0.109 C 
ATOM     16  O   LIG d   1      -2.052  93.612 117.717  0.00  0.00    -0.276 OA
ATOM     17  H   LIG d   1      -2.956  92.339 120.464  0.00  0.00     0.149 HD
ENDBRANCH   6  13
BRANCH   5  18
ATOM     18  N   LIG d   1      -4.017  95.690 119.254  0.00  0.00     0.381 N 
ATOM     19  H   LIG d   1      -4.610  96.409 118.891  0.00  0.00    -0.090 HD
ATOM     20  H   LIG d   1      -3.455  95.334 118.501  0.00  0.00    -0.090 HD
ATOM     21  H   LIG d   1      -3.431  96.062 119.969  0.00  0.00    -0.090 HD
ENDBRANCH   5  18
BRANCH   3  22
ATOM     22  C   LIG d   1      -8.477  94.186 120.138  0.00  0.00     0.382 C 
ATOM     23  O   LIG d   1      -9.435  93.550 119.636  0.00  0.00    -0.241 OA
ATOM     24  O   LIG d   1      -8.708  95.139 120.905  0.00  0.00    -0.241 OA
ENDBRANCH   3  22
TORSDOF 7
ENDMDL
MODEL 9
REMARK VINA RESULT:      -4.5      2.437      4.077
REMARK  7 active torsions:
REMARK  status: ('A' for Active; 'I' for Inactive)
REMARK    1  A    between atoms: C_2  and  C_3 
REMARK    2  A    between atoms: C_3  and  O_6 
REMARK    3  A    between atoms: C_3  and  C_4 
REMARK    4  A    between atoms: C_7  and  O_6 
REMARK    5  A    between atoms: C_9  and  C_10 
REMARK    6  A    between atoms: N_15  and  C_14 
REMARK    7  A    between atoms: N_20  and  C_19 
REMARK       I    between atoms: C_22  and  N_20 
ROOT
ATOM      1  C   LIG d   1      -3.306  91.592 118.389  0.00  0.00     0.161 C 
ATOM      2  C   LIG d   1      -4.108  90.780 117.571  0.00  0.00     0.016 C 
ATOM      3  C   LIG d   1      -5.465  91.059 117.288  0.00  0.00     0.038 C 
ATOM      4  C   LIG d   1      -6.073  92.259 117.685  0.00  0.00     0.028 C 
ATOM      5  C   LIG d   1      -5.451  92.869 118.936  0.00  0.00    -0.047 C 
ATOM      6  C   LIG d   1      -3.920  92.964 118.740  0.00  0.00     0.091 C 
ENDROOT
BRANCH   1   7
ATOM      7  O   LIG d   1      -2.009  91.765 117.785  0.00  0.00    -0.368 OA
BRANCH   7   8
ATOM      8  C   LIG d   1      -1.016  90.761 118.110  0.00  0.00     0.119 C 
BRANCH   8   9
ATOM      9  C   LIG d   1      -0.129  91.333 119.233  0.00  0.00     0.028 C 
ATOM     10  C   LIG d   1       0.500  92.684 118.853  0.00  0.00     0.006 C 
ENDBRANCH   8   9
BRANCH   8  11
ATOM     11  C   LIG d   1      -0.069  90.512 116.933  0.00  0.00     0.028 C 
ATOM     12  C   LIG d   1       0.206  89.019 116.694  0.00  0.00     0.006 C 
ENDBRANCH   8  11
ENDBRANCH   7   8
ENDBRANCH   1   7
BRANCH   6  13
ATOM     13  N   LIG d   1      -3.224  93.472 119.951  0.00  0.00    -0.311 N 
ATOM     14  C   LIG d   1      -2.520  94.602 119.971  0.00  0.00     0.210 C 
ATOM     15  C   LIG d   1      -1.866  94.932 121.316  0.00  0.00     0.109 C 
ATOM     16  O   LIG d   1      -2.401  95.379 119.011  0.00  0.00    -0.276 OA
ATOM     17  H   LIG d   1      -3.294  92.920 120.783  0.00  0.00     0.149 HD
ENDBRANCH   6  13
BRANCH   5  18
ATOM     18  N   LIG d   1      -6.087  94.181 119.157  0.00  0.00     0.381 N 
ATOM     19  H   LIG d   1      -6.091  94.396 120.134  0.00  0.00    -0.090 HD
ATOM     20  H   LIG d   1      -7.040  94.138 118.840  0.00  0.00    -0.090 HD
ATOM     21  H   LIG d   1      -5.595  94.888 118.655  0.00  0.00    -0.090 HD
ENDBRANCH   5  18
BRANCH   3  22
ATOM     22  C   LIG d   1      -6.239  90.113 116.634  0.00  0.00     0.382 C 
ATOM     23  O   LIG d   1      -5.709  89.327 115.813  0.00  0.00    -0.241 OA
ATOM     24  O   LIG d   1      -7.470  90.064 116.822  0.00  0.00    -0.241 OA
ENDBRANCH   3  22
TORSDOF 7
ENDMDL
