MODEL 1
REMARK VINA RESULT:      -5.6      0.000      0.000
REMARK  7 active torsions:
REMARK  status: ('A' for Active; 'I' for Inactive)
REMARK    1  A    between atoms: C_2  and  C_3 
REMARK    2  A    between atoms: C_3  and  O_6 
REMARK    3  A    between atoms: C_3  and  C_4 
REMARK    4  A    between atoms: C_7  and  O_6 
REMARK    5  A    between atoms: C_9  and  C_10 
REMARK    6  A    between atoms: N_15  and  C_14 
REMARK    7  A    between atoms: N_20  and  C_19 
REMARK       I    between atoms: C_22  and  N_20 
ROOT
ATOM      1  C   LIG d   1      -6.516  79.554 117.677  0.00  0.00     0.161 C 
ATOM      2  C   LIG d   1      -7.846  79.170 117.916  0.00  0.00     0.016 C 
ATOM      3  C   LIG d   1      -8.863  80.078 118.292  0.00  0.00     0.038 C 
ATOM      4  C   LIG d   1      -8.650  81.464 118.307  0.00  0.00     0.028 C 
ATOM      5  C   LIG d   1      -7.197  81.851 118.564  0.00  0.00    -0.047 C 
ATOM      6  C   LIG d   1      -6.290  81.077 117.580  0.00  0.00     0.091 C 
ENDROOT
BRANCH   1   7
ATOM      7  O   LIG d   1      -6.024  78.898 116.491  0.00  0.00    -0.368 OA
BRANCH   7   8
ATOM      8  C   LIG d   1      -5.512  77.555 116.672  0.00  0.00     0.119 C 
BRANCH   8   9
ATOM      9  C   LIG d   1      -4.065  77.536 116.141  0.00  0.00     0.028 C 
ATOM     10  C   LIG d   1      -3.071  78.175 117.125  0.00  0.00     0.006 C 
ENDBRANCH   8   9
BRANCH   8  11
ATOM     11  C   LIG d   1      -6.274  76.547 115.807  0.00  0.00     0.028 C 
ATOM     12  C   LIG d   1      -7.372  75.805 116.584  0.00  0.00     0.006 C 
ENDBRANCH   8  11
ENDBRANCH   7   8
ENDBRANCH   1   7
BRANCH   6  13
ATOM     13  N   LIG d   1      -4.846  81.333 117.819  0.00  0.00    -0.311 N 
ATOM     14  C   LIG d   1      -4.051  81.930 116.933  0.00  0.00     0.210 C 
ATOM     15  C   LIG d   1      -2.590  82.078 117.371  0.00  0.00     0.109 C 
ATOM     16  O   LIG d   1      -4.423  82.380 115.839  0.00  0.00    -0.276 OA
ATOM     17  H   LIG d   1      -4.467  81.028 118.695  0.00  0.00     0.149 HD
ENDBRANCH   6  13
BRANCH   5  18
ATOM     18  N   LIG d   1      -7.093  83.315 118.417  0.00  0.00     0.381 N 
ATOM     19  H   LIG d   1      -6.644  83.537 117.550  0.00  0.00    -0.090 HD
ATOM     20  H   LIG d   1      -6.529  83.678 119.165  0.00  0.00    -0.090 HD
ATOM     21  H   LIG d   1      -8.000  83.726 118.444  0.00  0.00    -0.090 HD
ENDBRANCH   5  18
BRANCH   3  22
ATOM     22  C   LIG d   1     -10.099  79.597 118.696  0.00  0.00     0.382 C 
ATOM     23  O   LIG d   1     -10.682  78.718 118.018  0.00  0.00    -0.241 OA
ATOM     24  O   LIG d   1     -10.658  80.063 119.707  0.00  0.00    -0.241 OA
ENDBRANCH   3  22
TORSDOF 7
ENDMDL
MODEL 2
REMARK VINA RESULT:      -5.3      2.220      4.580
REMARK  7 active torsions:
REMARK  status: ('A' for Active; 'I' for Inactive)
REMARK    1  A    between atoms: C_2  and  C_3 
REMARK    2  A    between atoms: C_3  and  O_6 
REMARK    3  A    between atoms: C_3  and  C_4 
REMARK    4  A    between atoms: C_7  and  O_6 
REMARK    5  A    between atoms: C_9  and  C_10 
REMARK    6  A    between atoms: N_15  and  C_14 
REMARK    7  A    between atoms: N_20  and  C_19 
REMARK       I    between atoms: C_22  and  N_20 
ROOT
ATOM      1  C   LIG d   1      -7.024  80.649 117.858  0.00  0.00     0.161 C 
ATOM      2  C   LIG d   1      -6.963  79.350 117.327  0.00  0.00     0.016 C 
ATOM      3  C   LIG d   1      -8.032  78.428 117.403  0.00  0.00     0.038 C 
ATOM      4  C   LIG d   1      -9.297  78.797 117.885  0.00  0.00     0.028 C 
ATOM      5  C   LIG d   1      -9.251  79.942 118.891  0.00  0.00    -0.047 C 
ATOM      6  C   LIG d   1      -8.433  81.107 118.289  0.00  0.00     0.091 C 
ENDROOT
BRANCH   1   7
ATOM      7  O   LIG d   1      -6.458  81.587 116.921  0.00  0.00    -0.368 OA
BRANCH   7   8
ATOM      8  C   LIG d   1      -5.209  82.207 117.315  0.00  0.00     0.119 C 
BRANCH   8   9
ATOM      9  C   LIG d   1      -4.083  81.534 116.508  0.00  0.00     0.028 C 
ATOM     10  C   LIG d   1      -2.686  82.023 116.929  0.00  0.00     0.006 C 
ENDBRANCH   8   9
BRANCH   8  11
ATOM     11  C   LIG d   1      -4.884  81.919 118.784  0.00  0.00     0.028 C 
ATOM     12  C   LIG d   1      -4.868  83.188 119.651  0.00  0.00     0.006 C 
ENDBRANCH   8  11
ENDBRANCH   7   8
ENDBRANCH   1   7
BRANCH   6  13
ATOM     13  N   LIG d   1      -8.268  82.236 119.241  0.00  0.00    -0.311 N 
ATOM     14  C   LIG d   1      -9.050  83.314 119.242  0.00  0.00     0.210 C 
ATOM     15  C   LIG d   1      -8.695  84.369 120.295  0.00  0.00     0.109 C 
ATOM     16  O   LIG d   1     -10.024  83.482 118.493  0.00  0.00    -0.276 OA
ATOM     17  H   LIG d   1      -7.521  82.168 119.904  0.00  0.00     0.149 HD
ENDBRANCH   6  13
BRANCH   5  18
ATOM     18  N   LIG d   1     -10.643  80.315 119.206  0.00  0.00     0.381 N 
ATOM     19  H   LIG d   1     -10.658  81.188 119.694  0.00  0.00    -0.090 HD
ATOM     20  H   LIG d   1     -11.041  79.612 119.804  0.00  0.00    -0.090 HD
ATOM     21  H   LIG d   1     -11.175  80.386 118.366  0.00  0.00    -0.090 HD
ENDBRANCH   5  18
BRANCH   3  22
ATOM     22  C   LIG d   1      -7.829  77.108 117.030  0.00  0.00     0.382 C 
ATOM     23  O   LIG d   1      -6.662  76.662 116.915  0.00  0.00    -0.241 OA
ATOM     24  O   LIG d   1      -8.797  76.370 116.765  0.00  0.00    -0.241 OA
ENDBRANCH   3  22
TORSDOF 7
ENDMDL
MODEL 3
REMARK VINA RESULT:      -4.7      4.060      6.356
REMARK  7 active torsions:
REMARK  status: ('A' for Active; 'I' for Inactive)
REMARK    1  A    between atoms: C_2  and  C_3 
REMARK    2  A    between atoms: C_3  and  O_6 
REMARK    3  A    between atoms: C_3  and  C_4 
REMARK    4  A    between atoms: C_7  and  O_6 
REMARK    5  A    between atoms: C_9  and  C_10 
REMARK    6  A    between atoms: N_15  and  C_14 
REMARK    7  A    between atoms: N_20  and  C_19 
REMARK       I    between atoms: C_22  and  N_20 
ROOT
ATOM      1  C   LIG d   1      -8.001  83.397 119.913  0.00  0.00     0.161 C 
ATOM      2  C   LIG d   1      -7.643  84.599 120.547  0.00  0.00     0.016 C 
ATOM      3  C   LIG d   1      -8.374  85.161 121.620  0.00  0.00     0.038 C 
ATOM      4  C   LIG d   1      -9.432  84.476 122.235  0.00  0.00     0.028 C 
ATOM      5  C   LIG d   1     -10.142  83.497 121.305  0.00  0.00    -0.047 C 
ATOM      6  C   LIG d   1      -9.088  82.581 120.643  0.00  0.00     0.091 C 
ENDROOT
BRANCH   1   7
ATOM      7  O   LIG d   1      -6.827  82.590 119.699  0.00  0.00    -0.368 OA
BRANCH   7   8
ATOM      8  C   LIG d   1      -6.058  82.886 118.507  0.00  0.00     0.119 C 
BRANCH   8   9
ATOM      9  C   LIG d   1      -6.678  82.086 117.345  0.00  0.00     0.028 C 
ATOM     10  C   LIG d   1      -6.420  80.575 117.470  0.00  0.00     0.006 C 
ENDBRANCH   8   9
BRANCH   8  11
ATOM     11  C   LIG d   1      -4.620  82.374 118.630  0.00  0.00     0.028 C 
ATOM     12  C   LIG d   1      -3.882  82.957 119.846  0.00  0.00     0.006 C 
ENDBRANCH   8  11
ENDBRANCH   7   8
ENDBRANCH   1   7
BRANCH   6  13
ATOM     13  N   LIG d   1      -9.690  81.648 119.654  0.00  0.00    -0.311 N 
ATOM     14  C   LIG d   1      -9.436  80.341 119.630  0.00  0.00     0.210 C 
ATOM     15  C   LIG d   1     -10.144  79.565 118.516  0.00  0.00     0.109 C 
ATOM     16  O   LIG d   1      -8.716  79.745 120.446  0.00  0.00    -0.276 OA
ATOM     17  H   LIG d   1     -10.310  82.042 118.974  0.00  0.00     0.149 HD
ENDBRANCH   6  13
BRANCH   5  18
ATOM     18  N   LIG d   1     -11.130  82.755 122.110  0.00  0.00     0.381 N 
ATOM     19  H   LIG d   1     -10.731  81.894 122.427  0.00  0.00    -0.090 HD
ATOM     20  H   LIG d   1     -11.925  82.541 121.533  0.00  0.00    -0.090 HD
ATOM     21  H   LIG d   1     -11.417  83.305 122.890  0.00  0.00    -0.090 HD
ENDBRANCH   5  18
BRANCH   3  22
ATOM     22  C   LIG d   1      -8.071  86.439 122.062  0.00  0.00     0.382 C 
ATOM     23  O   LIG d   1      -6.883  86.842 122.051  0.00  0.00    -0.241 OA
ATOM     24  O   LIG d   1      -8.965  87.180 122.513  0.00  0.00    -0.241 OA
ENDBRANCH   3  22
TORSDOF 7
ENDMDL
MODEL 4
REMARK VINA RESULT:      -4.7     19.384     21.906
REMARK  7 active torsions:
REMARK  status: ('A' for Active; 'I' for Inactive)
REMARK    1  A    between atoms: C_2  and  C_3 
REMARK    2  A    between atoms: C_3  and  O_6 
REMARK    3  A    between atoms: C_3  and  C_4 
REMARK    4  A    between atoms: C_7  and  O_6 
REMARK    5  A    between atoms: C_9  and  C_10 
REMARK    6  A    between atoms: N_15  and  C_14 
REMARK    7  A    between atoms: N_20  and  C_19 
REMARK       I    between atoms: C_22  and  N_20 
ROOT
ATOM      1  C   LIG d   1      -0.590  58.950 119.923  0.00  0.00     0.161 C 
ATOM      2  C   LIG d   1       0.732  59.091 120.377  0.00  0.00     0.016 C 
ATOM      3  C   LIG d   1       1.106  59.960 121.428  0.00  0.00     0.038 C 
ATOM      4  C   LIG d   1       0.153  60.638 122.203  0.00  0.00     0.028 C 
ATOM      5  C   LIG d   1      -1.148  60.916 121.457  0.00  0.00    -0.047 C 
ATOM      6  C   LIG d   1      -1.657  59.598 120.830  0.00  0.00     0.091 C 
ENDROOT
BRANCH   1   7
ATOM      7  O   LIG d   1      -0.889  57.555 119.716  0.00  0.00    -0.368 OA
BRANCH   7   8
ATOM      8  C   LIG d   1      -1.404  57.201 118.409  0.00  0.00     0.119 C 
BRANCH   8   9
ATOM      9  C   LIG d   1      -0.953  55.758 118.109  0.00  0.00     0.028 C 
ATOM     10  C   LIG d   1       0.233  55.705 117.131  0.00  0.00     0.006 C 
ENDBRANCH   8   9
BRANCH   8  11
ATOM     11  C   LIG d   1      -0.772  58.060 117.310  0.00  0.00     0.028 C 
ATOM     12  C   LIG d   1      -1.805  58.898 116.540  0.00  0.00     0.006 C 
ENDBRANCH   8  11
ENDBRANCH   7   8
ENDBRANCH   1   7
BRANCH   6  13
ATOM     13  N   LIG d   1      -2.882  59.796 120.012  0.00  0.00    -0.311 N 
ATOM     14  C   LIG d   1      -3.054  60.828 119.187  0.00  0.00     0.210 C 
ATOM     15  C   LIG d   1      -4.398  60.852 118.453  0.00  0.00     0.109 C 
ATOM     16  O   LIG d   1      -2.207  61.708 118.969  0.00  0.00    -0.276 OA
ATOM     17  H   LIG d   1      -3.607  59.112 120.103  0.00  0.00     0.149 HD
ENDBRANCH   6  13
BRANCH   5  18
ATOM     18  N   LIG d   1      -2.098  61.502 122.422  0.00  0.00     0.381 N 
ATOM     19  H   LIG d   1      -2.711  62.137 121.950  0.00  0.00    -0.090 HD
ATOM     20  H   LIG d   1      -1.582  62.016 123.114  0.00  0.00    -0.090 HD
ATOM     21  H   LIG d   1      -2.628  60.781 122.860  0.00  0.00    -0.090 HD
ENDBRANCH   5  18
BRANCH   3  22
ATOM     22  C   LIG d   1       2.449  60.188 121.687  0.00  0.00     0.382 C 
ATOM     23  O   LIG d   1       2.790  61.115 122.460  0.00  0.00    -0.241 OA
ATOM     24  O   LIG d   1       3.325  59.506 121.123  0.00  0.00    -0.241 OA
ENDBRANCH   3  22
TORSDOF 7
ENDMDL
MODEL 5
REMARK VINA RESULT:      -4.5      2.335      5.412
REMARK  7 active torsions:
REMARK  status: ('A' for Active; 'I' for Inactive)
REMARK    1  A    between atoms: C_2  and  C_3 
REMARK    2  A    between atoms: C_3  and  O_6 
REMARK    3  A    between atoms: C_3  and  C_4 
REMARK    4  A    between atoms: C_7  and  O_6 
REMARK    5  A    between atoms: C_9  and  C_10 
REMARK    6  A    between atoms: N_15  and  C_14 
REMARK    7  A    between atoms: N_20  and  C_19 
REMARK       I    between atoms: C_22  and  N_20 
ROOT
ATOM      1  C   LIG d   1      -6.414  82.323 117.598  0.00  0.00     0.161 C 
ATOM      2  C   LIG d   1      -5.133  82.004 117.117  0.00  0.00     0.016 C 
ATOM      3  C   LIG d   1      -3.951  82.190 117.869  0.00  0.00     0.038 C 
ATOM      4  C   LIG d   1      -3.983  82.569 119.220  0.00  0.00     0.028 C 
ATOM      5  C   LIG d   1      -5.217  83.384 119.590  0.00  0.00    -0.047 C 
ATOM      6  C   LIG d   1      -6.479  82.633 119.108  0.00  0.00     0.091 C 
ENDROOT
BRANCH   1   7
ATOM      7  O   LIG d   1      -7.338  81.269 117.263  0.00  0.00    -0.368 OA
BRANCH   7   8
ATOM      8  C   LIG d   1      -7.290  80.088 118.101  0.00  0.00     0.119 C 
BRANCH   8   9
ATOM      9  C   LIG d   1      -6.890  78.900 117.204  0.00  0.00     0.028 C 
ATOM     10  C   LIG d   1      -6.840  77.572 117.978  0.00  0.00     0.006 C 
ENDBRANCH   8   9
BRANCH   8  11
ATOM     11  C   LIG d   1      -8.677  79.735 118.647  0.00  0.00     0.028 C 
ATOM     12  C   LIG d   1      -9.796  80.584 118.023  0.00  0.00     0.006 C 
ENDBRANCH   8  11
ENDBRANCH   7   8
ENDBRANCH   1   7
BRANCH   6  13
ATOM     13  N   LIG d   1      -7.726  83.402 119.356  0.00  0.00    -0.311 N 
ATOM     14  C   LIG d   1      -8.582  83.114 120.335  0.00  0.00     0.210 C 
ATOM     15  C   LIG d   1      -9.815  84.020 120.403  0.00  0.00     0.109 C 
ATOM     16  O   LIG d   1      -8.421  82.215 121.174  0.00  0.00    -0.276 OA
ATOM     17  H   LIG d   1      -7.920  84.168 118.741  0.00  0.00     0.149 HD
ENDBRANCH   6  13
BRANCH   5  18
ATOM     18  N   LIG d   1      -5.191  83.593 121.050  0.00  0.00     0.381 N 
ATOM     19  H   LIG d   1      -6.014  84.085 121.337  0.00  0.00    -0.090 HD
ATOM     20  H   LIG d   1      -4.391  84.154 121.284  0.00  0.00    -0.090 HD
ATOM     21  H   LIG d   1      -5.139  82.716 121.520  0.00  0.00    -0.090 HD
ENDBRANCH   5  18
BRANCH   3  22
ATOM     22  C   LIG d   1      -2.716  82.034 117.258  0.00  0.00     0.382 C 
ATOM     23  O   LIG d   1      -2.642  81.524 116.115  0.00  0.00    -0.241 OA
ATOM     24  O   LIG d   1      -1.671  82.357 117.855  0.00  0.00    -0.241 OA
ENDBRANCH   3  22
TORSDOF 7
ENDMDL
MODEL 6
REMARK VINA RESULT:      -4.4      4.296      6.617
REMARK  7 active torsions:
REMARK  status: ('A' for Active; 'I' for Inactive)
REMARK    1  A    between atoms: C_2  and  C_3 
REMARK    2  A    between atoms: C_3  and  O_6 
REMARK    3  A    between atoms: C_3  and  C_4 
REMARK    4  A    between atoms: C_7  and  O_6 
REMARK    5  A    between atoms: C_9  and  C_10 
REMARK    6  A    between atoms: N_15  and  C_14 
REMARK    7  A    between atoms: N_20  and  C_19 
REMARK       I    between atoms: C_22  and  N_20 
ROOT
ATOM      1  C   LIG d   1      -8.498  83.832 119.621  0.00  0.00     0.161 C 
ATOM      2  C   LIG d   1      -8.320  85.046 120.305  0.00  0.00     0.016 C 
ATOM      3  C   LIG d   1      -8.966  85.354 121.525  0.00  0.00     0.038 C 
ATOM      4  C   LIG d   1      -9.721  84.401 122.225  0.00  0.00     0.028 C 
ATOM      5  C   LIG d   1     -10.337  83.336 121.325  0.00  0.00    -0.047 C 
ATOM      6  C   LIG d   1      -9.231  82.738 120.426  0.00  0.00     0.091 C 
ENDROOT
BRANCH   1   7
ATOM      7  O   LIG d   1      -7.225  83.343 119.155  0.00  0.00    -0.368 OA
BRANCH   7   8
ATOM      8  C   LIG d   1      -6.336  82.812 120.168  0.00  0.00     0.119 C 
BRANCH   8   9
ATOM      9  C   LIG d   1      -5.009  83.589 120.073  0.00  0.00     0.028 C 
ATOM     10  C   LIG d   1      -4.849  84.619 121.204  0.00  0.00     0.006 C 
ENDBRANCH   8   9
BRANCH   8  11
ATOM     11  C   LIG d   1      -5.973  81.352 119.881  0.00  0.00     0.028 C 
ATOM     12  C   LIG d   1      -5.637  80.560 121.155  0.00  0.00     0.006 C 
ENDBRANCH   8  11
ENDBRANCH   7   8
ENDBRANCH   1   7
BRANCH   6  13
ATOM     13  N   LIG d   1      -9.764  81.747 119.455  0.00  0.00    -0.311 N 
ATOM     14  C   LIG d   1      -9.684  80.429 119.633  0.00  0.00     0.210 C 
ATOM     15  C   LIG d   1     -10.279  79.586 118.501  0.00  0.00     0.109 C 
ATOM     16  O   LIG d   1      -9.206  79.880 120.637  0.00  0.00    -0.276 OA
ATOM     17  H   LIG d   1     -10.196  82.107 118.626  0.00  0.00     0.149 HD
ENDBRANCH   6  13
BRANCH   5  18
ATOM     18  N   LIG d   1     -10.980  82.333 122.195  0.00  0.00     0.381 N 
ATOM     19  H   LIG d   1     -11.897  82.643 122.449  0.00  0.00    -0.090 HD
ATOM     20  H   LIG d   1     -10.436  82.236 123.035  0.00  0.00    -0.090 HD
ATOM     21  H   LIG d   1     -11.035  81.458 121.724  0.00  0.00    -0.090 HD
ENDBRANCH   5  18
BRANCH   3  22
ATOM     22  C   LIG d   1      -8.891  86.640 122.037  0.00  0.00     0.382 C 
ATOM     23  O   LIG d   1      -9.940  87.255 122.343  0.00  0.00    -0.241 OA
ATOM     24  O   LIG d   1      -7.789  87.210 122.154  0.00  0.00    -0.241 OA
ENDBRANCH   3  22
TORSDOF 7
ENDMDL
MODEL 7
REMARK VINA RESULT:      -4.4     20.671     23.034
REMARK  7 active torsions:
REMARK  status: ('A' for Active; 'I' for Inactive)
REMARK    1  A    between atoms: C_2  and  C_3 
REMARK    2  A    between atoms: C_3  and  O_6 
REMARK    3  A    between atoms: C_3  and  C_4 
REMARK    4  A    between atoms: C_7  and  O_6 
REMARK    5  A    between atoms: C_9  and  C_10 
REMARK    6  A    between atoms: N_15  and  C_14 
REMARK    7  A    between atoms: N_20  and  C_19 
REMARK       I    between atoms: C_22  and  N_20 
ROOT
ATOM      1  C   LIG d   1       0.375  59.045 118.414  0.00  0.00     0.161 C 
ATOM      2  C   LIG d   1       1.693  58.918 118.883  0.00  0.00     0.016 C 
ATOM      3  C   LIG d   1       2.077  59.208 120.212  0.00  0.00     0.038 C 
ATOM      4  C   LIG d   1       1.135  59.502 121.209  0.00  0.00     0.028 C 
ATOM      5  C   LIG d   1      -0.143  60.133 120.668  0.00  0.00    -0.047 C 
ATOM      6  C   LIG d   1      -0.686  59.257 119.515  0.00  0.00     0.091 C 
ENDROOT
BRANCH   1   7
ATOM      7  O   LIG d   1       0.032  57.904 117.603  0.00  0.00    -0.368 OA
BRANCH   7   8
ATOM      8  C   LIG d   1       0.020  56.622 118.278  0.00  0.00     0.119 C 
BRANCH   8   9
ATOM      9  C   LIG d   1       1.031  55.710 117.558  0.00  0.00     0.028 C 
ATOM     10  C   LIG d   1       2.271  55.413 118.418  0.00  0.00     0.006 C 
ENDBRANCH   8   9
BRANCH   8  11
ATOM     11  C   LIG d   1      -1.336  55.925 118.126  0.00  0.00     0.028 C 
ATOM     12  C   LIG d   1      -1.203  54.437 117.766  0.00  0.00     0.006 C 
ENDBRANCH   8  11
ENDBRANCH   7   8
ENDBRANCH   1   7
BRANCH   6  13
ATOM     13  N   LIG d   1      -1.889  59.848 118.873  0.00  0.00    -0.311 N 
ATOM     14  C   LIG d   1      -3.108  59.321 118.975  0.00  0.00     0.210 C 
ATOM     15  C   LIG d   1      -4.205  60.077 118.219  0.00  0.00     0.109 C 
ATOM     16  O   LIG d   1      -3.390  58.317 119.646  0.00  0.00    -0.276 OA
ATOM     17  H   LIG d   1      -1.756  60.681 118.334  0.00  0.00     0.149 HD
ENDBRANCH   6  13
BRANCH   5  18
ATOM     18  N   LIG d   1      -1.089  60.260 121.792  0.00  0.00     0.381 N 
ATOM     19  H   LIG d   1      -1.009  59.464 122.393  0.00  0.00    -0.090 HD
ATOM     20  H   LIG d   1      -2.025  60.288 121.428  0.00  0.00    -0.090 HD
ATOM     21  H   LIG d   1      -0.899  61.092 122.305  0.00  0.00    -0.090 HD
ENDBRANCH   5  18
BRANCH   3  22
ATOM     22  C   LIG d   1       3.423  59.244 120.546  0.00  0.00     0.382 C 
ATOM     23  O   LIG d   1       3.788  58.945 121.709  0.00  0.00    -0.241 OA
ATOM     24  O   LIG d   1       4.271  59.614 119.713  0.00  0.00    -0.241 OA
ENDBRANCH   3  22
TORSDOF 7
ENDMDL
MODEL 8
REMARK VINA RESULT:      -4.4     13.761     16.476
REMARK  7 active torsions:
REMARK  status: ('A' for Active; 'I' for Inactive)
REMARK    1  A    between atoms: C_2  and  C_3 
REMARK    2  A    between atoms: C_3  and  O_6 
REMARK    3  A    between atoms: C_3  and  C_4 
REMARK    4  A    between atoms: C_7  and  O_6 
REMARK    5  A    between atoms: C_9  and  C_10 
REMARK    6  A    between atoms: N_15  and  C_14 
REMARK    7  A    between atoms: N_20  and  C_19 
REMARK       I    between atoms: C_22  and  N_20 
ROOT
ATOM      1  C   LIG d   1     -14.338  67.113 118.607  0.00  0.00     0.161 C 
ATOM      2  C   LIG d   1     -15.456  67.103 117.757  0.00  0.00     0.016 C 
ATOM      3  C   LIG d   1     -16.339  66.004 117.644  0.00  0.00     0.038 C 
ATOM      4  C   LIG d   1     -16.249  64.891 118.493  0.00  0.00     0.028 C 
ATOM      5  C   LIG d   1     -14.838  64.640 119.015  0.00  0.00    -0.047 C 
ATOM      6  C   LIG d   1     -14.287  65.951 119.621  0.00  0.00     0.091 C 
ENDROOT
BRANCH   1   7
ATOM      7  O   LIG d   1     -14.255  68.379 119.291  0.00  0.00    -0.368 OA
BRANCH   7   8
ATOM      8  C   LIG d   1     -15.023  68.494 120.514  0.00  0.00     0.119 C 
BRANCH   8   9
ATOM      9  C   LIG d   1     -16.097  69.575 120.287  0.00  0.00     0.028 C 
ATOM     10  C   LIG d   1     -17.517  68.986 120.220  0.00  0.00     0.006 C 
ENDBRANCH   8   9
BRANCH   8  11
ATOM     11  C   LIG d   1     -14.160  69.017 121.666  0.00  0.00     0.028 C 
ATOM     12  C   LIG d   1     -12.695  69.241 121.259  0.00  0.00     0.006 C 
ENDBRANCH   8  11
ENDBRANCH   7   8
ENDBRANCH   1   7
BRANCH   6  13
ATOM     13  N   LIG d   1     -12.880  65.816 120.080  0.00  0.00    -0.311 N 
ATOM     14  C   LIG d   1     -12.542  65.570 121.345  0.00  0.00     0.210 C 
ATOM     15  C   LIG d   1     -11.034  65.488 121.607  0.00  0.00     0.109 C 
ATOM     16  O   LIG d   1     -13.347  65.379 122.268  0.00  0.00    -0.276 OA
ATOM     17  H   LIG d   1     -12.163  65.925 119.390  0.00  0.00     0.149 HD
ENDBRANCH   6  13
BRANCH   5  18
ATOM     18  N   LIG d   1     -14.914  63.538 119.992  0.00  0.00     0.381 N 
ATOM     19  H   LIG d   1     -15.345  62.740 119.570  0.00  0.00    -0.090 HD
ATOM     20  H   LIG d   1     -15.482  63.830 120.768  0.00  0.00    -0.090 HD
ATOM     21  H   LIG d   1     -14.000  63.301 120.311  0.00  0.00    -0.090 HD
ENDBRANCH   5  18
BRANCH   3  22
ATOM     22  C   LIG d   1     -17.302  65.996 116.647  0.00  0.00     0.382 C 
ATOM     23  O   LIG d   1     -18.179  66.893 116.614  0.00  0.00    -0.241 OA
ATOM     24  O   LIG d   1     -17.332  65.078 115.805  0.00  0.00    -0.241 OA
ENDBRANCH   3  22
TORSDOF 7
ENDMDL
MODEL 9
REMARK VINA RESULT:      -4.3      2.382      4.537
REMARK  7 active torsions:
REMARK  status: ('A' for Active; 'I' for Inactive)
REMARK    1  A    between atoms: C_2  and  C_3 
REMARK    2  A    between atoms: C_3  and  O_6 
REMARK    3  A    between atoms: C_3  and  C_4 
REMARK    4  A    between atoms: C_7  and  O_6 
REMARK    5  A    between atoms: C_9  and  C_10 
REMARK    6  A    between atoms: N_15  and  C_14 
REMARK    7  A    between atoms: N_20  and  C_19 
REMARK       I    between atoms: C_22  and  N_20 
ROOT
ATOM      1  C   LIG d   1      -6.158  81.070 118.095  0.00  0.00     0.161 C 
ATOM      2  C   LIG d   1      -6.728  82.201 118.705  0.00  0.00     0.016 C 
ATOM      3  C   LIG d   1      -8.101  82.302 119.027  0.00  0.00     0.038 C 
ATOM      4  C   LIG d   1      -8.975  81.212 118.898  0.00  0.00     0.028 C 
ATOM      5  C   LIG d   1      -8.552  80.220 117.820  0.00  0.00    -0.047 C 
ATOM      6  C   LIG d   1      -7.074  79.830 118.049  0.00  0.00     0.091 C 
ENDROOT
BRANCH   1   7
ATOM      7  O   LIG d   1      -4.909  80.747 118.737  0.00  0.00    -0.368 OA
BRANCH   7   8
ATOM      8  C   LIG d   1      -3.709  81.035 117.978  0.00  0.00     0.119 C 
BRANCH   8   9
ATOM      9  C   LIG d   1      -3.198  82.418 118.426  0.00  0.00     0.028 C 
ATOM     10  C   LIG d   1      -2.380  82.348 119.727  0.00  0.00     0.006 C 
ENDBRANCH   8   9
BRANCH   8  11
ATOM     11  C   LIG d   1      -4.016  81.181 116.484  0.00  0.00     0.028 C 
ATOM     12  C   LIG d   1      -3.169  82.269 115.805  0.00  0.00     0.006 C 
ENDBRANCH   8  11
ENDBRANCH   7   8
ENDBRANCH   1   7
BRANCH   6  13
ATOM     13  N   LIG d   1      -6.555  78.927 116.989  0.00  0.00    -0.311 N 
ATOM     14  C   LIG d   1      -6.521  77.601 117.107  0.00  0.00     0.210 C 
ATOM     15  C   LIG d   1      -5.929  76.859 115.904  0.00  0.00     0.109 C 
ATOM     16  O   LIG d   1      -6.955  76.966 118.080  0.00  0.00    -0.276 OA
ATOM     17  H   LIG d   1      -6.212  79.356 116.152  0.00  0.00     0.149 HD
ENDBRANCH   6  13
BRANCH   5  18
ATOM     18  N   LIG d   1      -9.472  79.069 117.887  0.00  0.00     0.381 N 
ATOM     19  H   LIG d   1      -9.767  78.926 118.833  0.00  0.00    -0.090 HD
ATOM     20  H   LIG d   1      -8.984  78.245 117.582  0.00  0.00    -0.090 HD
ATOM     21  H   LIG d   1     -10.264  79.231 117.305  0.00  0.00    -0.090 HD
ENDBRANCH   5  18
BRANCH   3  22
ATOM     22  C   LIG d   1      -8.621  83.517 119.447  0.00  0.00     0.382 C 
ATOM     23  O   LIG d   1      -7.863  84.383 119.947  0.00  0.00    -0.241 OA
ATOM     24  O   LIG d   1      -9.844  83.740 119.373  0.00  0.00    -0.241 OA
ENDBRANCH   3  22
TORSDOF 7
ENDMDL
