MODEL 1
REMARK VINA RESULT:      -5.3      0.000      0.000
REMARK  7 active torsions:
REMARK  status: ('A' for Active; 'I' for Inactive)
REMARK    1  A    between atoms: C_2  and  C_3 
REMARK    2  A    between atoms: C_3  and  O_6 
REMARK    3  A    between atoms: C_3  and  C_4 
REMARK    4  A    between atoms: C_7  and  O_6 
REMARK    5  A    between atoms: C_9  and  C_10 
REMARK    6  A    between atoms: N_15  and  C_14 
REMARK    7  A    between atoms: N_20  and  C_19 
REMARK       I    between atoms: C_22  and  N_20 
ROOT
ATOM      1  C   LIG d   1      -6.690  75.943 116.472  0.00  0.00     0.161 C 
ATOM      2  C   LIG d   1      -5.479  75.278 116.219  0.00  0.00     0.016 C 
ATOM      3  C   LIG d   1      -4.371  75.317 117.097  0.00  0.00     0.038 C 
ATOM      4  C   LIG d   1      -4.454  75.904 118.369  0.00  0.00     0.028 C 
ATOM      5  C   LIG d   1      -5.490  77.019 118.455  0.00  0.00    -0.047 C 
ATOM      6  C   LIG d   1      -6.837  76.496 117.905  0.00  0.00     0.091 C 
ENDROOT
BRANCH   1   7
ATOM      7  O   LIG d   1      -7.798  75.079 116.153  0.00  0.00    -0.368 OA
BRANCH   7   8
ATOM      8  C   LIG d   1      -7.936  73.891 116.971  0.00  0.00     0.119 C 
BRANCH   8   9
ATOM      9  C   LIG d   1      -7.664  72.672 116.067  0.00  0.00     0.028 C 
ATOM     10  C   LIG d   1      -8.712  71.562 116.248  0.00  0.00     0.006 C 
ENDBRANCH   8   9
BRANCH   8  11
ATOM     11  C   LIG d   1      -9.375  73.717 117.463  0.00  0.00     0.028 C 
ATOM     12  C   LIG d   1     -10.278  74.906 117.098  0.00  0.00     0.006 C 
ENDBRANCH   8  11
ENDBRANCH   7   8
ENDBRANCH   1   7
BRANCH   6  13
ATOM     13  N   LIG d   1      -7.885  77.550 117.876  0.00  0.00    -0.311 N 
ATOM     14  C   LIG d   1      -8.773  77.728 118.852  0.00  0.00     0.210 C 
ATOM     15  C   LIG d   1      -9.779  78.858 118.613  0.00  0.00     0.109 C 
ATOM     16  O   LIG d   1      -8.803  77.078 119.908  0.00  0.00    -0.276 OA
ATOM     17  H   LIG d   1      -7.913  78.143 117.070  0.00  0.00     0.149 HD
ENDBRANCH   6  13
BRANCH   5  18
ATOM     18  N   LIG d   1      -5.568  77.447 119.865  0.00  0.00     0.381 N 
ATOM     19  H   LIG d   1      -6.398  77.080 120.285  0.00  0.00    -0.090 HD
ATOM     20  H   LIG d   1      -5.615  78.450 119.898  0.00  0.00    -0.090 HD
ATOM     21  H   LIG d   1      -4.766  77.128 120.363  0.00  0.00    -0.090 HD
ENDBRANCH   5  18
BRANCH   3  22
ATOM     22  C   LIG d   1      -3.152  74.799 116.688  0.00  0.00     0.382 C 
ATOM     23  O   LIG d   1      -2.484  75.389 115.806  0.00  0.00    -0.241 OA
ATOM     24  O   LIG d   1      -2.732  73.725 117.160  0.00  0.00    -0.241 OA
ENDBRANCH   3  22
TORSDOF 7
ENDMDL
MODEL 2
REMARK VINA RESULT:      -4.8      2.026      5.170
REMARK  7 active torsions:
REMARK  status: ('A' for Active; 'I' for Inactive)
REMARK    1  A    between atoms: C_2  and  C_3 
REMARK    2  A    between atoms: C_3  and  O_6 
REMARK    3  A    between atoms: C_3  and  C_4 
REMARK    4  A    between atoms: C_7  and  O_6 
REMARK    5  A    between atoms: C_9  and  C_10 
REMARK    6  A    between atoms: N_15  and  C_14 
REMARK    7  A    between atoms: N_20  and  C_19 
REMARK       I    between atoms: C_22  and  N_20 
ROOT
ATOM      1  C   LIG d   1      -7.591  76.889 117.798  0.00  0.00     0.161 C 
ATOM      2  C   LIG d   1      -8.762  77.553 118.203  0.00  0.00     0.016 C 
ATOM      3  C   LIG d   1      -8.832  78.949 118.412  0.00  0.00     0.038 C 
ATOM      4  C   LIG d   1      -7.769  79.803 118.082  0.00  0.00     0.028 C 
ATOM      5  C   LIG d   1      -6.404  79.125 118.150  0.00  0.00    -0.047 C 
ATOM      6  C   LIG d   1      -6.452  77.818 117.326  0.00  0.00     0.091 C 
ENDROOT
BRANCH   1   7
ATOM      7  O   LIG d   1      -7.906  75.923 116.776  0.00  0.00    -0.368 OA
BRANCH   7   8
ATOM      8  C   LIG d   1      -7.999  74.544 117.210  0.00  0.00     0.119 C 
BRANCH   8   9
ATOM      9  C   LIG d   1      -7.322  73.673 116.133  0.00  0.00     0.028 C 
ATOM     10  C   LIG d   1      -5.830  74.004 115.964  0.00  0.00     0.006 C 
ENDBRANCH   8   9
BRANCH   8  11
ATOM     11  C   LIG d   1      -9.455  74.072 117.257  0.00  0.00     0.028 C 
ATOM     12  C   LIG d   1      -9.604  72.569 116.971  0.00  0.00     0.006 C 
ENDBRANCH   8  11
ENDBRANCH   7   8
ENDBRANCH   1   7
BRANCH   6  13
ATOM     13  N   LIG d   1      -5.183  77.049 117.408  0.00  0.00    -0.311 N 
ATOM     14  C   LIG d   1      -4.120  77.306 116.647  0.00  0.00     0.210 C 
ATOM     15  C   LIG d   1      -2.921  76.381 116.878  0.00  0.00     0.109 C 
ATOM     16  O   LIG d   1      -4.046  78.232 115.826  0.00  0.00    -0.276 OA
ATOM     17  H   LIG d   1      -5.146  76.299 118.071  0.00  0.00     0.149 HD
ENDBRANCH   6  13
BRANCH   5  18
ATOM     18  N   LIG d   1      -5.404  80.086 117.650  0.00  0.00     0.381 N 
ATOM     19  H   LIG d   1      -4.636  79.594 117.239  0.00  0.00    -0.090 HD
ATOM     20  H   LIG d   1      -5.055  80.625 118.424  0.00  0.00    -0.090 HD
ATOM     21  H   LIG d   1      -5.819  80.691 116.976  0.00  0.00    -0.090 HD
ENDBRANCH   5  18
BRANCH   3  22
ATOM     22  C   LIG d   1      -9.963  79.501 118.995  0.00  0.00     0.382 C 
ATOM     23  O   LIG d   1     -10.652  78.820 119.793  0.00  0.00    -0.241 OA
ATOM     24  O   LIG d   1     -10.327  80.654 118.699  0.00  0.00    -0.241 OA
ENDBRANCH   3  22
TORSDOF 7
ENDMDL
MODEL 3
REMARK VINA RESULT:      -4.8      2.850      5.663
REMARK  7 active torsions:
REMARK  status: ('A' for Active; 'I' for Inactive)
REMARK    1  A    between atoms: C_2  and  C_3 
REMARK    2  A    between atoms: C_3  and  O_6 
REMARK    3  A    between atoms: C_3  and  C_4 
REMARK    4  A    between atoms: C_7  and  O_6 
REMARK    5  A    between atoms: C_9  and  C_10 
REMARK    6  A    between atoms: N_15  and  C_14 
REMARK    7  A    between atoms: N_20  and  C_19 
REMARK       I    between atoms: C_22  and  N_20 
ROOT
ATOM      1  C   LIG d   1      -6.385  78.040 117.734  0.00  0.00     0.161 C 
ATOM      2  C   LIG d   1      -7.737  77.816 118.045  0.00  0.00     0.016 C 
ATOM      3  C   LIG d   1      -8.668  78.857 118.262  0.00  0.00     0.038 C 
ATOM      4  C   LIG d   1      -8.343  80.202 118.034  0.00  0.00     0.028 C 
ATOM      5  C   LIG d   1      -6.859  80.506 118.211  0.00  0.00    -0.047 C 
ATOM      6  C   LIG d   1      -6.038  79.500 117.372  0.00  0.00     0.091 C 
ENDROOT
BRANCH   1   7
ATOM      7  O   LIG d   1      -5.972  77.150 116.678  0.00  0.00    -0.368 OA
BRANCH   7   8
ATOM      8  C   LIG d   1      -5.613  75.806 117.082  0.00  0.00     0.119 C 
BRANCH   8   9
ATOM      9  C   LIG d   1      -4.089  75.784 117.313  0.00  0.00     0.028 C 
ATOM     10  C   LIG d   1      -3.498  74.370 117.191  0.00  0.00     0.006 C 
ENDBRANCH   8   9
BRANCH   8  11
ATOM     11  C   LIG d   1      -5.867  74.800 115.956  0.00  0.00     0.028 C 
ATOM     12  C   LIG d   1      -7.147  73.977 116.170  0.00  0.00     0.006 C 
ENDBRANCH   8  11
ENDBRANCH   7   8
ENDBRANCH   1   7
BRANCH   6  13
ATOM     13  N   LIG d   1      -4.574  79.673 117.553  0.00  0.00    -0.311 N 
ATOM     14  C   LIG d   1      -3.822  80.437 116.763  0.00  0.00     0.210 C 
ATOM     15  C   LIG d   1      -2.331  80.460 117.113  0.00  0.00     0.109 C 
ATOM     16  O   LIG d   1      -4.253  81.123 115.824  0.00  0.00    -0.276 OA
ATOM     17  H   LIG d   1      -4.146  79.176 118.311  0.00  0.00     0.149 HD
ENDBRANCH   6  13
BRANCH   5  18
ATOM     18  N   LIG d   1      -6.640  81.908 117.809  0.00  0.00     0.381 N 
ATOM     19  H   LIG d   1      -5.903  82.306 118.356  0.00  0.00    -0.090 HD
ATOM     20  H   LIG d   1      -7.480  82.431 117.984  0.00  0.00    -0.090 HD
ATOM     21  H   LIG d   1      -6.407  81.953 116.841  0.00  0.00    -0.090 HD
ENDBRANCH   5  18
BRANCH   3  22
ATOM     22  C   LIG d   1      -9.930  78.558 118.752  0.00  0.00     0.382 C 
ATOM     23  O   LIG d   1     -10.381  79.180 119.745  0.00  0.00    -0.241 OA
ATOM     24  O   LIG d   1     -10.606  77.645 118.242  0.00  0.00    -0.241 OA
ENDBRANCH   3  22
TORSDOF 7
ENDMDL
MODEL 4
REMARK VINA RESULT:      -4.7      2.440      5.749
REMARK  7 active torsions:
REMARK  status: ('A' for Active; 'I' for Inactive)
REMARK    1  A    between atoms: C_2  and  C_3 
REMARK    2  A    between atoms: C_3  and  O_6 
REMARK    3  A    between atoms: C_3  and  C_4 
REMARK    4  A    between atoms: C_7  and  O_6 
REMARK    5  A    between atoms: C_9  and  C_10 
REMARK    6  A    between atoms: N_15  and  C_14 
REMARK    7  A    between atoms: N_20  and  C_19 
REMARK       I    between atoms: C_22  and  N_20 
ROOT
ATOM      1  C   LIG d   1      -8.055  77.096 117.374  0.00  0.00     0.161 C 
ATOM      2  C   LIG d   1      -9.108  76.176 117.500  0.00  0.00     0.016 C 
ATOM      3  C   LIG d   1      -8.962  74.789 117.272  0.00  0.00     0.038 C 
ATOM      4  C   LIG d   1      -7.707  74.203 117.048  0.00  0.00     0.028 C 
ATOM      5  C   LIG d   1      -6.698  75.155 116.414  0.00  0.00    -0.047 C 
ATOM      6  C   LIG d   1      -6.655  76.462 117.239  0.00  0.00     0.091 C 
ENDROOT
BRANCH   1   7
ATOM      7  O   LIG d   1      -8.080  78.023 118.478  0.00  0.00    -0.368 OA
BRANCH   7   8
ATOM      8  C   LIG d   1      -8.318  79.412 118.139  0.00  0.00     0.119 C 
BRANCH   8   9
ATOM      9  C   LIG d   1      -7.174  80.241 118.755  0.00  0.00     0.028 C 
ATOM     10  C   LIG d   1      -6.368  81.008 117.693  0.00  0.00     0.006 C 
ENDBRANCH   8   9
BRANCH   8  11
ATOM     11  C   LIG d   1      -9.598  79.935 118.798  0.00  0.00     0.028 C 
ATOM     12  C   LIG d   1     -10.111  81.233 118.155  0.00  0.00     0.006 C 
ENDBRANCH   8  11
ENDBRANCH   7   8
ENDBRANCH   1   7
BRANCH   6  13
ATOM     13  N   LIG d   1      -5.755  77.481 116.639  0.00  0.00    -0.311 N 
ATOM     14  C   LIG d   1      -4.484  77.642 117.003  0.00  0.00     0.210 C 
ATOM     15  C   LIG d   1      -3.739  78.764 116.273  0.00  0.00     0.109 C 
ATOM     16  O   LIG d   1      -3.893  76.942 117.839  0.00  0.00    -0.276 OA
ATOM     17  H   LIG d   1      -6.143  78.072 115.930  0.00  0.00     0.149 HD
ENDBRANCH   6  13
BRANCH   5  18
ATOM     18  N   LIG d   1      -5.399  74.459 116.363  0.00  0.00     0.381 N 
ATOM     19  H   LIG d   1      -5.319  73.952 115.505  0.00  0.00    -0.090 HD
ATOM     20  H   LIG d   1      -5.352  73.803 117.123  0.00  0.00    -0.090 HD
ATOM     21  H   LIG d   1      -4.656  75.119 116.439  0.00  0.00    -0.090 HD
ENDBRANCH   5  18
BRANCH   3  22
ATOM     22  C   LIG d   1     -10.085  73.977 117.228  0.00  0.00     0.382 C 
ATOM     23  O   LIG d   1      -9.956  72.736 117.098  0.00  0.00    -0.241 OA
ATOM     24  O   LIG d   1     -11.226  74.474 117.272  0.00  0.00    -0.241 OA
ENDBRANCH   3  22
TORSDOF 7
ENDMDL
MODEL 5
REMARK VINA RESULT:      -4.6      2.244      5.497
REMARK  7 active torsions:
REMARK  status: ('A' for Active; 'I' for Inactive)
REMARK    1  A    between atoms: C_2  and  C_3 
REMARK    2  A    between atoms: C_3  and  O_6 
REMARK    3  A    between atoms: C_3  and  C_4 
REMARK    4  A    between atoms: C_7  and  O_6 
REMARK    5  A    between atoms: C_9  and  C_10 
REMARK    6  A    between atoms: N_15  and  C_14 
REMARK    7  A    between atoms: N_20  and  C_19 
REMARK       I    between atoms: C_22  and  N_20 
ROOT
ATOM      1  C   LIG d   1      -7.888  77.244 117.609  0.00  0.00     0.161 C 
ATOM      2  C   LIG d   1      -8.936  76.315 117.721  0.00  0.00     0.016 C 
ATOM      3  C   LIG d   1      -8.845  74.980 117.264  0.00  0.00     0.038 C 
ATOM      4  C   LIG d   1      -7.638  74.437 116.797  0.00  0.00     0.028 C 
ATOM      5  C   LIG d   1      -6.698  75.477 116.197  0.00  0.00    -0.047 C 
ATOM      6  C   LIG d   1      -6.528  76.639 117.203  0.00  0.00     0.091 C 
ENDROOT
BRANCH   1   7
ATOM      7  O   LIG d   1      -7.759  77.987 118.838  0.00  0.00    -0.368 OA
BRANCH   7   8
ATOM      8  C   LIG d   1      -8.844  77.840 119.787  0.00  0.00     0.119 C 
BRANCH   8   9
ATOM      9  C   LIG d   1      -9.463  79.235 120.001  0.00  0.00     0.028 C 
ATOM     10  C   LIG d   1      -9.865  79.908 118.678  0.00  0.00     0.006 C 
ENDBRANCH   8   9
BRANCH   8  11
ATOM     11  C   LIG d   1      -8.325  77.411 121.163  0.00  0.00     0.028 C 
ATOM     12  C   LIG d   1      -7.529  76.097 121.117  0.00  0.00     0.006 C 
ENDBRANCH   8  11
ENDBRANCH   7   8
ENDBRANCH   1   7
BRANCH   6  13
ATOM     13  N   LIG d   1      -5.689  77.740 116.661  0.00  0.00    -0.311 N 
ATOM     14  C   LIG d   1      -4.374  77.824 116.856  0.00  0.00     0.210 C 
ATOM     15  C   LIG d   1      -3.705  79.050 116.227  0.00  0.00     0.109 C 
ATOM     16  O   LIG d   1      -3.694  76.983 117.463  0.00  0.00    -0.276 OA
ATOM     17  H   LIG d   1      -6.155  78.449 116.130  0.00  0.00     0.149 HD
ENDBRANCH   6  13
BRANCH   5  18
ATOM     18  N   LIG d   1      -5.428  74.798 115.878  0.00  0.00     0.381 N 
ATOM     19  H   LIG d   1      -5.083  75.122 114.996  0.00  0.00    -0.090 HD
ATOM     20  H   LIG d   1      -5.597  73.810 115.807  0.00  0.00    -0.090 HD
ATOM     21  H   LIG d   1      -4.756  74.978 116.591  0.00  0.00    -0.090 HD
ENDBRANCH   5  18
BRANCH   3  22
ATOM     22  C   LIG d   1      -9.980  74.185 117.235  0.00  0.00     0.382 C 
ATOM     23  O   LIG d   1      -9.872  72.944 117.086  0.00  0.00    -0.241 OA
ATOM     24  O   LIG d   1     -11.113  74.698 117.312  0.00  0.00    -0.241 OA
ENDBRANCH   3  22
TORSDOF 7
ENDMDL
MODEL 6
REMARK VINA RESULT:      -4.4      1.914      2.574
REMARK  7 active torsions:
REMARK  status: ('A' for Active; 'I' for Inactive)
REMARK    1  A    between atoms: C_2  and  C_3 
REMARK    2  A    between atoms: C_3  and  O_6 
REMARK    3  A    between atoms: C_3  and  C_4 
REMARK    4  A    between atoms: C_7  and  O_6 
REMARK    5  A    between atoms: C_9  and  C_10 
REMARK    6  A    between atoms: N_15  and  C_14 
REMARK    7  A    between atoms: N_20  and  C_19 
REMARK       I    between atoms: C_22  and  N_20 
ROOT
ATOM      1  C   LIG d   1      -4.976  75.659 116.983  0.00  0.00     0.161 C 
ATOM      2  C   LIG d   1      -3.937  74.723 116.851  0.00  0.00     0.016 C 
ATOM      3  C   LIG d   1      -2.604  74.978 117.249  0.00  0.00     0.038 C 
ATOM      4  C   LIG d   1      -2.249  76.140 117.948  0.00  0.00     0.028 C 
ATOM      5  C   LIG d   1      -3.160  77.327 117.653  0.00  0.00    -0.047 C 
ATOM      6  C   LIG d   1      -4.630  76.891 117.845  0.00  0.00     0.091 C 
ENDROOT
BRANCH   1   7
ATOM      7  O   LIG d   1      -6.159  75.009 117.489  0.00  0.00    -0.368 OA
BRANCH   7   8
ATOM      8  C   LIG d   1      -7.229  74.800 116.534  0.00  0.00     0.119 C 
BRANCH   8   9
ATOM      9  C   LIG d   1      -8.557  75.104 117.254  0.00  0.00     0.028 C 
ATOM     10  C   LIG d   1      -8.344  75.793 118.613  0.00  0.00     0.006 C 
ENDBRANCH   8   9
BRANCH   8  11
ATOM     11  C   LIG d   1      -7.322  73.330 116.115  0.00  0.00     0.028 C 
ATOM     12  C   LIG d   1      -8.572  72.630 116.670  0.00  0.00     0.006 C 
ENDBRANCH   8  11
ENDBRANCH   7   8
ENDBRANCH   1   7
BRANCH   6  13
ATOM     13  N   LIG d   1      -5.592  77.969 117.495  0.00  0.00    -0.311 N 
ATOM     14  C   LIG d   1      -6.118  78.802 118.392  0.00  0.00     0.210 C 
ATOM     15  C   LIG d   1      -7.103  79.827 117.822  0.00  0.00     0.109 C 
ATOM     16  O   LIG d   1      -5.837  78.810 119.600  0.00  0.00    -0.276 OA
ATOM     17  H   LIG d   1      -5.851  78.054 116.532  0.00  0.00     0.149 HD
ENDBRANCH   6  13
BRANCH   5  18
ATOM     18  N   LIG d   1      -2.762  78.429 118.550  0.00  0.00     0.381 N 
ATOM     19  H   LIG d   1      -1.777  78.589 118.473  0.00  0.00    -0.090 HD
ATOM     20  H   LIG d   1      -2.966  78.166 119.498  0.00  0.00    -0.090 HD
ATOM     21  H   LIG d   1      -3.260  79.258 118.313  0.00  0.00    -0.090 HD
ENDBRANCH   5  18
BRANCH   3  22
ATOM     22  C   LIG d   1      -1.603  74.081 116.911  0.00  0.00     0.382 C 
ATOM     23  O   LIG d   1      -1.004  74.193 115.814  0.00  0.00    -0.241 OA
ATOM     24  O   LIG d   1      -1.320  73.134 117.669  0.00  0.00    -0.241 OA
ENDBRANCH   3  22
TORSDOF 7
ENDMDL
MODEL 7
REMARK VINA RESULT:      -4.3      2.741      5.798
REMARK  7 active torsions:
REMARK  status: ('A' for Active; 'I' for Inactive)
REMARK    1  A    between atoms: C_2  and  C_3 
REMARK    2  A    between atoms: C_3  and  O_6 
REMARK    3  A    between atoms: C_3  and  C_4 
REMARK    4  A    between atoms: C_7  and  O_6 
REMARK    5  A    between atoms: C_9  and  C_10 
REMARK    6  A    between atoms: N_15  and  C_14 
REMARK    7  A    between atoms: N_20  and  C_19 
REMARK       I    between atoms: C_22  and  N_20 
ROOT
ATOM      1  C   LIG d   1      -8.284  78.167 118.142  0.00  0.00     0.161 C 
ATOM      2  C   LIG d   1      -9.015  76.967 118.115  0.00  0.00     0.016 C 
ATOM      3  C   LIG d   1      -8.508  75.759 117.581  0.00  0.00     0.038 C 
ATOM      4  C   LIG d   1      -7.172  75.632 117.173  0.00  0.00     0.028 C 
ATOM      5  C   LIG d   1      -6.551  76.947 116.715  0.00  0.00    -0.047 C 
ATOM      6  C   LIG d   1      -6.786  78.020 117.803  0.00  0.00     0.091 C 
ENDROOT
BRANCH   1   7
ATOM      7  O   LIG d   1      -8.448  78.809 119.422  0.00  0.00    -0.368 OA
BRANCH   7   8
ATOM      8  C   LIG d   1      -9.412  79.889 119.474  0.00  0.00     0.119 C 
BRANCH   8   9
ATOM      9  C   LIG d   1      -9.673  80.348 118.026  0.00  0.00     0.028 C 
ATOM     10  C   LIG d   1     -10.045  81.838 117.941  0.00  0.00     0.006 C 
ENDBRANCH   8   9
BRANCH   8  11
ATOM     11  C   LIG d   1      -8.837  81.115 120.190  0.00  0.00     0.028 C 
ATOM     12  C   LIG d   1      -7.341  80.971 120.510  0.00  0.00     0.006 C 
ENDBRANCH   8  11
ENDBRANCH   7   8
ENDBRANCH   1   7
BRANCH   6  13
ATOM     13  N   LIG d   1      -6.284  79.358 117.398  0.00  0.00    -0.311 N 
ATOM     14  C   LIG d   1      -5.068  79.808 117.703  0.00  0.00     0.210 C 
ATOM     15  C   LIG d   1      -4.758  81.223 117.205  0.00  0.00     0.109 C 
ATOM     16  O   LIG d   1      -4.205  79.157 118.311  0.00  0.00    -0.276 OA
ATOM     17  H   LIG d   1      -6.908  79.941 116.874  0.00  0.00     0.149 HD
ENDBRANCH   6  13
BRANCH   5  18
ATOM     18  N   LIG d   1      -5.121  76.697 116.450  0.00  0.00     0.381 N 
ATOM     19  H   LIG d   1      -4.978  75.725 116.259  0.00  0.00    -0.090 HD
ATOM     20  H   LIG d   1      -4.592  76.939 117.269  0.00  0.00    -0.090 HD
ATOM     21  H   LIG d   1      -4.817  77.244 115.675  0.00  0.00    -0.090 HD
ENDBRANCH   5  18
BRANCH   3  22
ATOM     22  C   LIG d   1      -9.354  74.673 117.415  0.00  0.00     0.382 C 
ATOM     23  O   LIG d   1     -10.592  74.852 117.320  0.00  0.00    -0.241 OA
ATOM     24  O   LIG d   1      -8.898  73.514 117.403  0.00  0.00    -0.241 OA
ENDBRANCH   3  22
TORSDOF 7
ENDMDL
MODEL 8
REMARK VINA RESULT:      -4.2      2.525      4.719
REMARK  7 active torsions:
REMARK  status: ('A' for Active; 'I' for Inactive)
REMARK    1  A    between atoms: C_2  and  C_3 
REMARK    2  A    between atoms: C_3  and  O_6 
REMARK    3  A    between atoms: C_3  and  C_4 
REMARK    4  A    between atoms: C_7  and  O_6 
REMARK    5  A    between atoms: C_9  and  C_10 
REMARK    6  A    between atoms: N_15  and  C_14 
REMARK    7  A    between atoms: N_20  and  C_19 
REMARK       I    between atoms: C_22  and  N_20 
ROOT
ATOM      1  C   LIG d   1      -8.579  76.507 117.839  0.00  0.00     0.161 C 
ATOM      2  C   LIG d   1      -8.931  75.162 117.640  0.00  0.00     0.016 C 
ATOM      3  C   LIG d   1      -8.097  74.228 116.983  0.00  0.00     0.038 C 
ATOM      4  C   LIG d   1      -6.781  74.542 116.613  0.00  0.00     0.028 C 
ATOM      5  C   LIG d   1      -6.566  76.027 116.341  0.00  0.00    -0.047 C 
ATOM      6  C   LIG d   1      -7.102  76.840 117.541  0.00  0.00     0.091 C 
ENDROOT
BRANCH   1   7
ATOM      7  O   LIG d   1      -8.922  76.908 119.180  0.00  0.00    -0.368 OA
BRANCH   7   8
ATOM      8  C   LIG d   1      -7.824  76.988 120.122  0.00  0.00     0.119 C 
BRANCH   8   9
ATOM      9  C   LIG d   1      -7.784  75.658 120.900  0.00  0.00     0.028 C 
ATOM     10  C   LIG d   1      -7.217  75.825 122.320  0.00  0.00     0.006 C 
ENDBRANCH   8   9
BRANCH   8  11
ATOM     11  C   LIG d   1      -8.074  78.068 121.179  0.00  0.00     0.028 C 
ATOM     12  C   LIG d   1      -7.252  79.343 120.934  0.00  0.00     0.006 C 
ENDBRANCH   8  11
ENDBRANCH   7   8
ENDBRANCH   1   7
BRANCH   6  13
ATOM     13  N   LIG d   1      -7.008  78.307 117.320  0.00  0.00    -0.311 N 
ATOM     14  C   LIG d   1      -5.939  79.030 117.648  0.00  0.00     0.210 C 
ATOM     15  C   LIG d   1      -6.057  80.529 117.353  0.00  0.00     0.109 C 
ATOM     16  O   LIG d   1      -4.892  78.569 118.126  0.00  0.00    -0.276 OA
ATOM     17  H   LIG d   1      -7.801  78.758 116.908  0.00  0.00     0.149 HD
ENDBRANCH   6  13
BRANCH   5  18
ATOM     18  N   LIG d   1      -5.125  76.233 116.101  0.00  0.00     0.381 N 
ATOM     19  H   LIG d   1      -4.593  75.723 116.777  0.00  0.00    -0.090 HD
ATOM     20  H   LIG d   1      -4.914  77.210 116.205  0.00  0.00    -0.090 HD
ATOM     21  H   LIG d   1      -4.886  75.930 115.182  0.00  0.00    -0.090 HD
ENDBRANCH   5  18
BRANCH   3  22
ATOM     22  C   LIG d   1      -8.592  72.975 116.655  0.00  0.00     0.382 C 
ATOM     23  O   LIG d   1      -9.752  72.648 117.004  0.00  0.00    -0.241 OA
ATOM     24  O   LIG d   1      -7.878  72.151 116.053  0.00  0.00    -0.241 OA
ENDBRANCH   3  22
TORSDOF 7
ENDMDL
MODEL 9
REMARK VINA RESULT:      -4.2      3.710      6.641
REMARK  7 active torsions:
REMARK  status: ('A' for Active; 'I' for Inactive)
REMARK    1  A    between atoms: C_2  and  C_3 
REMARK    2  A    between atoms: C_3  and  O_6 
REMARK    3  A    between atoms: C_3  and  C_4 
REMARK    4  A    between atoms: C_7  and  O_6 
REMARK    5  A    between atoms: C_9  and  C_10 
REMARK    6  A    between atoms: N_15  and  C_14 
REMARK    7  A    between atoms: N_20  and  C_19 
REMARK       I    between atoms: C_22  and  N_20 
ROOT
ATOM      1  C   LIG d   1      -6.537  79.675 117.788  0.00  0.00     0.161 C 
ATOM      2  C   LIG d   1      -7.728  79.019 118.142  0.00  0.00     0.016 C 
ATOM      3  C   LIG d   1      -8.925  79.699 118.464  0.00  0.00     0.038 C 
ATOM      4  C   LIG d   1      -9.055  81.087 118.306  0.00  0.00     0.028 C 
ATOM      5  C   LIG d   1      -7.734  81.837 118.437  0.00  0.00    -0.047 C 
ATOM      6  C   LIG d   1      -6.690  81.183 117.503  0.00  0.00     0.091 C 
ENDROOT
BRANCH   1   7
ATOM      7  O   LIG d   1      -5.929  79.011 116.663  0.00  0.00    -0.368 OA
BRANCH   7   8
ATOM      8  C   LIG d   1      -4.726  78.254 116.943  0.00  0.00     0.119 C 
BRANCH   8   9
ATOM      9  C   LIG d   1      -3.559  78.955 116.219  0.00  0.00     0.028 C 
ATOM     10  C   LIG d   1      -2.349  79.183 117.141  0.00  0.00     0.006 C 
ENDBRANCH   8   9
BRANCH   8  11
ATOM     11  C   LIG d   1      -4.795  76.851 116.334  0.00  0.00     0.028 C 
ATOM     12  C   LIG d   1      -4.757  75.739 117.394  0.00  0.00     0.006 C 
ENDBRANCH   8  11
ENDBRANCH   7   8
ENDBRANCH   1   7
BRANCH   6  13
ATOM     13  N   LIG d   1      -5.346  81.804 117.632  0.00  0.00    -0.311 N 
ATOM     14  C   LIG d   1      -4.637  81.791 118.759  0.00  0.00     0.210 C 
ATOM     15  C   LIG d   1      -3.285  82.506 118.682  0.00  0.00     0.109 C 
ATOM     16  O   LIG d   1      -4.986  81.226 119.807  0.00  0.00    -0.276 OA
ATOM     17  H   LIG d   1      -4.973  82.258 116.820  0.00  0.00     0.149 HD
ENDBRANCH   6  13
BRANCH   5  18
ATOM     18  N   LIG d   1      -7.992  83.253 118.114  0.00  0.00     0.381 N 
ATOM     19  H   LIG d   1      -8.871  83.534 118.501  0.00  0.00    -0.090 HD
ATOM     20  H   LIG d   1      -8.040  83.356 117.115  0.00  0.00    -0.090 HD
ATOM     21  H   LIG d   1      -7.262  83.825 118.479  0.00  0.00    -0.090 HD
ENDBRANCH   5  18
BRANCH   3  22
ATOM     22  C   LIG d   1      -9.997  78.992 118.988  0.00  0.00     0.382 C 
ATOM     23  O   LIG d   1     -10.478  78.022 118.355  0.00  0.00    -0.241 OA
ATOM     24  O   LIG d   1     -10.517  79.341 120.065  0.00  0.00    -0.241 OA
ENDBRANCH   3  22
TORSDOF 7
ENDMDL
