MODEL 1
REMARK VINA RESULT:      -5.5      0.000      0.000
REMARK  7 active torsions:
REMARK  status: ('A' for Active; 'I' for Inactive)
REMARK    1  A    between atoms: C_2  and  C_3 
REMARK    2  A    between atoms: C_3  and  O_6 
REMARK    3  A    between atoms: C_3  and  C_4 
REMARK    4  A    between atoms: C_7  and  O_6 
REMARK    5  A    between atoms: C_9  and  C_10 
REMARK    6  A    between atoms: N_15  and  C_14 
REMARK    7  A    between atoms: N_20  and  C_19 
REMARK       I    between atoms: C_22  and  N_20 
ROOT
ATOM      1  C   LIG d   1      -7.201  78.555 117.863  0.00  0.00     0.161 C 
ATOM      2  C   LIG d   1      -5.975  78.051 118.328  0.00  0.00     0.016 C 
ATOM      3  C   LIG d   1      -5.277  78.599 119.429  0.00  0.00     0.038 C 
ATOM      4  C   LIG d   1      -5.835  79.600 120.238  0.00  0.00     0.028 C 
ATOM      5  C   LIG d   1      -6.842  80.480 119.504  0.00  0.00    -0.047 C 
ATOM      6  C   LIG d   1      -7.879  79.575 118.800  0.00  0.00     0.091 C 
ENDROOT
BRANCH   1   7
ATOM      7  O   LIG d   1      -8.099  77.465 117.575  0.00  0.00    -0.368 OA
BRANCH   7   8
ATOM      8  C   LIG d   1      -7.612  76.137 117.891  0.00  0.00     0.119 C 
BRANCH   8   9
ATOM      9  C   LIG d   1      -7.887  75.240 116.669  0.00  0.00     0.028 C 
ATOM     10  C   LIG d   1      -7.576  73.759 116.947  0.00  0.00     0.006 C 
ENDBRANCH   8   9
BRANCH   8  11
ATOM     11  C   LIG d   1      -8.407  75.512 119.041  0.00  0.00     0.028 C 
ATOM     12  C   LIG d   1      -9.604  76.373 119.476  0.00  0.00     0.006 C 
ENDBRANCH   8  11
ENDBRANCH   7   8
ENDBRANCH   1   7
BRANCH   6  13
ATOM     13  N   LIG d   1      -8.853  80.353 117.990  0.00  0.00    -0.311 N 
ATOM     14  C   LIG d   1     -10.066  80.688 118.424  0.00  0.00     0.210 C 
ATOM     15  C   LIG d   1     -10.918  81.473 117.422  0.00  0.00     0.109 C 
ATOM     16  O   LIG d   1     -10.507  80.437 119.556  0.00  0.00    -0.276 OA
ATOM     17  H   LIG d   1      -8.566  80.625 117.070  0.00  0.00     0.149 HD
ENDBRANCH   6  13
BRANCH   5  18
ATOM     18  N   LIG d   1      -7.446  81.389 120.496  0.00  0.00     0.381 N 
ATOM     19  H   LIG d   1      -7.643  82.272 120.071  0.00  0.00    -0.090 HD
ATOM     20  H   LIG d   1      -6.790  81.537 121.243  0.00  0.00    -0.090 HD
ATOM     21  H   LIG d   1      -8.286  80.991 120.856  0.00  0.00    -0.090 HD
ENDBRANCH   5  18
BRANCH   3  22
ATOM     22  C   LIG d   1      -3.987  78.172 119.706  0.00  0.00     0.382 C 
ATOM     23  O   LIG d   1      -3.599  78.080 120.895  0.00  0.00    -0.241 OA
ATOM     24  O   LIG d   1      -3.192  77.921 118.780  0.00  0.00    -0.241 OA
ENDBRANCH   3  22
TORSDOF 7
ENDMDL
MODEL 2
REMARK VINA RESULT:      -5.1      2.224      5.363
REMARK  7 active torsions:
REMARK  status: ('A' for Active; 'I' for Inactive)
REMARK    1  A    between atoms: C_2  and  C_3 
REMARK    2  A    between atoms: C_3  and  O_6 
REMARK    3  A    between atoms: C_3  and  C_4 
REMARK    4  A    between atoms: C_7  and  O_6 
REMARK    5  A    between atoms: C_9  and  C_10 
REMARK    6  A    between atoms: N_15  and  C_14 
REMARK    7  A    between atoms: N_20  and  C_19 
REMARK       I    between atoms: C_22  and  N_20 
ROOT
ATOM      1  C   LIG d   1      -7.111  77.809 118.056  0.00  0.00     0.161 C 
ATOM      2  C   LIG d   1      -7.435  79.165 117.883  0.00  0.00     0.016 C 
ATOM      3  C   LIG d   1      -8.718  79.698 118.143  0.00  0.00     0.038 C 
ATOM      4  C   LIG d   1      -9.730  78.935 118.744  0.00  0.00     0.028 C 
ATOM      5  C   LIG d   1      -9.605  77.440 118.468  0.00  0.00    -0.047 C 
ATOM      6  C   LIG d   1      -8.170  76.984 118.815  0.00  0.00     0.091 C 
ENDROOT
BRANCH   1   7
ATOM      7  O   LIG d   1      -5.827  77.692 118.702  0.00  0.00    -0.368 OA
BRANCH   7   8
ATOM      8  C   LIG d   1      -5.449  78.787 119.572  0.00  0.00     0.119 C 
BRANCH   8   9
ATOM      9  C   LIG d   1      -3.915  78.916 119.513  0.00  0.00     0.028 C 
ATOM     10  C   LIG d   1      -3.414  80.241 120.113  0.00  0.00     0.006 C 
ENDBRANCH   8   9
BRANCH   8  11
ATOM     11  C   LIG d   1      -5.774  78.474 121.035  0.00  0.00     0.028 C 
ATOM     12  C   LIG d   1      -6.981  79.268 121.560  0.00  0.00     0.006 C 
ENDBRANCH   8  11
ENDBRANCH   7   8
ENDBRANCH   1   7
BRANCH   6  13
ATOM     13  N   LIG d   1      -7.938  75.551 118.495  0.00  0.00    -0.311 N 
ATOM     14  C   LIG d   1      -7.913  75.072 117.253  0.00  0.00     0.210 C 
ATOM     15  C   LIG d   1      -7.678  73.562 117.146  0.00  0.00     0.109 C 
ATOM     16  O   LIG d   1      -8.030  75.760 116.227  0.00  0.00    -0.276 OA
ATOM     17  H   LIG d   1      -7.802  74.927 119.267  0.00  0.00     0.149 HD
ENDBRANCH   6  13
BRANCH   5  18
ATOM     18  N   LIG d   1     -10.640  76.752 119.263  0.00  0.00     0.381 N 
ATOM     19  H   LIG d   1     -10.921  75.912 118.799  0.00  0.00    -0.090 HD
ATOM     20  H   LIG d   1     -11.442  77.353 119.342  0.00  0.00    -0.090 HD
ATOM     21  H   LIG d   1     -10.286  76.537 120.169  0.00  0.00    -0.090 HD
ENDBRANCH   5  18
BRANCH   3  22
ATOM     22  C   LIG d   1      -9.011  81.000 117.766  0.00  0.00     0.382 C 
ATOM     23  O   LIG d   1      -9.232  81.872 118.640  0.00  0.00    -0.241 OA
ATOM     24  O   LIG d   1      -9.100  81.303 116.561  0.00  0.00    -0.241 OA
ENDBRANCH   3  22
TORSDOF 7
ENDMDL
MODEL 3
REMARK VINA RESULT:      -5.0      1.638      2.412
REMARK  7 active torsions:
REMARK  status: ('A' for Active; 'I' for Inactive)
REMARK    1  A    between atoms: C_2  and  C_3 
REMARK    2  A    between atoms: C_3  and  O_6 
REMARK    3  A    between atoms: C_3  and  C_4 
REMARK    4  A    between atoms: C_7  and  O_6 
REMARK    5  A    between atoms: C_9  and  C_10 
REMARK    6  A    between atoms: N_15  and  C_14 
REMARK    7  A    between atoms: N_20  and  C_19 
REMARK       I    between atoms: C_22  and  N_20 
ROOT
ATOM      1  C   LIG d   1      -7.681  79.392 119.298  0.00  0.00     0.161 C 
ATOM      2  C   LIG d   1      -6.327  79.167 119.599  0.00  0.00     0.016 C 
ATOM      3  C   LIG d   1      -5.480  80.152 120.156  0.00  0.00     0.038 C 
ATOM      4  C   LIG d   1      -5.971  81.391 120.593  0.00  0.00     0.028 C 
ATOM      5  C   LIG d   1      -7.222  81.844 119.848  0.00  0.00    -0.047 C 
ATOM      6  C   LIG d   1      -8.262  80.701 119.871  0.00  0.00     0.091 C 
ENDROOT
BRANCH   1   7
ATOM      7  O   LIG d   1      -8.470  78.264 119.726  0.00  0.00    -0.368 OA
BRANCH   7   8
ATOM      8  C   LIG d   1      -9.136  77.518 118.678  0.00  0.00     0.119 C 
BRANCH   8   9
ATOM      9  C   LIG d   1     -10.490  77.041 119.239  0.00  0.00     0.028 C 
ATOM     10  C   LIG d   1     -10.938  77.856 120.464  0.00  0.00     0.006 C 
ENDBRANCH   8   9
BRANCH   8  11
ATOM     11  C   LIG d   1      -8.369  76.239 118.330  0.00  0.00     0.028 C 
ATOM     12  C   LIG d   1      -8.434  75.183 119.444  0.00  0.00     0.006 C 
ENDBRANCH   8  11
ENDBRANCH   7   8
ENDBRANCH   1   7
BRANCH   6  13
ATOM     13  N   LIG d   1      -9.483  81.030 119.092  0.00  0.00    -0.311 N 
ATOM     14  C   LIG d   1      -9.504  81.115 117.763  0.00  0.00     0.210 C 
ATOM     15  C   LIG d   1     -10.863  81.486 117.160  0.00  0.00     0.109 C 
ATOM     16  O   LIG d   1      -8.534  80.887 117.024  0.00  0.00    -0.276 OA
ATOM     17  H   LIG d   1     -10.323  81.199 119.610  0.00  0.00     0.149 HD
ENDBRANCH   6  13
BRANCH   5  18
ATOM     18  N   LIG d   1      -7.704  83.079 120.495  0.00  0.00     0.381 N 
ATOM     19  H   LIG d   1      -7.474  83.062 121.469  0.00  0.00    -0.090 HD
ATOM     20  H   LIG d   1      -8.704  83.122 120.409  0.00  0.00    -0.090 HD
ATOM     21  H   LIG d   1      -7.291  83.875 120.062  0.00  0.00    -0.090 HD
ENDBRANCH   5  18
BRANCH   3  22
ATOM     22  C   LIG d   1      -4.116  79.916 120.243  0.00  0.00     0.382 C 
ATOM     23  O   LIG d   1      -3.411  80.596 121.027  0.00  0.00    -0.241 OA
ATOM     24  O   LIG d   1      -3.575  79.063 119.515  0.00  0.00    -0.241 OA
ENDBRANCH   3  22
TORSDOF 7
ENDMDL
MODEL 4
REMARK VINA RESULT:      -4.8     12.213     14.797
REMARK  7 active torsions:
REMARK  status: ('A' for Active; 'I' for Inactive)
REMARK    1  A    between atoms: C_2  and  C_3 
REMARK    2  A    between atoms: C_3  and  O_6 
REMARK    3  A    between atoms: C_3  and  C_4 
REMARK    4  A    between atoms: C_7  and  O_6 
REMARK    5  A    between atoms: C_9  and  C_10 
REMARK    6  A    between atoms: N_15  and  C_14 
REMARK    7  A    between atoms: N_20  and  C_19 
REMARK       I    between atoms: C_22  and  N_20 
ROOT
ATOM      1  C   LIG d   1      -4.633  92.462 117.469  0.00  0.00     0.161 C 
ATOM      2  C   LIG d   1      -5.659  91.610 117.027  0.00  0.00     0.016 C 
ATOM      3  C   LIG d   1      -5.448  90.259 116.669  0.00  0.00     0.038 C 
ATOM      4  C   LIG d   1      -4.216  89.621 116.874  0.00  0.00     0.028 C 
ATOM      5  C   LIG d   1      -3.027  90.576 116.843  0.00  0.00    -0.047 C 
ATOM      6  C   LIG d   1      -3.304  91.753 117.805  0.00  0.00     0.091 C 
ENDROOT
BRANCH   1   7
ATOM      7  O   LIG d   1      -5.090  93.232 118.599  0.00  0.00    -0.368 OA
BRANCH   7   8
ATOM      8  C   LIG d   1      -6.481  93.062 118.966  0.00  0.00     0.119 C 
BRANCH   8   9
ATOM      9  C   LIG d   1      -7.108  94.466 119.067  0.00  0.00     0.028 C 
ATOM     10  C   LIG d   1      -7.419  95.070 117.688  0.00  0.00     0.006 C 
ENDBRANCH   8   9
BRANCH   8  11
ATOM     11  C   LIG d   1      -6.619  92.454 120.365  0.00  0.00     0.028 C 
ATOM     12  C   LIG d   1      -5.265  92.079 120.987  0.00  0.00     0.006 C 
ENDBRANCH   8  11
ENDBRANCH   7   8
ENDBRANCH   1   7
BRANCH   6  13
ATOM     13  N   LIG d   1      -2.227  92.778 117.772  0.00  0.00    -0.311 N 
ATOM     14  C   LIG d   1      -1.570  93.185 118.857  0.00  0.00     0.210 C 
ATOM     15  C   LIG d   1      -0.512  94.264 118.604  0.00  0.00     0.109 C 
ATOM     16  O   LIG d   1      -1.741  92.733 119.999  0.00  0.00    -0.276 OA
ATOM     17  H   LIG d   1      -2.003  93.175 116.881  0.00  0.00     0.149 HD
ENDBRANCH   6  13
BRANCH   5  18
ATOM     18  N   LIG d   1      -1.825  89.803 117.206  0.00  0.00     0.381 N 
ATOM     19  H   LIG d   1      -2.092  88.967 117.687  0.00  0.00    -0.090 HD
ATOM     20  H   LIG d   1      -1.258  90.355 117.826  0.00  0.00    -0.090 HD
ATOM     21  H   LIG d   1      -1.306  89.573 116.387  0.00  0.00    -0.090 HD
ENDBRANCH   5  18
BRANCH   3  22
ATOM     22  C   LIG d   1      -6.468  89.542 116.061  0.00  0.00     0.382 C 
ATOM     23  O   LIG d   1      -7.561  90.102 115.806  0.00  0.00    -0.241 OA
ATOM     24  O   LIG d   1      -6.323  88.332 115.805  0.00  0.00    -0.241 OA
ENDBRANCH   3  22
TORSDOF 7
ENDMDL
MODEL 5
REMARK VINA RESULT:      -4.7     12.848     15.067
REMARK  7 active torsions:
REMARK  status: ('A' for Active; 'I' for Inactive)
REMARK    1  A    between atoms: C_2  and  C_3 
REMARK    2  A    between atoms: C_3  and  O_6 
REMARK    3  A    between atoms: C_3  and  C_4 
REMARK    4  A    between atoms: C_7  and  O_6 
REMARK    5  A    between atoms: C_9  and  C_10 
REMARK    6  A    between atoms: N_15  and  C_14 
REMARK    7  A    between atoms: N_20  and  C_19 
REMARK       I    between atoms: C_22  and  N_20 
ROOT
ATOM      1  C   LIG d   1      -3.353  92.364 118.035  0.00  0.00     0.161 C 
ATOM      2  C   LIG d   1      -2.553  91.213 117.939  0.00  0.00     0.016 C 
ATOM      3  C   LIG d   1      -3.044  89.958 117.513  0.00  0.00     0.038 C 
ATOM      4  C   LIG d   1      -4.343  89.802 117.007  0.00  0.00     0.028 C 
ATOM      5  C   LIG d   1      -5.334  90.822 117.558  0.00  0.00    -0.047 C 
ATOM      6  C   LIG d   1      -4.745  92.240 117.381  0.00  0.00     0.091 C 
ENDROOT
BRANCH   1   7
ATOM      7  O   LIG d   1      -2.646  93.498 117.496  0.00  0.00    -0.368 OA
BRANCH   7   8
ATOM      8  C   LIG d   1      -2.214  94.495 118.454  0.00  0.00     0.119 C 
BRANCH   8   9
ATOM      9  C   LIG d   1      -0.678  94.417 118.545  0.00  0.00     0.028 C 
ATOM     10  C   LIG d   1      -0.043  95.765 118.923  0.00  0.00     0.006 C 
ENDBRANCH   8   9
BRANCH   8  11
ATOM     11  C   LIG d   1      -2.720  94.169 119.863  0.00  0.00     0.028 C 
ATOM     12  C   LIG d   1      -3.667  95.245 120.419  0.00  0.00     0.006 C 
ENDBRANCH   8  11
ENDBRANCH   7   8
ENDBRANCH   1   7
BRANCH   6  13
ATOM     13  N   LIG d   1      -5.615  93.292 117.971  0.00  0.00    -0.311 N 
ATOM     14  C   LIG d   1      -6.575  93.915 117.290  0.00  0.00     0.210 C 
ATOM     15  C   LIG d   1      -7.340  94.981 118.082  0.00  0.00     0.109 C 
ATOM     16  O   LIG d   1      -6.887  93.665 116.116  0.00  0.00    -0.276 OA
ATOM     17  H   LIG d   1      -5.451  93.535 118.928  0.00  0.00     0.149 HD
ENDBRANCH   6  13
BRANCH   5  18
ATOM     18  N   LIG d   1      -6.611  90.632 116.844  0.00  0.00     0.381 N 
ATOM     19  H   LIG d   1      -6.535  89.860 116.213  0.00  0.00    -0.090 HD
ATOM     20  H   LIG d   1      -6.810  91.459 116.309  0.00  0.00    -0.090 HD
ATOM     21  H   LIG d   1      -7.345  90.467 117.497  0.00  0.00    -0.090 HD
ENDBRANCH   5  18
BRANCH   3  22
ATOM     22  C   LIG d   1      -2.243  88.832 117.629  0.00  0.00     0.382 C 
ATOM     23  O   LIG d   1      -0.994  88.944 117.587  0.00  0.00    -0.241 OA
ATOM     24  O   LIG d   1      -2.754  87.701 117.731  0.00  0.00    -0.241 OA
ENDBRANCH   3  22
TORSDOF 7
ENDMDL
MODEL 6
REMARK VINA RESULT:      -4.7     11.541     13.747
REMARK  7 active torsions:
REMARK  status: ('A' for Active; 'I' for Inactive)
REMARK    1  A    between atoms: C_2  and  C_3 
REMARK    2  A    between atoms: C_3  and  O_6 
REMARK    3  A    between atoms: C_3  and  C_4 
REMARK    4  A    between atoms: C_7  and  O_6 
REMARK    5  A    between atoms: C_9  and  C_10 
REMARK    6  A    between atoms: N_15  and  C_14 
REMARK    7  A    between atoms: N_20  and  C_19 
REMARK       I    between atoms: C_22  and  N_20 
ROOT
ATOM      1  C   LIG d   1      -2.917  90.243 117.778  0.00  0.00     0.161 C 
ATOM      2  C   LIG d   1      -3.961  89.653 117.047  0.00  0.00     0.016 C 
ATOM      3  C   LIG d   1      -5.109  90.359 116.619  0.00  0.00     0.038 C 
ATOM      4  C   LIG d   1      -5.220  91.750 116.765  0.00  0.00     0.028 C 
ATOM      5  C   LIG d   1      -4.423  92.302 117.942  0.00  0.00    -0.047 C 
ATOM      6  C   LIG d   1      -2.969  91.784 117.850  0.00  0.00     0.091 C 
ENDROOT
BRANCH   1   7
ATOM      7  O   LIG d   1      -1.647  89.809 117.255  0.00  0.00    -0.368 OA
BRANCH   7   8
ATOM      8  C   LIG d   1      -0.905  88.875 118.077  0.00  0.00     0.119 C 
BRANCH   8   9
ATOM      9  C   LIG d   1      -1.026  87.485 117.423  0.00  0.00     0.028 C 
ATOM     10  C   LIG d   1      -1.811  86.492 118.297  0.00  0.00     0.006 C 
ENDBRANCH   8   9
BRANCH   8  11
ATOM     11  C   LIG d   1      -1.538  88.728 119.464  0.00  0.00     0.028 C 
ATOM     12  C   LIG d   1      -0.649  89.285 120.587  0.00  0.00     0.006 C 
ENDBRANCH   8  11
ENDBRANCH   7   8
ENDBRANCH   1   7
BRANCH   6  13
ATOM     13  N   LIG d   1      -2.142  92.208 119.009  0.00  0.00    -0.311 N 
ATOM     14  C   LIG d   1      -1.348  93.278 118.991  0.00  0.00     0.210 C 
ATOM     15  C   LIG d   1      -0.567  93.525 120.286  0.00  0.00     0.109 C 
ATOM     16  O   LIG d   1      -1.241  94.063 118.037  0.00  0.00    -0.276 OA
ATOM     17  H   LIG d   1      -2.192  91.646 119.836  0.00  0.00     0.149 HD
ENDBRANCH   6  13
BRANCH   5  18
ATOM     18  N   LIG d   1      -4.517  93.773 117.893  0.00  0.00     0.381 N 
ATOM     19  H   LIG d   1      -4.576  94.139 118.822  0.00  0.00    -0.090 HD
ATOM     20  H   LIG d   1      -5.353  94.029 117.399  0.00  0.00    -0.090 HD
ATOM     21  H   LIG d   1      -3.719  94.150 117.430  0.00  0.00    -0.090 HD
ENDBRANCH   5  18
BRANCH   3  22
ATOM     22  C   LIG d   1      -6.179  89.666 116.074  0.00  0.00     0.382 C 
ATOM     23  O   LIG d   1      -7.275  90.249 115.889  0.00  0.00    -0.241 OA
ATOM     24  O   LIG d   1      -6.076  88.454 115.805  0.00  0.00    -0.241 OA
ENDBRANCH   3  22
TORSDOF 7
ENDMDL
MODEL 7
REMARK VINA RESULT:      -4.7     11.286     14.004
REMARK  7 active torsions:
REMARK  status: ('A' for Active; 'I' for Inactive)
REMARK    1  A    between atoms: C_2  and  C_3 
REMARK    2  A    between atoms: C_3  and  O_6 
REMARK    3  A    between atoms: C_3  and  C_4 
REMARK    4  A    between atoms: C_7  and  O_6 
REMARK    5  A    between atoms: C_9  and  C_10 
REMARK    6  A    between atoms: N_15  and  C_14 
REMARK    7  A    between atoms: N_20  and  C_19 
REMARK       I    between atoms: C_22  and  N_20 
ROOT
ATOM      1  C   LIG d   1     -15.478  67.887 119.864  0.00  0.00     0.161 C 
ATOM      2  C   LIG d   1     -15.015  66.561 119.865  0.00  0.00     0.016 C 
ATOM      3  C   LIG d   1     -15.488  65.571 118.973  0.00  0.00     0.038 C 
ATOM      4  C   LIG d   1     -16.354  65.880 117.914  0.00  0.00     0.028 C 
ATOM      5  C   LIG d   1     -17.235  67.095 118.186  0.00  0.00    -0.047 C 
ATOM      6  C   LIG d   1     -16.341  68.270 118.644  0.00  0.00     0.091 C 
ENDROOT
BRANCH   1   7
ATOM      7  O   LIG d   1     -14.365  68.794 119.996  0.00  0.00    -0.368 OA
BRANCH   7   8
ATOM      8  C   LIG d   1     -14.143  69.343 121.318  0.00  0.00     0.119 C 
BRANCH   8   9
ATOM      9  C   LIG d   1     -14.566  70.824 121.280  0.00  0.00     0.028 C 
ATOM     10  C   LIG d   1     -15.887  71.077 122.026  0.00  0.00     0.006 C 
ENDBRANCH   8   9
BRANCH   8  11
ATOM     11  C   LIG d   1     -12.653  69.355 121.673  0.00  0.00     0.028 C 
ATOM     12  C   LIG d   1     -12.214  70.661 122.354  0.00  0.00     0.006 C 
ENDBRANCH   8  11
ENDBRANCH   7   8
ENDBRANCH   1   7
BRANCH   6  13
ATOM     13  N   LIG d   1     -17.131  69.474 119.012  0.00  0.00    -0.311 N 
ATOM     14  C   LIG d   1     -17.004  70.650 118.400  0.00  0.00     0.210 C 
ATOM     15  C   LIG d   1     -17.900  71.765 118.949  0.00  0.00     0.109 C 
ATOM     16  O   LIG d   1     -16.258  70.867 117.434  0.00  0.00    -0.276 OA
ATOM     17  H   LIG d   1     -17.784  69.378 119.766  0.00  0.00     0.149 HD
ENDBRANCH   6  13
BRANCH   5  18
ATOM     18  N   LIG d   1     -17.986  67.387 116.951  0.00  0.00     0.381 N 
ATOM     19  H   LIG d   1     -17.360  67.406 116.170  0.00  0.00    -0.090 HD
ATOM     20  H   LIG d   1     -18.412  68.293 117.036  0.00  0.00    -0.090 HD
ATOM     21  H   LIG d   1     -18.688  66.695 116.807  0.00  0.00    -0.090 HD
ENDBRANCH   5  18
BRANCH   3  22
ATOM     22  C   LIG d   1     -15.126  64.246 119.162  0.00  0.00     0.382 C 
ATOM     23  O   LIG d   1     -16.010  63.362 119.258  0.00  0.00    -0.241 OA
ATOM     24  O   LIG d   1     -13.927  63.930 119.282  0.00  0.00    -0.241 OA
ENDBRANCH   3  22
TORSDOF 7
ENDMDL
MODEL 8
REMARK VINA RESULT:      -4.5     10.833     13.384
REMARK  7 active torsions:
REMARK  status: ('A' for Active; 'I' for Inactive)
REMARK    1  A    between atoms: C_2  and  C_3 
REMARK    2  A    between atoms: C_3  and  O_6 
REMARK    3  A    between atoms: C_3  and  C_4 
REMARK    4  A    between atoms: C_7  and  O_6 
REMARK    5  A    between atoms: C_9  and  C_10 
REMARK    6  A    between atoms: N_15  and  C_14 
REMARK    7  A    between atoms: N_20  and  C_19 
REMARK       I    between atoms: C_22  and  N_20 
ROOT
ATOM      1  C   LIG d   1     -17.166  70.493 120.688  0.00  0.00     0.161 C 
ATOM      2  C   LIG d   1     -16.095  69.698 120.247  0.00  0.00     0.016 C 
ATOM      3  C   LIG d   1     -16.252  68.596 119.375  0.00  0.00     0.038 C 
ATOM      4  C   LIG d   1     -17.479  68.306 118.760  0.00  0.00     0.028 C 
ATOM      5  C   LIG d   1     -18.686  68.773 119.567  0.00  0.00    -0.047 C 
ATOM      6  C   LIG d   1     -18.495  70.260 119.940  0.00  0.00     0.091 C 
ENDROOT
BRANCH   1   7
ATOM      7  O   LIG d   1     -16.796  71.885 120.631  0.00  0.00    -0.368 OA
BRANCH   7   8
ATOM      8  C   LIG d   1     -15.754  72.230 119.684  0.00  0.00     0.119 C 
BRANCH   8   9
ATOM      9  C   LIG d   1     -14.890  73.331 120.328  0.00  0.00     0.028 C 
ATOM     10  C   LIG d   1     -14.671  74.529 119.389  0.00  0.00     0.006 C 
ENDBRANCH   8   9
BRANCH   8  11
ATOM     11  C   LIG d   1     -16.339  72.861 118.418  0.00  0.00     0.028 C 
ATOM     12  C   LIG d   1     -16.367  71.891 117.226  0.00  0.00     0.006 C 
ENDBRANCH   8  11
ENDBRANCH   7   8
ENDBRANCH   1   7
BRANCH   6  13
ATOM     13  N   LIG d   1     -19.592  70.773 120.802  0.00  0.00    -0.311 N 
ATOM     14  C   LIG d   1     -20.171  71.959 120.624  0.00  0.00     0.210 C 
ATOM     15  C   LIG d   1     -21.267  72.303 121.637  0.00  0.00     0.109 C 
ATOM     16  O   LIG d   1     -19.903  72.746 119.703  0.00  0.00    -0.276 OA
ATOM     17  H   LIG d   1     -19.893  70.186 121.555  0.00  0.00     0.149 HD
ENDBRANCH   6  13
BRANCH   5  18
ATOM     18  N   LIG d   1     -19.889  68.532 118.748  0.00  0.00     0.381 N 
ATOM     19  H   LIG d   1     -20.520  67.933 119.242  0.00  0.00    -0.090 HD
ATOM     20  H   LIG d   1     -19.617  68.071 117.898  0.00  0.00    -0.090 HD
ATOM     21  H   LIG d   1     -20.337  69.396 118.538  0.00  0.00    -0.090 HD
ENDBRANCH   5  18
BRANCH   3  22
ATOM     22  C   LIG d   1     -15.181  67.747 119.140  0.00  0.00     0.382 C 
ATOM     23  O   LIG d   1     -14.679  67.672 117.993  0.00  0.00    -0.241 OA
ATOM     24  O   LIG d   1     -14.739  67.022 120.052  0.00  0.00    -0.241 OA
ENDBRANCH   3  22
TORSDOF 7
ENDMDL
MODEL 9
REMARK VINA RESULT:      -4.5      9.792     12.596
REMARK  7 active torsions:
REMARK  status: ('A' for Active; 'I' for Inactive)
REMARK    1  A    between atoms: C_2  and  C_3 
REMARK    2  A    between atoms: C_3  and  O_6 
REMARK    3  A    between atoms: C_3  and  C_4 
REMARK    4  A    between atoms: C_7  and  O_6 
REMARK    5  A    between atoms: C_9  and  C_10 
REMARK    6  A    between atoms: N_15  and  C_14 
REMARK    7  A    between atoms: N_20  and  C_19 
REMARK       I    between atoms: C_22  and  N_20 
ROOT
ATOM      1  C   LIG d   1     -18.118  74.941 119.815  0.00  0.00     0.161 C 
ATOM      2  C   LIG d   1     -18.184  76.334 119.983  0.00  0.00     0.016 C 
ATOM      3  C   LIG d   1     -19.330  77.007 120.464  0.00  0.00     0.038 C 
ATOM      4  C   LIG d   1     -20.445  76.313 120.956  0.00  0.00     0.028 C 
ATOM      5  C   LIG d   1     -20.619  74.930 120.337  0.00  0.00    -0.047 C 
ATOM      6  C   LIG d   1     -19.285  74.157 120.451  0.00  0.00     0.091 C 
ENDROOT
BRANCH   1   7
ATOM      7  O   LIG d   1     -16.856  74.448 120.308  0.00  0.00    -0.368 OA
BRANCH   7   8
ATOM      8  C   LIG d   1     -15.813  74.266 119.319  0.00  0.00     0.119 C 
BRANCH   8   9
ATOM      9  C   LIG d   1     -15.658  72.751 119.083  0.00  0.00     0.028 C 
ATOM     10  C   LIG d   1     -16.224  72.307 117.724  0.00  0.00     0.006 C 
ENDBRANCH   8   9
BRANCH   8  11
ATOM     11  C   LIG d   1     -14.455  74.735 119.849  0.00  0.00     0.028 C 
ATOM     12  C   LIG d   1     -14.045  74.025 121.149  0.00  0.00     0.006 C 
ENDBRANCH   8  11
ENDBRANCH   7   8
ENDBRANCH   1   7
BRANCH   6  13
ATOM     13  N   LIG d   1     -19.344  72.825 119.795  0.00  0.00    -0.311 N 
ATOM     14  C   LIG d   1     -18.990  71.693 120.402  0.00  0.00     0.210 C 
ATOM     15  C   LIG d   1     -19.108  70.433 119.538  0.00  0.00     0.109 C 
ATOM     16  O   LIG d   1     -18.622  71.609 121.583  0.00  0.00    -0.276 OA
ATOM     17  H   LIG d   1     -19.661  72.798 118.846  0.00  0.00     0.149 HD
ENDBRANCH   6  13
BRANCH   5  18
ATOM     18  N   LIG d   1     -21.734  74.265 121.038  0.00  0.00     0.381 N 
ATOM     19  H   LIG d   1     -21.387  73.777 121.840  0.00  0.00    -0.090 HD
ATOM     20  H   LIG d   1     -22.154  73.595 120.419  0.00  0.00    -0.090 HD
ATOM     21  H   LIG d   1     -22.411  74.940 121.319  0.00  0.00    -0.090 HD
ENDBRANCH   5  18
BRANCH   3  22
ATOM     22  C   LIG d   1     -19.384  78.392 120.418  0.00  0.00     0.382 C 
ATOM     23  O   LIG d   1     -18.635  79.023 119.634  0.00  0.00    -0.241 OA
ATOM     24  O   LIG d   1     -20.140  79.020 121.183  0.00  0.00    -0.241 OA
ENDBRANCH   3  22
TORSDOF 7
ENDMDL
