MODEL 1
REMARK VINA RESULT:      -5.3      0.000      0.000
REMARK  7 active torsions:
REMARK  status: ('A' for Active; 'I' for Inactive)
REMARK    1  A    between atoms: C_2  and  C_3 
REMARK    2  A    between atoms: C_3  and  O_6 
REMARK    3  A    between atoms: C_3  and  C_4 
REMARK    4  A    between atoms: C_7  and  O_6 
REMARK    5  A    between atoms: C_9  and  C_10 
REMARK    6  A    between atoms: N_15  and  C_14 
REMARK    7  A    between atoms: N_20  and  C_19 
REMARK       I    between atoms: C_22  and  N_20 
ROOT
ATOM      1  C   LIG d   1      -0.002  57.705 116.816  0.00  0.00     0.161 C 
ATOM      2  C   LIG d   1      -0.979  58.672 117.102  0.00  0.00     0.016 C 
ATOM      3  C   LIG d   1      -2.312  58.352 117.450  0.00  0.00     0.038 C 
ATOM      4  C   LIG d   1      -2.720  57.030 117.684  0.00  0.00     0.028 C 
ATOM      5  C   LIG d   1      -1.901  55.998 116.915  0.00  0.00    -0.047 C 
ATOM      6  C   LIG d   1      -0.399  56.258 117.173  0.00  0.00     0.091 C 
ENDROOT
BRANCH   1   7
ATOM      7  O   LIG d   1       1.238  58.058 117.460  0.00  0.00    -0.368 OA
BRANCH   7   8
ATOM      8  C   LIG d   1       1.292  57.854 118.893  0.00  0.00     0.119 C 
BRANCH   8   9
ATOM      9  C   LIG d   1       1.376  59.243 119.556  0.00  0.00     0.028 C 
ATOM     10  C   LIG d   1       0.199  59.511 120.509  0.00  0.00     0.006 C 
ENDBRANCH   8   9
BRANCH   8  11
ATOM     11  C   LIG d   1       2.578  57.130 119.305  0.00  0.00     0.028 C 
ATOM     12  C   LIG d   1       3.390  56.626 118.102  0.00  0.00     0.006 C 
ENDBRANCH   8  11
ENDBRANCH   7   8
ENDBRANCH   1   7
BRANCH   6  13
ATOM     13  N   LIG d   1       0.476  55.345 116.392  0.00  0.00    -0.311 N 
ATOM     14  C   LIG d   1       0.978  54.213 116.882  0.00  0.00     0.210 C 
ATOM     15  C   LIG d   1       1.872  53.430 115.915  0.00  0.00     0.109 C 
ATOM     16  O   LIG d   1       0.741  53.766 118.015  0.00  0.00    -0.276 OA
ATOM     17  H   LIG d   1       0.694  55.615 115.453  0.00  0.00     0.149 HD
ENDBRANCH   6  13
BRANCH   5  18
ATOM     18  N   LIG d   1      -2.341  54.661 117.357  0.00  0.00     0.381 N 
ATOM     19  H   LIG d   1      -1.546  54.067 117.481  0.00  0.00    -0.090 HD
ATOM     20  H   LIG d   1      -2.926  54.261 116.645  0.00  0.00    -0.090 HD
ATOM     21  H   LIG d   1      -2.848  54.734 118.211  0.00  0.00    -0.090 HD
ENDBRANCH   5  18
BRANCH   3  22
ATOM     22  C   LIG d   1      -3.262  59.358 117.529  0.00  0.00     0.382 C 
ATOM     23  O   LIG d   1      -4.479  59.084 117.388  0.00  0.00    -0.241 OA
ATOM     24  O   LIG d   1      -2.916  60.543 117.695  0.00  0.00    -0.241 OA
ENDBRANCH   3  22
TORSDOF 7
ENDMDL
MODEL 2
REMARK VINA RESULT:      -5.1     16.989     19.352
REMARK  7 active torsions:
REMARK  status: ('A' for Active; 'I' for Inactive)
REMARK    1  A    between atoms: C_2  and  C_3 
REMARK    2  A    between atoms: C_3  and  O_6 
REMARK    3  A    between atoms: C_3  and  C_4 
REMARK    4  A    between atoms: C_7  and  O_6 
REMARK    5  A    between atoms: C_9  and  C_10 
REMARK    6  A    between atoms: N_15  and  C_14 
REMARK    7  A    between atoms: N_20  and  C_19 
REMARK       I    between atoms: C_22  and  N_20 
ROOT
ATOM      1  C   LIG d   1      -6.367  74.449 117.809  0.00  0.00     0.161 C 
ATOM      2  C   LIG d   1      -5.137  73.900 117.409  0.00  0.00     0.016 C 
ATOM      3  C   LIG d   1      -3.887  74.377 117.865  0.00  0.00     0.038 C 
ATOM      4  C   LIG d   1      -3.786  75.345 118.875  0.00  0.00     0.028 C 
ATOM      5  C   LIG d   1      -4.989  76.280 118.940  0.00  0.00    -0.047 C 
ATOM      6  C   LIG d   1      -6.281  75.433 118.995  0.00  0.00     0.091 C 
ENDROOT
BRANCH   1   7
ATOM      7  O   LIG d   1      -7.303  73.393 118.101  0.00  0.00    -0.368 OA
BRANCH   7   8
ATOM      8  C   LIG d   1      -8.156  72.976 117.006  0.00  0.00     0.119 C 
BRANCH   8   9
ATOM      9  C   LIG d   1      -9.612  73.036 117.506  0.00  0.00     0.028 C 
ATOM     10  C   LIG d   1     -10.237  74.429 117.325  0.00  0.00     0.006 C 
ENDBRANCH   8   9
BRANCH   8  11
ATOM     11  C   LIG d   1      -7.913  71.509 116.638  0.00  0.00     0.028 C 
ATOM     12  C   LIG d   1      -9.162  70.633 116.826  0.00  0.00     0.006 C 
ENDBRANCH   8  11
ENDBRANCH   7   8
ENDBRANCH   1   7
BRANCH   6  13
ATOM     13  N   LIG d   1      -7.509  76.269 118.976  0.00  0.00    -0.311 N 
ATOM     14  C   LIG d   1      -8.287  76.454 120.041  0.00  0.00     0.210 C 
ATOM     15  C   LIG d   1      -9.516  77.336 119.799  0.00  0.00     0.109 C 
ATOM     16  O   LIG d   1      -8.059  75.997 121.171  0.00  0.00    -0.276 OA
ATOM     17  H   LIG d   1      -7.752  76.703 118.107  0.00  0.00     0.149 HD
ENDBRANCH   6  13
BRANCH   5  18
ATOM     18  N   LIG d   1      -4.817  77.147 120.121  0.00  0.00     0.381 N 
ATOM     19  H   LIG d   1      -4.050  77.773 119.972  0.00  0.00    -0.090 HD
ATOM     20  H   LIG d   1      -4.606  76.573 120.918  0.00  0.00    -0.090 HD
ATOM     21  H   LIG d   1      -5.650  77.667 120.288  0.00  0.00    -0.090 HD
ENDBRANCH   5  18
BRANCH   3  22
ATOM     22  C   LIG d   1      -2.719  73.913 117.279  0.00  0.00     0.382 C 
ATOM     23  O   LIG d   1      -1.940  73.176 117.932  0.00  0.00    -0.241 OA
ATOM     24  O   LIG d   1      -2.413  74.256 116.122  0.00  0.00    -0.241 OA
ENDBRANCH   3  22
TORSDOF 7
ENDMDL
MODEL 3
REMARK VINA RESULT:      -5.0      2.408      5.546
REMARK  7 active torsions:
REMARK  status: ('A' for Active; 'I' for Inactive)
REMARK    1  A    between atoms: C_2  and  C_3 
REMARK    2  A    between atoms: C_3  and  O_6 
REMARK    3  A    between atoms: C_3  and  C_4 
REMARK    4  A    between atoms: C_7  and  O_6 
REMARK    5  A    between atoms: C_9  and  C_10 
REMARK    6  A    between atoms: N_15  and  C_14 
REMARK    7  A    between atoms: N_20  and  C_19 
REMARK       I    between atoms: C_22  and  N_20 
ROOT
ATOM      1  C   LIG d   1       0.005  58.442 116.838  0.00  0.00     0.161 C 
ATOM      2  C   LIG d   1       1.381  58.436 117.119  0.00  0.00     0.016 C 
ATOM      3  C   LIG d   1       1.938  58.989 118.295  0.00  0.00     0.038 C 
ATOM      4  C   LIG d   1       1.135  59.455 119.347  0.00  0.00     0.028 C 
ATOM      5  C   LIG d   1      -0.236  59.941 118.893  0.00  0.00    -0.047 C 
ATOM      6  C   LIG d   1      -0.896  58.846 118.024  0.00  0.00     0.091 C 
ENDROOT
BRANCH   1   7
ATOM      7  O   LIG d   1      -0.394  57.158 116.321  0.00  0.00    -0.368 OA
BRANCH   7   8
ATOM      8  C   LIG d   1      -0.396  56.061 117.268  0.00  0.00     0.119 C 
BRANCH   8   9
ATOM      9  C   LIG d   1       0.365  54.888 116.619  0.00  0.00     0.028 C 
ATOM     10  C   LIG d   1       1.769  54.697 117.216  0.00  0.00     0.006 C 
ENDBRANCH   8   9
BRANCH   8  11
ATOM     11  C   LIG d   1      -1.814  55.539 117.514  0.00  0.00     0.028 C 
ATOM     12  C   LIG d   1      -1.843  54.053 117.903  0.00  0.00     0.006 C 
ENDBRANCH   8  11
ENDBRANCH   7   8
ENDBRANCH   1   7
BRANCH   6  13
ATOM     13  N   LIG d   1      -2.206  59.274 117.469  0.00  0.00    -0.311 N 
ATOM     14  C   LIG d   1      -3.372  59.009 118.055  0.00  0.00     0.210 C 
ATOM     15  C   LIG d   1      -4.604  59.525 117.305  0.00  0.00     0.109 C 
ATOM     16  O   LIG d   1      -3.502  58.423 119.140  0.00  0.00    -0.276 OA
ATOM     17  H   LIG d   1      -2.192  59.782 116.607  0.00  0.00     0.149 HD
ENDBRANCH   6  13
BRANCH   5  18
ATOM     18  N   LIG d   1      -1.016  60.268 120.102  0.00  0.00     0.381 N 
ATOM     19  H   LIG d   1      -1.048  59.473 120.709  0.00  0.00    -0.090 HD
ATOM     20  H   LIG d   1      -1.957  60.495 119.831  0.00  0.00    -0.090 HD
ATOM     21  H   LIG d   1      -0.603  61.041 120.576  0.00  0.00    -0.090 HD
ENDBRANCH   5  18
BRANCH   3  22
ATOM     22  C   LIG d   1       3.314  59.117 118.409  0.00  0.00     0.382 C 
ATOM     23  O   LIG d   1       3.818  59.524 119.484  0.00  0.00    -0.241 OA
ATOM     24  O   LIG d   1       4.054  58.873 117.438  0.00  0.00    -0.241 OA
ENDBRANCH   3  22
TORSDOF 7
ENDMDL
MODEL 4
REMARK VINA RESULT:      -4.8      2.211      3.680
REMARK  7 active torsions:
REMARK  status: ('A' for Active; 'I' for Inactive)
REMARK    1  A    between atoms: C_2  and  C_3 
REMARK    2  A    between atoms: C_3  and  O_6 
REMARK    3  A    between atoms: C_3  and  C_4 
REMARK    4  A    between atoms: C_7  and  O_6 
REMARK    5  A    between atoms: C_9  and  C_10 
REMARK    6  A    between atoms: N_15  and  C_14 
REMARK    7  A    between atoms: N_20  and  C_19 
REMARK       I    between atoms: C_22  and  N_20 
ROOT
ATOM      1  C   LIG d   1      -0.436  56.775 118.927  0.00  0.00     0.161 C 
ATOM      2  C   LIG d   1      -1.686  57.353 118.648  0.00  0.00     0.016 C 
ATOM      3  C   LIG d   1      -1.899  58.276 117.598  0.00  0.00     0.038 C 
ATOM      4  C   LIG d   1      -0.902  58.570 116.656  0.00  0.00     0.028 C 
ATOM      5  C   LIG d   1       0.513  58.398 117.197  0.00  0.00    -0.047 C 
ATOM      6  C   LIG d   1       0.637  56.998 117.842  0.00  0.00     0.091 C 
ENDROOT
BRANCH   1   7
ATOM      7  O   LIG d   1      -0.597  55.367 119.190  0.00  0.00    -0.368 OA
BRANCH   7   8
ATOM      8  C   LIG d   1      -1.948  54.851 119.097  0.00  0.00     0.119 C 
BRANCH   8   9
ATOM      9  C   LIG d   1      -2.354  54.358 120.499  0.00  0.00     0.028 C 
ATOM     10  C   LIG d   1      -3.523  55.164 121.090  0.00  0.00     0.006 C 
ENDBRANCH   8   9
BRANCH   8  11
ATOM     11  C   LIG d   1      -2.011  53.613 118.197  0.00  0.00     0.028 C 
ATOM     12  C   LIG d   1      -0.744  53.430 117.347  0.00  0.00     0.006 C 
ENDBRANCH   8  11
ENDBRANCH   7   8
ENDBRANCH   1   7
BRANCH   6  13
ATOM     13  N   LIG d   1       1.966  56.780 118.471  0.00  0.00    -0.311 N 
ATOM     14  C   LIG d   1       2.747  55.738 118.191  0.00  0.00     0.210 C 
ATOM     15  C   LIG d   1       4.067  55.693 118.967  0.00  0.00     0.109 C 
ATOM     16  O   LIG d   1       2.487  54.865 117.350  0.00  0.00    -0.276 OA
ATOM     17  H   LIG d   1       2.269  57.457 119.143  0.00  0.00     0.149 HD
ENDBRANCH   6  13
BRANCH   5  18
ATOM     18  N   LIG d   1       1.448  58.602 116.074  0.00  0.00     0.381 N 
ATOM     19  H   LIG d   1       0.952  58.957 115.281  0.00  0.00    -0.090 HD
ATOM     20  H   LIG d   1       1.853  57.718 115.823  0.00  0.00    -0.090 HD
ATOM     21  H   LIG d   1       2.165  59.241 116.340  0.00  0.00    -0.090 HD
ENDBRANCH   5  18
BRANCH   3  22
ATOM     22  C   LIG d   1      -3.109  58.946 117.507  0.00  0.00     0.382 C 
ATOM     23  O   LIG d   1      -4.186  58.317 117.645  0.00  0.00    -0.241 OA
ATOM     24  O   LIG d   1      -3.139  60.163 117.246  0.00  0.00    -0.241 OA
ENDBRANCH   3  22
TORSDOF 7
ENDMDL
MODEL 5
REMARK VINA RESULT:      -4.7      2.464      4.006
REMARK  7 active torsions:
REMARK  status: ('A' for Active; 'I' for Inactive)
REMARK    1  A    between atoms: C_2  and  C_3 
REMARK    2  A    between atoms: C_3  and  O_6 
REMARK    3  A    between atoms: C_3  and  C_4 
REMARK    4  A    between atoms: C_7  and  O_6 
REMARK    5  A    between atoms: C_9  and  C_10 
REMARK    6  A    between atoms: N_15  and  C_14 
REMARK    7  A    between atoms: N_20  and  C_19 
REMARK       I    between atoms: C_22  and  N_20 
ROOT
ATOM      1  C   LIG d   1       0.596  56.908 119.524  0.00  0.00     0.161 C 
ATOM      2  C   LIG d   1      -0.267  58.007 119.664  0.00  0.00     0.016 C 
ATOM      3  C   LIG d   1      -0.108  59.217 118.951  0.00  0.00     0.038 C 
ATOM      4  C   LIG d   1       0.845  59.358 117.931  0.00  0.00     0.028 C 
ATOM      5  C   LIG d   1       2.059  58.452 118.108  0.00  0.00    -0.047 C 
ATOM      6  C   LIG d   1       1.575  57.002 118.334  0.00  0.00     0.091 C 
ENDROOT
BRANCH   1   7
ATOM      7  O   LIG d   1      -0.171  55.690 119.446  0.00  0.00    -0.368 OA
BRANCH   7   8
ATOM      8  C   LIG d   1      -1.599  55.847 119.258  0.00  0.00     0.119 C 
BRANCH   8   9
ATOM      9  C   LIG d   1      -2.302  54.831 120.179  0.00  0.00     0.028 C 
ATOM     10  C   LIG d   1      -2.613  55.415 121.568  0.00  0.00     0.006 C 
ENDBRANCH   8   9
BRANCH   8  11
ATOM     11  C   LIG d   1      -2.019  55.464 117.836  0.00  0.00     0.028 C 
ATOM     12  C   LIG d   1      -2.130  56.678 116.900  0.00  0.00     0.006 C 
ENDBRANCH   8  11
ENDBRANCH   7   8
ENDBRANCH   1   7
BRANCH   6  13
ATOM     13  N   LIG d   1       2.697  56.065 118.600  0.00  0.00    -0.311 N 
ATOM     14  C   LIG d   1       2.872  54.923 117.937  0.00  0.00     0.210 C 
ATOM     15  C   LIG d   1       4.081  54.095 118.382  0.00  0.00     0.109 C 
ATOM     16  O   LIG d   1       2.158  54.533 117.001  0.00  0.00    -0.276 OA
ATOM     17  H   LIG d   1       3.342  56.318 119.323  0.00  0.00     0.149 HD
ENDBRANCH   6  13
BRANCH   5  18
ATOM     18  N   LIG d   1       2.903  58.599 116.907  0.00  0.00     0.381 N 
ATOM     19  H   LIG d   1       3.820  58.899 117.172  0.00  0.00    -0.090 HD
ATOM     20  H   LIG d   1       2.502  59.302 116.312  0.00  0.00    -0.090 HD
ATOM     21  H   LIG d   1       2.957  57.732 116.420  0.00  0.00    -0.090 HD
ENDBRANCH   5  18
BRANCH   3  22
ATOM     22  C   LIG d   1      -0.882  60.318 119.285  0.00  0.00     0.382 C 
ATOM     23  O   LIG d   1      -1.410  61.011 118.382  0.00  0.00    -0.241 OA
ATOM     24  O   LIG d   1      -1.023  60.653 120.477  0.00  0.00    -0.241 OA
ENDBRANCH   3  22
TORSDOF 7
ENDMDL
MODEL 6
REMARK VINA RESULT:      -4.7     17.058     19.053
REMARK  7 active torsions:
REMARK  status: ('A' for Active; 'I' for Inactive)
REMARK    1  A    between atoms: C_2  and  C_3 
REMARK    2  A    between atoms: C_3  and  O_6 
REMARK    3  A    between atoms: C_3  and  C_4 
REMARK    4  A    between atoms: C_7  and  O_6 
REMARK    5  A    between atoms: C_9  and  C_10 
REMARK    6  A    between atoms: N_15  and  C_14 
REMARK    7  A    between atoms: N_20  and  C_19 
REMARK       I    between atoms: C_22  and  N_20 
ROOT
ATOM      1  C   LIG d   1      -6.450  74.319 117.574  0.00  0.00     0.161 C 
ATOM      2  C   LIG d   1      -6.967  73.019 117.445  0.00  0.00     0.016 C 
ATOM      3  C   LIG d   1      -8.352  72.733 117.410  0.00  0.00     0.038 C 
ATOM      4  C   LIG d   1      -9.317  73.749 117.349  0.00  0.00     0.028 C 
ATOM      5  C   LIG d   1      -8.861  75.057 117.985  0.00  0.00    -0.047 C 
ATOM      6  C   LIG d   1      -7.486  75.448 117.398  0.00  0.00     0.091 C 
ENDROOT
BRANCH   1   7
ATOM      7  O   LIG d   1      -5.350  74.500 116.660  0.00  0.00    -0.368 OA
BRANCH   7   8
ATOM      8  C   LIG d   1      -4.029  74.228 117.190  0.00  0.00     0.119 C 
BRANCH   8   9
ATOM      9  C   LIG d   1      -3.945  74.884 118.582  0.00  0.00     0.028 C 
ATOM     10  C   LIG d   1      -3.114  76.178 118.573  0.00  0.00     0.006 C 
ENDBRANCH   8   9
BRANCH   8  11
ATOM     11  C   LIG d   1      -2.943  74.911 116.354  0.00  0.00     0.028 C 
ATOM     12  C   LIG d   1      -1.786  73.966 115.994  0.00  0.00     0.006 C 
ENDBRANCH   8  11
ENDBRANCH   7   8
ENDBRANCH   1   7
BRANCH   6  13
ATOM     13  N   LIG d   1      -6.928  76.673 118.028  0.00  0.00    -0.311 N 
ATOM     14  C   LIG d   1      -6.286  77.621 117.346  0.00  0.00     0.210 C 
ATOM     15  C   LIG d   1      -5.774  78.791 118.192  0.00  0.00     0.109 C 
ATOM     16  O   LIG d   1      -6.121  77.619 116.117  0.00  0.00    -0.276 OA
ATOM     17  H   LIG d   1      -7.045  76.771 119.017  0.00  0.00     0.149 HD
ENDBRANCH   6  13
BRANCH   5  18
ATOM     18  N   LIG d   1      -9.907  76.065 117.730  0.00  0.00     0.381 N 
ATOM     19  H   LIG d   1      -9.592  76.712 117.035  0.00  0.00    -0.090 HD
ATOM     20  H   LIG d   1     -10.082  76.575 118.578  0.00  0.00    -0.090 HD
ATOM     21  H   LIG d   1     -10.743  75.619 117.423  0.00  0.00    -0.090 HD
ENDBRANCH   5  18
BRANCH   3  22
ATOM     22  C   LIG d   1      -8.783  71.417 117.475  0.00  0.00     0.382 C 
ATOM     23  O   LIG d   1      -8.117  70.510 116.920  0.00  0.00    -0.241 OA
ATOM     24  O   LIG d   1      -9.853  71.130 118.045  0.00  0.00    -0.241 OA
ENDBRANCH   3  22
TORSDOF 7
ENDMDL
MODEL 7
REMARK VINA RESULT:      -4.7     17.630     20.275
REMARK  7 active torsions:
REMARK  status: ('A' for Active; 'I' for Inactive)
REMARK    1  A    between atoms: C_2  and  C_3 
REMARK    2  A    between atoms: C_3  and  O_6 
REMARK    3  A    between atoms: C_3  and  C_4 
REMARK    4  A    between atoms: C_7  and  O_6 
REMARK    5  A    between atoms: C_9  and  C_10 
REMARK    6  A    between atoms: N_15  and  C_14 
REMARK    7  A    between atoms: N_20  and  C_19 
REMARK       I    between atoms: C_22  and  N_20 
ROOT
ATOM      1  C   LIG d   1      -7.542  75.604 119.283  0.00  0.00     0.161 C 
ATOM      2  C   LIG d   1      -8.729  76.258 118.914  0.00  0.00     0.016 C 
ATOM      3  C   LIG d   1      -8.756  77.506 118.249  0.00  0.00     0.038 C 
ATOM      4  C   LIG d   1      -7.587  78.116 117.771  0.00  0.00     0.028 C 
ATOM      5  C   LIG d   1      -6.340  77.742 118.564  0.00  0.00    -0.047 C 
ATOM      6  C   LIG d   1      -6.257  76.202 118.672  0.00  0.00     0.091 C 
ENDROOT
BRANCH   1   7
ATOM      7  O   LIG d   1      -7.639  74.201 118.971  0.00  0.00    -0.368 OA
BRANCH   7   8
ATOM      8  C   LIG d   1      -7.923  73.873 117.589  0.00  0.00     0.119 C 
BRANCH   8   9
ATOM      9  C   LIG d   1      -9.154  72.947 117.576  0.00  0.00     0.028 C 
ATOM     10  C   LIG d   1      -8.770  71.463 117.451  0.00  0.00     0.006 C 
ENDBRANCH   8   9
BRANCH   8  11
ATOM     11  C   LIG d   1      -6.790  73.051 116.967  0.00  0.00     0.028 C 
ATOM     12  C   LIG d   1      -6.045  73.809 115.856  0.00  0.00     0.006 C 
ENDBRANCH   8  11
ENDBRANCH   7   8
ENDBRANCH   1   7
BRANCH   6  13
ATOM     13  N   LIG d   1      -5.111  75.752 119.504  0.00  0.00    -0.311 N 
ATOM     14  C   LIG d   1      -3.914  75.452 119.004  0.00  0.00     0.210 C 
ATOM     15  C   LIG d   1      -2.879  74.990 120.034  0.00  0.00     0.109 C 
ATOM     16  O   LIG d   1      -3.602  75.555 117.808  0.00  0.00    -0.276 OA
ATOM     17  H   LIG d   1      -5.268  75.671 120.490  0.00  0.00     0.149 HD
ENDBRANCH   6  13
BRANCH   5  18
ATOM     18  N   LIG d   1      -5.178  78.337 117.876  0.00  0.00     0.381 N 
ATOM     19  H   LIG d   1      -5.288  78.245 116.886  0.00  0.00    -0.090 HD
ATOM     20  H   LIG d   1      -4.349  77.839 118.149  0.00  0.00    -0.090 HD
ATOM     21  H   LIG d   1      -5.093  79.299 118.121  0.00  0.00    -0.090 HD
ENDBRANCH   5  18
BRANCH   3  22
ATOM     22  C   LIG d   1      -9.960  78.175 118.092  0.00  0.00     0.382 C 
ATOM     23  O   LIG d   1      -9.966  79.395 117.802  0.00  0.00    -0.241 OA
ATOM     24  O   LIG d   1     -11.040  77.584 118.279  0.00  0.00    -0.241 OA
ENDBRANCH   3  22
TORSDOF 7
ENDMDL
MODEL 8
REMARK VINA RESULT:      -4.7      2.812      5.895
REMARK  7 active torsions:
REMARK  status: ('A' for Active; 'I' for Inactive)
REMARK    1  A    between atoms: C_2  and  C_3 
REMARK    2  A    between atoms: C_3  and  O_6 
REMARK    3  A    between atoms: C_3  and  C_4 
REMARK    4  A    between atoms: C_7  and  O_6 
REMARK    5  A    between atoms: C_9  and  C_10 
REMARK    6  A    between atoms: N_15  and  C_14 
REMARK    7  A    between atoms: N_20  and  C_19 
REMARK       I    between atoms: C_22  and  N_20 
ROOT
ATOM      1  C   LIG d   1       0.860  58.319 118.476  0.00  0.00     0.161 C 
ATOM      2  C   LIG d   1       2.179  58.623 118.100  0.00  0.00     0.016 C 
ATOM      3  C   LIG d   1       3.084  59.320 118.933  0.00  0.00     0.038 C 
ATOM      4  C   LIG d   1       2.777  59.630 120.266  0.00  0.00     0.028 C 
ATOM      5  C   LIG d   1       1.282  59.791 120.522  0.00  0.00    -0.047 C 
ATOM      6  C   LIG d   1       0.542  58.551 119.968  0.00  0.00     0.091 C 
ENDROOT
BRANCH   1   7
ATOM      7  O   LIG d   1       0.546  56.963 118.102  0.00  0.00    -0.368 OA
BRANCH   7   8
ATOM      8  C   LIG d   1       0.215  56.747 116.708  0.00  0.00     0.119 C 
BRANCH   8   9
ATOM      9  C   LIG d   1      -1.269  57.119 116.521  0.00  0.00     0.028 C 
ATOM     10  C   LIG d   1      -2.192  56.352 117.481  0.00  0.00     0.006 C 
ENDBRANCH   8   9
BRANCH   8  11
ATOM     11  C   LIG d   1       0.311  55.264 116.336  0.00  0.00     0.028 C 
ATOM     12  C   LIG d   1       1.139  54.450 117.343  0.00  0.00     0.006 C 
ENDBRANCH   8  11
ENDBRANCH   7   8
ENDBRANCH   1   7
BRANCH   6  13
ATOM     13  N   LIG d   1      -0.933  58.666 120.101  0.00  0.00    -0.311 N 
ATOM     14  C   LIG d   1      -1.639  59.675 119.595  0.00  0.00     0.210 C 
ATOM     15  C   LIG d   1      -3.146  59.610 119.864  0.00  0.00     0.109 C 
ATOM     16  O   LIG d   1      -1.165  60.602 118.921  0.00  0.00    -0.276 OA
ATOM     17  H   LIG d   1      -1.403  57.940 120.606  0.00  0.00     0.149 HD
ENDBRANCH   6  13
BRANCH   5  18
ATOM     18  N   LIG d   1       1.095  59.975 121.973  0.00  0.00     0.381 N 
ATOM     19  H   LIG d   1       1.073  60.951 122.191  0.00  0.00    -0.090 HD
ATOM     20  H   LIG d   1       1.873  59.562 122.456  0.00  0.00    -0.090 HD
ATOM     21  H   LIG d   1       0.246  59.542 122.265  0.00  0.00    -0.090 HD
ENDBRANCH   5  18
BRANCH   3  22
ATOM     22  C   LIG d   1       4.299  59.750 118.420  0.00  0.00     0.382 C 
ATOM     23  O   LIG d   1       5.084  58.925 117.894  0.00  0.00    -0.241 OA
ATOM     24  O   LIG d   1       4.638  60.944 118.517  0.00  0.00    -0.241 OA
ENDBRANCH   3  22
TORSDOF 7
ENDMDL
MODEL 9
REMARK VINA RESULT:      -4.7     17.239     20.226
REMARK  7 active torsions:
REMARK  status: ('A' for Active; 'I' for Inactive)
REMARK    1  A    between atoms: C_2  and  C_3 
REMARK    2  A    between atoms: C_3  and  O_6 
REMARK    3  A    between atoms: C_3  and  C_4 
REMARK    4  A    between atoms: C_7  and  O_6 
REMARK    5  A    between atoms: C_9  and  C_10 
REMARK    6  A    between atoms: N_15  and  C_14 
REMARK    7  A    between atoms: N_20  and  C_19 
REMARK       I    between atoms: C_22  and  N_20 
ROOT
ATOM      1  C   LIG d   1      -7.999  75.313 117.934  0.00  0.00     0.161 C 
ATOM      2  C   LIG d   1      -8.522  74.010 117.869  0.00  0.00     0.016 C 
ATOM      3  C   LIG d   1      -7.833  72.924 117.281  0.00  0.00     0.038 C 
ATOM      4  C   LIG d   1      -6.502  73.035 116.852  0.00  0.00     0.028 C 
ATOM      5  C   LIG d   1      -6.115  74.450 116.438  0.00  0.00    -0.047 C 
ATOM      6  C   LIG d   1      -6.503  75.428 117.571  0.00  0.00     0.091 C 
ENDROOT
BRANCH   1   7
ATOM      7  O   LIG d   1      -8.241  75.871 119.240  0.00  0.00    -0.368 OA
BRANCH   7   8
ATOM      8  C   LIG d   1      -9.206  76.950 119.303  0.00  0.00     0.119 C 
BRANCH   8   9
ATOM      9  C   LIG d   1      -9.912  77.020 117.935  0.00  0.00     0.028 C 
ATOM     10  C   LIG d   1     -11.346  76.466 117.985  0.00  0.00     0.006 C 
ENDBRANCH   8   9
BRANCH   8  11
ATOM     11  C   LIG d   1      -8.516  78.307 119.473  0.00  0.00     0.028 C 
ATOM     12  C   LIG d   1      -8.728  79.238 118.269  0.00  0.00     0.006 C 
ENDBRANCH   8  11
ENDBRANCH   7   8
ENDBRANCH   1   7
BRANCH   6  13
ATOM     13  N   LIG d   1      -6.236  76.845 117.212  0.00  0.00    -0.311 N 
ATOM     14  C   LIG d   1      -5.130  77.496 117.571  0.00  0.00     0.210 C 
ATOM     15  C   LIG d   1      -5.063  78.957 117.115  0.00  0.00     0.109 C 
ATOM     16  O   LIG d   1      -4.184  76.992 118.195  0.00  0.00    -0.276 OA
ATOM     17  H   LIG d   1      -6.937  77.322 116.680  0.00  0.00     0.149 HD
ENDBRANCH   6  13
BRANCH   5  18
ATOM     18  N   LIG d   1      -4.669  74.449 116.145  0.00  0.00     0.381 N 
ATOM     19  H   LIG d   1      -4.437  73.651 115.589  0.00  0.00    -0.090 HD
ATOM     20  H   LIG d   1      -4.162  74.389 117.011  0.00  0.00    -0.090 HD
ATOM     21  H   LIG d   1      -4.418  75.284 115.663  0.00  0.00    -0.090 HD
ENDBRANCH   5  18
BRANCH   3  22
ATOM     22  C   LIG d   1      -8.491  71.720 117.083  0.00  0.00     0.382 C 
ATOM     23  O   LIG d   1      -8.400  71.130 115.979  0.00  0.00    -0.241 OA
ATOM     24  O   LIG d   1      -9.211  71.238 117.978  0.00  0.00    -0.241 OA
ENDBRANCH   3  22
TORSDOF 7
ENDMDL
