MODEL 1
REMARK VINA RESULT:      -5.6      0.000      0.000
REMARK  7 active torsions:
REMARK  status: ('A' for Active; 'I' for Inactive)
REMARK    1  A    between atoms: C_2  and  C_3 
REMARK    2  A    between atoms: C_3  and  O_6 
REMARK    3  A    between atoms: C_3  and  C_4 
REMARK    4  A    between atoms: C_7  and  O_6 
REMARK    5  A    between atoms: C_9  and  C_10 
REMARK    6  A    between atoms: N_15  and  C_14 
REMARK    7  A    between atoms: N_20  and  C_19 
REMARK       I    between atoms: C_22  and  N_20 
ROOT
ATOM      1  C   LIG d   1      -9.413  77.003 118.531  0.00  0.00     0.161 C 
ATOM      2  C   LIG d   1      -8.231  77.281 117.825  0.00  0.00     0.016 C 
ATOM      3  C   LIG d   1      -7.608  76.357 116.956  0.00  0.00     0.038 C 
ATOM      4  C   LIG d   1      -8.212  75.137 116.615  0.00  0.00     0.028 C 
ATOM      5  C   LIG d   1      -9.151  74.604 117.692  0.00  0.00    -0.047 C 
ATOM      6  C   LIG d   1     -10.145  75.720 118.087  0.00  0.00     0.091 C 
ENDROOT
BRANCH   1   7
ATOM      7  O   LIG d   1     -10.302  78.136 118.463  0.00  0.00    -0.368 OA
BRANCH   7   8
ATOM      8  C   LIG d   1     -10.473  78.887 119.690  0.00  0.00     0.119 C 
BRANCH   8   9
ATOM      9  C   LIG d   1      -9.803  80.260 119.489  0.00  0.00     0.028 C 
ATOM     10  C   LIG d   1      -9.899  80.754 118.036  0.00  0.00     0.006 C 
ENDBRANCH   8   9
BRANCH   8  11
ATOM     11  C   LIG d   1      -9.720  78.234 120.852  0.00  0.00     0.028 C 
ATOM     12  C   LIG d   1     -10.656  77.743 121.968  0.00  0.00     0.006 C 
ENDBRANCH   8  11
ENDBRANCH   7   8
ENDBRANCH   1   7
BRANCH   6  13
ATOM     13  N   LIG d   1     -11.047  75.309 119.195  0.00  0.00    -0.311 N 
ATOM     14  C   LIG d   1     -12.372  75.431 119.145  0.00  0.00     0.210 C 
ATOM     15  C   LIG d   1     -13.112  74.966 120.404  0.00  0.00     0.109 C 
ATOM     16  O   LIG d   1     -13.008  75.850 118.166  0.00  0.00    -0.276 OA
ATOM     17  H   LIG d   1     -10.617  74.930 120.016  0.00  0.00     0.149 HD
ENDBRANCH   6  13
BRANCH   5  18
ATOM     18  N   LIG d   1      -9.815  73.403 117.150  0.00  0.00     0.381 N 
ATOM     19  H   LIG d   1     -10.646  73.211 117.672  0.00  0.00    -0.090 HD
ATOM     20  H   LIG d   1      -9.194  72.619 117.244  0.00  0.00    -0.090 HD
ATOM     21  H   LIG d   1     -10.042  73.543 116.190  0.00  0.00    -0.090 HD
ENDBRANCH   5  18
BRANCH   3  22
ATOM     22  C   LIG d   1      -6.348  76.632 116.448  0.00  0.00     0.382 C 
ATOM     23  O   LIG d   1      -5.963  77.821 116.337  0.00  0.00    -0.241 OA
ATOM     24  O   LIG d   1      -5.608  75.709 116.059  0.00  0.00    -0.241 OA
ENDBRANCH   3  22
TORSDOF 7
ENDMDL
MODEL 2
REMARK VINA RESULT:      -5.5      0.967      2.034
REMARK  7 active torsions:
REMARK  status: ('A' for Active; 'I' for Inactive)
REMARK    1  A    between atoms: C_2  and  C_3 
REMARK    2  A    between atoms: C_3  and  O_6 
REMARK    3  A    between atoms: C_3  and  C_4 
REMARK    4  A    between atoms: C_7  and  O_6 
REMARK    5  A    between atoms: C_9  and  C_10 
REMARK    6  A    between atoms: N_15  and  C_14 
REMARK    7  A    between atoms: N_20  and  C_19 
REMARK       I    between atoms: C_22  and  N_20 
ROOT
ATOM      1  C   LIG d   1      -9.370  77.387 118.424  0.00  0.00     0.161 C 
ATOM      2  C   LIG d   1      -8.204  77.524 117.653  0.00  0.00     0.016 C 
ATOM      3  C   LIG d   1      -7.708  76.506 116.806  0.00  0.00     0.038 C 
ATOM      4  C   LIG d   1      -8.432  75.331 116.555  0.00  0.00     0.028 C 
ATOM      5  C   LIG d   1      -9.361  74.937 117.698  0.00  0.00    -0.047 C 
ATOM      6  C   LIG d   1     -10.233  76.155 118.079  0.00  0.00     0.091 C 
ENDROOT
BRANCH   1   7
ATOM      7  O   LIG d   1     -10.158  78.591 118.337  0.00  0.00    -0.368 OA
BRANCH   7   8
ATOM      8  C   LIG d   1      -9.478  79.823 118.681  0.00  0.00     0.119 C 
BRANCH   8   9
ATOM      9  C   LIG d   1      -9.778  80.119 120.163  0.00  0.00     0.028 C 
ATOM     10  C   LIG d   1      -8.542  80.632 120.921  0.00  0.00     0.006 C 
ENDBRANCH   8   9
BRANCH   8  11
ATOM     11  C   LIG d   1     -10.054  81.012 117.906  0.00  0.00     0.028 C 
ATOM     12  C   LIG d   1      -8.981  82.032 117.495  0.00  0.00     0.006 C 
ENDBRANCH   8  11
ENDBRANCH   7   8
ENDBRANCH   1   7
BRANCH   6  13
ATOM     13  N   LIG d   1     -11.112  75.880 119.246  0.00  0.00    -0.311 N 
ATOM     14  C   LIG d   1     -12.389  75.521 119.132  0.00  0.00     0.210 C 
ATOM     15  C   LIG d   1     -13.121  75.306 120.461  0.00  0.00     0.109 C 
ATOM     16  O   LIG d   1     -12.977  75.328 118.057  0.00  0.00    -0.276 OA
ATOM     17  H   LIG d   1     -10.707  75.982 120.156  0.00  0.00     0.149 HD
ENDBRANCH   6  13
BRANCH   5  18
ATOM     18  N   LIG d   1     -10.153  73.777 117.249  0.00  0.00     0.381 N 
ATOM     19  H   LIG d   1     -11.013  74.090 116.845  0.00  0.00    -0.090 HD
ATOM     20  H   LIG d   1     -10.369  73.202 118.044  0.00  0.00    -0.090 HD
ATOM     21  H   LIG d   1      -9.636  73.249 116.580  0.00  0.00    -0.090 HD
ENDBRANCH   5  18
BRANCH   3  22
ATOM     22  C   LIG d   1      -6.454  76.643 116.230  0.00  0.00     0.382 C 
ATOM     23  O   LIG d   1      -5.827  75.627 115.845  0.00  0.00    -0.241 OA
ATOM     24  O   LIG d   1      -5.923  77.765 116.131  0.00  0.00    -0.241 OA
ENDBRANCH   3  22
TORSDOF 7
ENDMDL
MODEL 3
REMARK VINA RESULT:      -5.5      2.586      4.466
REMARK  7 active torsions:
REMARK  status: ('A' for Active; 'I' for Inactive)
REMARK    1  A    between atoms: C_2  and  C_3 
REMARK    2  A    between atoms: C_3  and  O_6 
REMARK    3  A    between atoms: C_3  and  C_4 
REMARK    4  A    between atoms: C_7  and  O_6 
REMARK    5  A    between atoms: C_9  and  C_10 
REMARK    6  A    between atoms: N_15  and  C_14 
REMARK    7  A    between atoms: N_20  and  C_19 
REMARK       I    between atoms: C_22  and  N_20 
ROOT
ATOM      1  C   LIG d   1     -10.013  74.546 118.278  0.00  0.00     0.161 C 
ATOM      2  C   LIG d   1      -9.687  73.233 117.901  0.00  0.00     0.016 C 
ATOM      3  C   LIG d   1      -8.538  72.902 117.147  0.00  0.00     0.038 C 
ATOM      4  C   LIG d   1      -7.550  73.852 116.846  0.00  0.00     0.028 C 
ATOM      5  C   LIG d   1      -8.084  75.278 116.771  0.00  0.00    -0.047 C 
ATOM      6  C   LIG d   1      -8.890  75.581 118.055  0.00  0.00     0.091 C 
ENDROOT
BRANCH   1   7
ATOM      7  O   LIG d   1     -10.446  74.566 119.653  0.00  0.00    -0.368 OA
BRANCH   7   8
ATOM      8  C   LIG d   1     -11.674  75.286 119.923  0.00  0.00     0.119 C 
BRANCH   8   9
ATOM      9  C   LIG d   1     -11.581  75.836 121.360  0.00  0.00     0.028 C 
ATOM     10  C   LIG d   1     -10.196  76.425 121.674  0.00  0.00     0.006 C 
ENDBRANCH   8   9
BRANCH   8  11
ATOM     11  C   LIG d   1     -12.883  74.345 119.927  0.00  0.00     0.028 C 
ATOM     12  C   LIG d   1     -14.036  74.859 120.803  0.00  0.00     0.006 C 
ENDBRANCH   8  11
ENDBRANCH   7   8
ENDBRANCH   1   7
BRANCH   6  13
ATOM     13  N   LIG d   1      -9.518  76.927 118.026  0.00  0.00    -0.311 N 
ATOM     14  C   LIG d   1      -8.946  78.014 118.540  0.00  0.00     0.210 C 
ATOM     15  C   LIG d   1      -9.774  79.298 118.421  0.00  0.00     0.109 C 
ATOM     16  O   LIG d   1      -7.818  78.044 119.054  0.00  0.00    -0.276 OA
ATOM     17  H   LIG d   1     -10.421  77.000 117.599  0.00  0.00     0.149 HD
ENDBRANCH   6  13
BRANCH   5  18
ATOM     18  N   LIG d   1      -6.929  76.177 116.588  0.00  0.00     0.381 N 
ATOM     19  H   LIG d   1      -7.247  77.086 116.315  0.00  0.00    -0.090 HD
ATOM     20  H   LIG d   1      -6.346  75.813 115.855  0.00  0.00    -0.090 HD
ATOM     21  H   LIG d   1      -6.408  76.240 117.435  0.00  0.00    -0.090 HD
ENDBRANCH   5  18
BRANCH   3  22
ATOM     22  C   LIG d   1      -8.388  71.616 116.651  0.00  0.00     0.382 C 
ATOM     23  O   LIG d   1      -9.277  70.756 116.859  0.00  0.00    -0.241 OA
ATOM     24  O   LIG d   1      -7.354  71.293 116.035  0.00  0.00    -0.241 OA
ENDBRANCH   3  22
TORSDOF 7
ENDMDL
MODEL 4
REMARK VINA RESULT:      -5.2      2.116      3.741
REMARK  7 active torsions:
REMARK  status: ('A' for Active; 'I' for Inactive)
REMARK    1  A    between atoms: C_2  and  C_3 
REMARK    2  A    between atoms: C_3  and  O_6 
REMARK    3  A    between atoms: C_3  and  C_4 
REMARK    4  A    between atoms: C_7  and  O_6 
REMARK    5  A    between atoms: C_9  and  C_10 
REMARK    6  A    between atoms: N_15  and  C_14 
REMARK    7  A    between atoms: N_20  and  C_19 
REMARK       I    between atoms: C_22  and  N_20 
ROOT
ATOM      1  C   LIG d   1      -9.392  76.796 118.452  0.00  0.00     0.161 C 
ATOM      2  C   LIG d   1      -9.010  78.143 118.576  0.00  0.00     0.016 C 
ATOM      3  C   LIG d   1      -7.880  78.694 117.929  0.00  0.00     0.038 C 
ATOM      4  C   LIG d   1      -7.136  77.966 116.989  0.00  0.00     0.028 C 
ATOM      5  C   LIG d   1      -7.182  76.458 117.215  0.00  0.00    -0.047 C 
ATOM      6  C   LIG d   1      -8.657  76.015 117.343  0.00  0.00     0.091 C 
ENDROOT
BRANCH   1   7
ATOM      7  O   LIG d   1     -10.818  76.708 118.266  0.00  0.00    -0.368 OA
BRANCH   7   8
ATOM      8  C   LIG d   1     -11.585  76.273 119.416  0.00  0.00     0.119 C 
BRANCH   8   9
ATOM      9  C   LIG d   1     -10.628  75.506 120.348  0.00  0.00     0.028 C 
ATOM     10  C   LIG d   1     -10.537  76.139 121.747  0.00  0.00     0.006 C 
ENDBRANCH   8   9
BRANCH   8  11
ATOM     11  C   LIG d   1     -12.662  75.259 119.017  0.00  0.00     0.028 C 
ATOM     12  C   LIG d   1     -13.196  74.456 120.213  0.00  0.00     0.006 C 
ENDBRANCH   8  11
ENDBRANCH   7   8
ENDBRANCH   1   7
BRANCH   6  13
ATOM     13  N   LIG d   1      -8.789  74.567 117.650  0.00  0.00    -0.311 N 
ATOM     14  C   LIG d   1      -9.763  73.800 117.164  0.00  0.00     0.210 C 
ATOM     15  C   LIG d   1      -9.726  72.339 117.622  0.00  0.00     0.109 C 
ATOM     16  O   LIG d   1     -10.636  74.184 116.371  0.00  0.00    -0.276 OA
ATOM     17  H   LIG d   1      -8.105  74.166 118.261  0.00  0.00     0.149 HD
ENDBRANCH   6  13
BRANCH   5  18
ATOM     18  N   LIG d   1      -6.481  75.817 116.087  0.00  0.00     0.381 N 
ATOM     19  H   LIG d   1      -6.571  76.382 115.267  0.00  0.00    -0.090 HD
ATOM     20  H   LIG d   1      -6.907  74.925 115.904  0.00  0.00    -0.090 HD
ATOM     21  H   LIG d   1      -5.518  75.693 116.310  0.00  0.00    -0.090 HD
ENDBRANCH   5  18
BRANCH   3  22
ATOM     22  C   LIG d   1      -7.460  79.975 118.252  0.00  0.00     0.382 C 
ATOM     23  O   LIG d   1      -6.803  80.648 117.422  0.00  0.00    -0.241 OA
ATOM     24  O   LIG d   1      -7.691  80.450 119.380  0.00  0.00    -0.241 OA
ENDBRANCH   3  22
TORSDOF 7
ENDMDL
MODEL 5
REMARK VINA RESULT:      -5.2      2.328      4.364
REMARK  7 active torsions:
REMARK  status: ('A' for Active; 'I' for Inactive)
REMARK    1  A    between atoms: C_2  and  C_3 
REMARK    2  A    between atoms: C_3  and  O_6 
REMARK    3  A    between atoms: C_3  and  C_4 
REMARK    4  A    between atoms: C_7  and  O_6 
REMARK    5  A    between atoms: C_9  and  C_10 
REMARK    6  A    between atoms: N_15  and  C_14 
REMARK    7  A    between atoms: N_20  and  C_19 
REMARK       I    between atoms: C_22  and  N_20 
ROOT
ATOM      1  C   LIG d   1      -8.996  75.983 118.481  0.00  0.00     0.161 C 
ATOM      2  C   LIG d   1      -7.970  76.315 117.581  0.00  0.00     0.016 C 
ATOM      3  C   LIG d   1      -7.013  77.326 117.831  0.00  0.00     0.038 C 
ATOM      4  C   LIG d   1      -6.927  77.975 119.071  0.00  0.00     0.028 C 
ATOM      5  C   LIG d   1      -8.254  78.027 119.821  0.00  0.00    -0.047 C 
ATOM      6  C   LIG d   1      -8.850  76.603 119.886  0.00  0.00     0.091 C 
ENDROOT
BRANCH   1   7
ATOM      7  O   LIG d   1      -9.118  74.550 118.576  0.00  0.00    -0.368 OA
BRANCH   7   8
ATOM      8  C   LIG d   1     -10.164  73.944 117.777  0.00  0.00     0.119 C 
BRANCH   8   9
ATOM      9  C   LIG d   1     -11.426  73.855 118.657  0.00  0.00     0.028 C 
ATOM     10  C   LIG d   1     -12.455  74.947 118.319  0.00  0.00     0.006 C 
ENDBRANCH   8   9
BRANCH   8  11
ATOM     11  C   LIG d   1      -9.820  72.497 117.413  0.00  0.00     0.028 C 
ATOM     12  C   LIG d   1      -8.316  72.281 117.183  0.00  0.00     0.006 C 
ENDBRANCH   8  11
ENDBRANCH   7   8
ENDBRANCH   1   7
BRANCH   6  13
ATOM     13  N   LIG d   1     -10.190  76.578 120.530  0.00  0.00    -0.311 N 
ATOM     14  C   LIG d   1     -10.450  75.914 121.654  0.00  0.00     0.210 C 
ATOM     15  C   LIG d   1     -11.901  76.004 122.137  0.00  0.00     0.109 C 
ATOM     16  O   LIG d   1      -9.610  75.285 122.315  0.00  0.00    -0.276 OA
ATOM     17  H   LIG d   1     -10.923  77.088 120.077  0.00  0.00     0.149 HD
ENDBRANCH   6  13
BRANCH   5  18
ATOM     18  N   LIG d   1      -7.990  78.605 121.153  0.00  0.00     0.381 N 
ATOM     19  H   LIG d   1      -7.166  79.171 121.119  0.00  0.00    -0.090 HD
ATOM     20  H   LIG d   1      -7.834  77.858 121.806  0.00  0.00    -0.090 HD
ATOM     21  H   LIG d   1      -8.768  79.155 121.445  0.00  0.00    -0.090 HD
ENDBRANCH   5  18
BRANCH   3  22
ATOM     22  C   LIG d   1      -6.155  77.725 116.817  0.00  0.00     0.382 C 
ATOM     23  O   LIG d   1      -6.000  77.000 115.805  0.00  0.00    -0.241 OA
ATOM     24  O   LIG d   1      -5.500  78.779 116.923  0.00  0.00    -0.241 OA
ENDBRANCH   3  22
TORSDOF 7
ENDMDL
MODEL 6
REMARK VINA RESULT:      -5.1      2.289      4.166
REMARK  7 active torsions:
REMARK  status: ('A' for Active; 'I' for Inactive)
REMARK    1  A    between atoms: C_2  and  C_3 
REMARK    2  A    between atoms: C_3  and  O_6 
REMARK    3  A    between atoms: C_3  and  C_4 
REMARK    4  A    between atoms: C_7  and  O_6 
REMARK    5  A    between atoms: C_9  and  C_10 
REMARK    6  A    between atoms: N_15  and  C_14 
REMARK    7  A    between atoms: N_20  and  C_19 
REMARK       I    between atoms: C_22  and  N_20 
ROOT
ATOM      1  C   LIG d   1      -8.631  75.472 118.302  0.00  0.00     0.161 C 
ATOM      2  C   LIG d   1      -8.272  74.308 117.602  0.00  0.00     0.016 C 
ATOM      3  C   LIG d   1      -9.146  73.212 117.415  0.00  0.00     0.038 C 
ATOM      4  C   LIG d   1     -10.497  73.270 117.787  0.00  0.00     0.028 C 
ATOM      5  C   LIG d   1     -10.767  74.225 118.944  0.00  0.00    -0.047 C 
ATOM      6  C   LIG d   1     -10.136  75.598 118.619  0.00  0.00     0.091 C 
ENDROOT
BRANCH   1   7
ATOM      7  O   LIG d   1      -8.171  76.635 117.584  0.00  0.00    -0.368 OA
BRANCH   7   8
ATOM      8  C   LIG d   1      -6.829  77.085 117.894  0.00  0.00     0.119 C 
BRANCH   8   9
ATOM      9  C   LIG d   1      -6.950  78.450 118.599  0.00  0.00     0.028 C 
ATOM     10  C   LIG d   1      -6.366  79.598 117.758  0.00  0.00     0.006 C 
ENDBRANCH   8   9
BRANCH   8  11
ATOM     11  C   LIG d   1      -6.025  77.357 116.619  0.00  0.00     0.028 C 
ATOM     12  C   LIG d   1      -5.192  76.145 116.170  0.00  0.00     0.006 C 
ENDBRANCH   8  11
ENDBRANCH   7   8
ENDBRANCH   1   7
BRANCH   6  13
ATOM     13  N   LIG d   1     -10.281  76.568 119.735  0.00  0.00    -0.311 N 
ATOM     14  C   LIG d   1     -10.455  77.876 119.553  0.00  0.00     0.210 C 
ATOM     15  C   LIG d   1     -10.561  78.700 120.840  0.00  0.00     0.109 C 
ATOM     16  O   LIG d   1     -10.564  78.428 118.447  0.00  0.00    -0.276 OA
ATOM     17  H   LIG d   1     -10.236  76.202 120.666  0.00  0.00     0.149 HD
ENDBRANCH   6  13
BRANCH   5  18
ATOM     18  N   LIG d   1     -12.228  74.291 119.137  0.00  0.00     0.381 N 
ATOM     19  H   LIG d   1     -12.661  74.665 118.316  0.00  0.00    -0.090 HD
ATOM     20  H   LIG d   1     -12.427  74.906 119.906  0.00  0.00    -0.090 HD
ATOM     21  H   LIG d   1     -12.588  73.382 119.327  0.00  0.00    -0.090 HD
ENDBRANCH   5  18
BRANCH   3  22
ATOM     22  C   LIG d   1      -8.659  72.028 116.885  0.00  0.00     0.382 C 
ATOM     23  O   LIG d   1      -7.451  71.938 116.556  0.00  0.00    -0.241 OA
ATOM     24  O   LIG d   1      -9.421  71.062 116.689  0.00  0.00    -0.241 OA
ENDBRANCH   3  22
TORSDOF 7
ENDMDL
MODEL 7
REMARK VINA RESULT:      -5.0     15.294     18.021
REMARK  7 active torsions:
REMARK  status: ('A' for Active; 'I' for Inactive)
REMARK    1  A    between atoms: C_2  and  C_3 
REMARK    2  A    between atoms: C_3  and  O_6 
REMARK    3  A    between atoms: C_3  and  C_4 
REMARK    4  A    between atoms: C_7  and  O_6 
REMARK    5  A    between atoms: C_9  and  C_10 
REMARK    6  A    between atoms: N_15  and  C_14 
REMARK    7  A    between atoms: N_20  and  C_19 
REMARK       I    between atoms: C_22  and  N_20 
ROOT
ATOM      1  C   LIG d   1      -5.330  92.862 119.124  0.00  0.00     0.161 C 
ATOM      2  C   LIG d   1      -5.464  91.873 118.134  0.00  0.00     0.016 C 
ATOM      3  C   LIG d   1      -6.372  91.971 117.055  0.00  0.00     0.038 C 
ATOM      4  C   LIG d   1      -7.106  93.140 116.807  0.00  0.00     0.028 C 
ATOM      5  C   LIG d   1      -7.376  93.964 118.062  0.00  0.00    -0.047 C 
ATOM      6  C   LIG d   1      -6.042  94.193 118.808  0.00  0.00     0.091 C 
ENDROOT
BRANCH   1   7
ATOM      7  O   LIG d   1      -3.934  93.093 119.398  0.00  0.00    -0.368 OA
BRANCH   7   8
ATOM      8  C   LIG d   1      -3.245  93.985 118.487  0.00  0.00     0.119 C 
BRANCH   8   9
ATOM      9  C   LIG d   1      -2.164  93.161 117.762  0.00  0.00     0.028 C 
ATOM     10  C   LIG d   1      -0.800  93.871 117.740  0.00  0.00     0.006 C 
ENDBRANCH   8   9
BRANCH   8  11
ATOM     11  C   LIG d   1      -2.482  95.075 119.246  0.00  0.00     0.028 C 
ATOM     12  C   LIG d   1      -2.677  94.989 120.768  0.00  0.00     0.006 C 
ENDBRANCH   8  11
ENDBRANCH   7   8
ENDBRANCH   1   7
BRANCH   6  13
ATOM     13  N   LIG d   1      -6.229  94.919 120.092  0.00  0.00    -0.311 N 
ATOM     14  C   LIG d   1      -6.096  96.239 120.214  0.00  0.00     0.210 C 
ATOM     15  C   LIG d   1      -6.311  96.782 121.630  0.00  0.00     0.109 C 
ATOM     16  O   LIG d   1      -5.851  97.015 119.278  0.00  0.00    -0.276 OA
ATOM     17  H   LIG d   1      -6.459  94.370 120.896  0.00  0.00     0.149 HD
ENDBRANCH   6  13
BRANCH   5  18
ATOM     18  N   LIG d   1      -8.027  95.219 117.640  0.00  0.00     0.381 N 
ATOM     19  H   LIG d   1      -8.723  95.480 118.309  0.00  0.00    -0.090 HD
ATOM     20  H   LIG d   1      -8.479  95.069 116.755  0.00  0.00    -0.090 HD
ATOM     21  H   LIG d   1      -7.348  95.943 117.556  0.00  0.00    -0.090 HD
ENDBRANCH   5  18
BRANCH   3  22
ATOM     22  C   LIG d   1      -6.582  90.874 116.233  0.00  0.00     0.382 C 
ATOM     23  O   LIG d   1      -5.610  90.174 115.860  0.00  0.00    -0.241 OA
ATOM     24  O   LIG d   1      -7.727  90.603 115.823  0.00  0.00    -0.241 OA
ENDBRANCH   3  22
TORSDOF 7
ENDMDL
MODEL 8
REMARK VINA RESULT:      -4.9     14.030     16.805
REMARK  7 active torsions:
REMARK  status: ('A' for Active; 'I' for Inactive)
REMARK    1  A    between atoms: C_2  and  C_3 
REMARK    2  A    between atoms: C_3  and  O_6 
REMARK    3  A    between atoms: C_3  and  C_4 
REMARK    4  A    between atoms: C_7  and  O_6 
REMARK    5  A    between atoms: C_9  and  C_10 
REMARK    6  A    between atoms: N_15  and  C_14 
REMARK    7  A    between atoms: N_20  and  C_19 
REMARK       I    between atoms: C_22  and  N_20 
ROOT
ATOM      1  C   LIG d   1      -3.083  90.790 117.907  0.00  0.00     0.161 C 
ATOM      2  C   LIG d   1      -4.230  90.490 117.154  0.00  0.00     0.016 C 
ATOM      3  C   LIG d   1      -5.216  91.448 116.823  0.00  0.00     0.038 C 
ATOM      4  C   LIG d   1      -5.043  92.814 117.094  0.00  0.00     0.028 C 
ATOM      5  C   LIG d   1      -4.141  93.084 118.293  0.00  0.00    -0.047 C 
ATOM      6  C   LIG d   1      -2.822  92.297 118.116  0.00  0.00     0.091 C 
ENDROOT
BRANCH   1   7
ATOM      7  O   LIG d   1      -1.930  90.160 117.312  0.00  0.00    -0.368 OA
BRANCH   7   8
ATOM      8  C   LIG d   1      -1.596  88.842 117.811  0.00  0.00     0.119 C 
BRANCH   8   9
ATOM      9  C   LIG d   1      -1.976  88.802 119.304  0.00  0.00     0.028 C 
ATOM     10  C   LIG d   1      -2.334  87.384 119.780  0.00  0.00     0.006 C 
ENDBRANCH   8   9
BRANCH   8  11
ATOM     11  C   LIG d   1      -0.085  88.597 117.770  0.00  0.00     0.028 C 
ATOM     12  C   LIG d   1       0.308  87.458 116.816  0.00  0.00     0.006 C 
ENDBRANCH   8  11
ENDBRANCH   7   8
ENDBRANCH   1   7
BRANCH   6  13
ATOM     13  N   LIG d   1      -1.916  92.438 119.286  0.00  0.00    -0.311 N 
ATOM     14  C   LIG d   1      -0.719  93.018 119.220  0.00  0.00     0.210 C 
ATOM     15  C   LIG d   1       0.062  93.041 120.538  0.00  0.00     0.109 C 
ATOM     16  O   LIG d   1      -0.243  93.544 118.203  0.00  0.00    -0.276 OA
ATOM     17  H   LIG d   1      -2.237  92.066 120.159  0.00  0.00     0.149 HD
ENDBRANCH   6  13
BRANCH   5  18
ATOM     18  N   LIG d   1      -3.936  94.542 118.378  0.00  0.00     0.381 N 
ATOM     19  H   LIG d   1      -4.342  94.892 119.223  0.00  0.00    -0.090 HD
ATOM     20  H   LIG d   1      -4.398  94.981 117.601  0.00  0.00    -0.090 HD
ATOM     21  H   LIG d   1      -2.963  94.752 118.357  0.00  0.00    -0.090 HD
ENDBRANCH   5  18
BRANCH   3  22
ATOM     22  C   LIG d   1      -6.408  91.037 116.247  0.00  0.00     0.382 C 
ATOM     23  O   LIG d   1      -7.389  91.819 116.209  0.00  0.00    -0.241 OA
ATOM     24  O   LIG d   1      -6.530  89.879 115.805  0.00  0.00    -0.241 OA
ENDBRANCH   3  22
TORSDOF 7
ENDMDL
MODEL 9
REMARK VINA RESULT:      -4.7      2.252      4.866
REMARK  7 active torsions:
REMARK  status: ('A' for Active; 'I' for Inactive)
REMARK    1  A    between atoms: C_2  and  C_3 
REMARK    2  A    between atoms: C_3  and  O_6 
REMARK    3  A    between atoms: C_3  and  C_4 
REMARK    4  A    between atoms: C_7  and  O_6 
REMARK    5  A    between atoms: C_9  and  C_10 
REMARK    6  A    between atoms: N_15  and  C_14 
REMARK    7  A    between atoms: N_20  and  C_19 
REMARK       I    between atoms: C_22  and  N_20 
ROOT
ATOM      1  C   LIG d   1      -8.783  77.857 118.252  0.00  0.00     0.161 C 
ATOM      2  C   LIG d   1     -10.004  77.184 118.427  0.00  0.00     0.016 C 
ATOM      3  C   LIG d   1     -10.245  75.875 117.951  0.00  0.00     0.038 C 
ATOM      4  C   LIG d   1      -9.226  75.088 117.396  0.00  0.00     0.028 C 
ATOM      5  C   LIG d   1      -8.117  75.906 116.743  0.00  0.00    -0.047 C 
ATOM      6  C   LIG d   1      -7.624  76.974 117.746  0.00  0.00     0.091 C 
ENDROOT
BRANCH   1   7
ATOM      7  O   LIG d   1      -8.411  78.521 119.476  0.00  0.00    -0.368 OA
BRANCH   7   8
ATOM      8  C   LIG d   1      -8.756  79.925 119.570  0.00  0.00     0.119 C 
BRANCH   8   9
ATOM      9  C   LIG d   1      -8.696  80.513 118.147  0.00  0.00     0.028 C 
ATOM     10  C   LIG d   1      -9.988  81.254 117.764  0.00  0.00     0.006 C 
ENDBRANCH   8   9
BRANCH   8  11
ATOM     11  C   LIG d   1      -7.709  80.703 120.374  0.00  0.00     0.028 C 
ATOM     12  C   LIG d   1      -6.632  81.346 119.486  0.00  0.00     0.006 C 
ENDBRANCH   8  11
ENDBRANCH   7   8
ENDBRANCH   1   7
BRANCH   6  13
ATOM     13  N   LIG d   1      -6.597  77.873 117.158  0.00  0.00    -0.311 N 
ATOM     14  C   LIG d   1      -5.505  78.265 117.812  0.00  0.00     0.210 C 
ATOM     15  C   LIG d   1      -4.586  79.208 117.029  0.00  0.00     0.109 C 
ATOM     16  O   LIG d   1      -5.195  77.897 118.955  0.00  0.00    -0.276 OA
ATOM     17  H   LIG d   1      -6.754  78.194 116.223  0.00  0.00     0.149 HD
ENDBRANCH   6  13
BRANCH   5  18
ATOM     18  N   LIG d   1      -7.056  74.968 116.329  0.00  0.00     0.381 N 
ATOM     19  H   LIG d   1      -7.461  74.091 116.070  0.00  0.00    -0.090 HD
ATOM     20  H   LIG d   1      -6.438  74.814 117.105  0.00  0.00    -0.090 HD
ATOM     21  H   LIG d   1      -6.548  75.347 115.560  0.00  0.00    -0.090 HD
ENDBRANCH   5  18
BRANCH   3  22
ATOM     22  C   LIG d   1     -11.530  75.355 117.993  0.00  0.00     0.382 C 
ATOM     23  O   LIG d   1     -12.510  76.117 118.174  0.00  0.00    -0.241 OA
ATOM     24  O   LIG d   1     -11.718  74.127 117.898  0.00  0.00    -0.241 OA
ENDBRANCH   3  22
TORSDOF 7
ENDMDL
