MODEL 1
REMARK VINA RESULT:      -5.0      0.000      0.000
REMARK  7 active torsions:
REMARK  status: ('A' for Active; 'I' for Inactive)
REMARK    1  A    between atoms: C_2  and  C_3 
REMARK    2  A    between atoms: C_3  and  O_6 
REMARK    3  A    between atoms: C_3  and  C_4 
REMARK    4  A    between atoms: C_7  and  O_6 
REMARK    5  A    between atoms: C_9  and  C_10 
REMARK    6  A    between atoms: N_15  and  C_14 
REMARK    7  A    between atoms: N_20  and  C_19 
REMARK       I    between atoms: C_22  and  N_20 
ROOT
ATOM      1  C   LIG d   1      -7.155  76.025 117.662  0.00  0.00     0.161 C 
ATOM      2  C   LIG d   1      -8.536  75.890 117.884  0.00  0.00     0.016 C 
ATOM      3  C   LIG d   1      -9.361  76.952 118.321  0.00  0.00     0.038 C 
ATOM      4  C   LIG d   1      -8.885  78.268 118.423  0.00  0.00     0.028 C 
ATOM      5  C   LIG d   1      -7.387  78.351 118.696  0.00  0.00    -0.047 C 
ATOM      6  C   LIG d   1      -6.639  77.480 117.661  0.00  0.00     0.091 C 
ENDROOT
BRANCH   1   7
ATOM      7  O   LIG d   1      -6.790  75.363 116.436  0.00  0.00    -0.368 OA
BRANCH   7   8
ATOM      8  C   LIG d   1      -5.850  74.267 116.558  0.00  0.00     0.119 C 
BRANCH   8   9
ATOM      9  C   LIG d   1      -4.568  74.671 115.806  0.00  0.00     0.028 C 
ATOM     10  C   LIG d   1      -3.304  74.502 116.667  0.00  0.00     0.006 C 
ENDBRANCH   8   9
BRANCH   8  11
ATOM     11  C   LIG d   1      -6.361  73.012 115.844  0.00  0.00     0.028 C 
ATOM     12  C   LIG d   1      -7.475  72.295 116.623  0.00  0.00     0.006 C 
ENDBRANCH   8  11
ENDBRANCH   7   8
ENDBRANCH   1   7
BRANCH   6  13
ATOM     13  N   LIG d   1      -5.175  77.438 117.908  0.00  0.00    -0.311 N 
ATOM     14  C   LIG d   1      -4.312  78.283 117.346  0.00  0.00     0.210 C 
ATOM     15  C   LIG d   1      -2.844  78.052 117.720  0.00  0.00     0.109 C 
ATOM     16  O   LIG d   1      -4.626  79.221 116.598  0.00  0.00    -0.276 OA
ATOM     17  H   LIG d   1      -4.837  76.727 118.527  0.00  0.00     0.149 HD
ENDBRANCH   6  13
BRANCH   5  18
ATOM     18  N   LIG d   1      -7.002  79.774 118.640  0.00  0.00     0.381 N 
ATOM     19  H   LIG d   1      -6.213  79.887 118.037  0.00  0.00    -0.090 HD
ATOM     20  H   LIG d   1      -6.741  80.076 119.562  0.00  0.00    -0.090 HD
ATOM     21  H   LIG d   1      -7.766  80.321 118.307  0.00  0.00    -0.090 HD
ENDBRANCH   5  18
BRANCH   3  22
ATOM     22  C   LIG d   1     -10.669  76.693 118.701  0.00  0.00     0.382 C 
ATOM     23  O   LIG d   1     -11.471  76.185 117.881  0.00  0.00    -0.241 OA
ATOM     24  O   LIG d   1     -11.069  77.003 119.840  0.00  0.00    -0.241 OA
ENDBRANCH   3  22
TORSDOF 7
ENDMDL
MODEL 2
REMARK VINA RESULT:      -4.8      1.675      1.987
REMARK  7 active torsions:
REMARK  status: ('A' for Active; 'I' for Inactive)
REMARK    1  A    between atoms: C_2  and  C_3 
REMARK    2  A    between atoms: C_3  and  O_6 
REMARK    3  A    between atoms: C_3  and  C_4 
REMARK    4  A    between atoms: C_7  and  O_6 
REMARK    5  A    between atoms: C_9  and  C_10 
REMARK    6  A    between atoms: N_15  and  C_14 
REMARK    7  A    between atoms: N_20  and  C_19 
REMARK       I    between atoms: C_22  and  N_20 
ROOT
ATOM      1  C   LIG d   1      -7.584  77.574 118.533  0.00  0.00     0.161 C 
ATOM      2  C   LIG d   1      -8.839  76.986 118.766  0.00  0.00     0.016 C 
ATOM      3  C   LIG d   1      -9.998  77.729 119.087  0.00  0.00     0.038 C 
ATOM      4  C   LIG d   1     -10.015  79.131 119.048  0.00  0.00     0.028 C 
ATOM      5  C   LIG d   1      -8.651  79.761 119.312  0.00  0.00    -0.047 C 
ATOM      6  C   LIG d   1      -7.608  79.108 118.377  0.00  0.00     0.091 C 
ENDROOT
BRANCH   1   7
ATOM      7  O   LIG d   1      -6.965  76.962 117.384  0.00  0.00    -0.368 OA
BRANCH   7   8
ATOM      8  C   LIG d   1      -6.244  75.730 117.629  0.00  0.00     0.119 C 
BRANCH   8   9
ATOM      9  C   LIG d   1      -4.768  75.975 117.258  0.00  0.00     0.028 C 
ATOM     10  C   LIG d   1      -4.227  74.921 116.278  0.00  0.00     0.006 C 
ENDBRANCH   8   9
BRANCH   8  11
ATOM     11  C   LIG d   1      -6.717  74.613 116.694  0.00  0.00     0.028 C 
ATOM     12  C   LIG d   1      -7.824  73.746 117.313  0.00  0.00     0.006 C 
ENDBRANCH   8  11
ENDBRANCH   7   8
ENDBRANCH   1   7
BRANCH   6  13
ATOM     13  N   LIG d   1      -6.230  79.607 118.629  0.00  0.00    -0.311 N 
ATOM     14  C   LIG d   1      -5.741  80.718 118.080  0.00  0.00     0.210 C 
ATOM     15  C   LIG d   1      -4.292  81.041 118.457  0.00  0.00     0.109 C 
ATOM     16  O   LIG d   1      -6.380  81.483 117.342  0.00  0.00    -0.276 OA
ATOM     17  H   LIG d   1      -5.653  79.064 119.240  0.00  0.00     0.149 HD
ENDBRANCH   6  13
BRANCH   5  18
ATOM     18  N   LIG d   1      -8.784  81.215 119.105  0.00  0.00     0.381 N 
ATOM     19  H   LIG d   1      -7.896  81.658 119.233  0.00  0.00    -0.090 HD
ATOM     20  H   LIG d   1      -9.421  81.584 119.789  0.00  0.00    -0.090 HD
ATOM     21  H   LIG d   1      -9.126  81.399 118.188  0.00  0.00    -0.090 HD
ENDBRANCH   5  18
BRANCH   3  22
ATOM     22  C   LIG d   1     -11.148  77.068 119.490  0.00  0.00     0.382 C 
ATOM     23  O   LIG d   1     -11.889  76.521 118.638  0.00  0.00    -0.241 OA
ATOM     24  O   LIG d   1     -11.478  77.050 120.692  0.00  0.00    -0.241 OA
ENDBRANCH   3  22
TORSDOF 7
ENDMDL
MODEL 3
REMARK VINA RESULT:      -4.7     15.039     17.962
REMARK  7 active torsions:
REMARK  status: ('A' for Active; 'I' for Inactive)
REMARK    1  A    between atoms: C_2  and  C_3 
REMARK    2  A    between atoms: C_3  and  O_6 
REMARK    3  A    between atoms: C_3  and  C_4 
REMARK    4  A    between atoms: C_7  and  O_6 
REMARK    5  A    between atoms: C_9  and  C_10 
REMARK    6  A    between atoms: N_15  and  C_14 
REMARK    7  A    between atoms: N_20  and  C_19 
REMARK       I    between atoms: C_22  and  N_20 
ROOT
ATOM      1  C   LIG d   1      -2.793  93.286 119.304  0.00  0.00     0.161 C 
ATOM      2  C   LIG d   1      -2.665  94.627 118.907  0.00  0.00     0.016 C 
ATOM      3  C   LIG d   1      -1.813  95.052 117.862  0.00  0.00     0.038 C 
ATOM      4  C   LIG d   1      -1.140  94.138 117.036  0.00  0.00     0.028 C 
ATOM      5  C   LIG d   1      -0.846  92.807 117.720  0.00  0.00    -0.047 C 
ATOM      6  C   LIG d   1      -2.152  92.263 118.342  0.00  0.00     0.091 C 
ENDROOT
BRANCH   1   7
ATOM      7  O   LIG d   1      -4.183  92.970 119.516  0.00  0.00    -0.368 OA
BRANCH   7   8
ATOM      8  C   LIG d   1      -5.108  93.451 118.510  0.00  0.00     0.119 C 
BRANCH   8   9
ATOM      9  C   LIG d   1      -6.195  94.269 119.233  0.00  0.00     0.028 C 
ATOM     10  C   LIG d   1      -7.438  94.497 118.357  0.00  0.00     0.006 C 
ENDBRANCH   8   9
BRANCH   8  11
ATOM     11  C   LIG d   1      -5.851  92.293 117.837  0.00  0.00     0.028 C 
ATOM     12  C   LIG d   1      -5.396  92.055 116.389  0.00  0.00     0.006 C 
ENDBRANCH   8  11
ENDBRANCH   7   8
ENDBRANCH   1   7
BRANCH   6  13
ATOM     13  N   LIG d   1      -1.936  91.005 119.103  0.00  0.00    -0.311 N 
ATOM     14  C   LIG d   1      -2.580  89.869 118.841  0.00  0.00     0.210 C 
ATOM     15  C   LIG d   1      -2.223  88.696 119.758  0.00  0.00     0.109 C 
ATOM     16  O   LIG d   1      -3.390  89.714 117.915  0.00  0.00    -0.276 OA
ATOM     17  H   LIG d   1      -1.272  91.033 119.853  0.00  0.00     0.149 HD
ENDBRANCH   6  13
BRANCH   5  18
ATOM     18  N   LIG d   1      -0.268  91.904 116.707  0.00  0.00     0.381 N 
ATOM     19  H   LIG d   1       0.675  91.678 116.953  0.00  0.00    -0.090 HD
ATOM     20  H   LIG d   1      -0.258  92.375 115.819  0.00  0.00    -0.090 HD
ATOM     21  H   LIG d   1      -0.811  91.071 116.643  0.00  0.00    -0.090 HD
ENDBRANCH   5  18
BRANCH   3  22
ATOM     22  C   LIG d   1      -1.596  96.406 117.659  0.00  0.00     0.382 C 
ATOM     23  O   LIG d   1      -0.486  96.806 117.232  0.00  0.00    -0.241 OA
ATOM     24  O   LIG d   1      -2.481  97.236 117.939  0.00  0.00    -0.241 OA
ENDBRANCH   3  22
TORSDOF 7
ENDMDL
MODEL 4
REMARK VINA RESULT:      -4.7      2.453      5.440
REMARK  7 active torsions:
REMARK  status: ('A' for Active; 'I' for Inactive)
REMARK    1  A    between atoms: C_2  and  C_3 
REMARK    2  A    between atoms: C_3  and  O_6 
REMARK    3  A    between atoms: C_3  and  C_4 
REMARK    4  A    between atoms: C_7  and  O_6 
REMARK    5  A    between atoms: C_9  and  C_10 
REMARK    6  A    between atoms: N_15  and  C_14 
REMARK    7  A    between atoms: N_20  and  C_19 
REMARK       I    between atoms: C_22  and  N_20 
ROOT
ATOM      1  C   LIG d   1      -7.232  78.140 118.184  0.00  0.00     0.161 C 
ATOM      2  C   LIG d   1      -6.847  76.918 117.607  0.00  0.00     0.016 C 
ATOM      3  C   LIG d   1      -7.720  75.815 117.466  0.00  0.00     0.038 C 
ATOM      4  C   LIG d   1      -9.089  75.910 117.757  0.00  0.00     0.028 C 
ATOM      5  C   LIG d   1      -9.412  76.963 118.812  0.00  0.00    -0.047 C 
ATOM      6  C   LIG d   1      -8.751  78.300 118.406  0.00  0.00     0.091 C 
ENDROOT
BRANCH   1   7
ATOM      7  O   LIG d   1      -6.723  79.234 117.397  0.00  0.00    -0.368 OA
BRANCH   7   8
ATOM      8  C   LIG d   1      -5.783  80.114 118.062  0.00  0.00     0.119 C 
BRANCH   8   9
ATOM      9  C   LIG d   1      -6.362  81.540 118.003  0.00  0.00     0.028 C 
ATOM     10  C   LIG d   1      -6.091  82.338 119.290  0.00  0.00     0.006 C 
ENDBRANCH   8   9
BRANCH   8  11
ATOM     11  C   LIG d   1      -4.454  80.185 117.304  0.00  0.00     0.028 C 
ATOM     12  C   LIG d   1      -3.737  78.827 117.230  0.00  0.00     0.006 C 
ENDBRANCH   8  11
ENDBRANCH   7   8
ENDBRANCH   1   7
BRANCH   6  13
ATOM     13  N   LIG d   1      -8.947  79.362 119.427  0.00  0.00    -0.311 N 
ATOM     14  C   LIG d   1      -9.652  80.470 119.206  0.00  0.00     0.210 C 
ATOM     15  C   LIG d   1      -9.713  81.444 120.386  0.00  0.00     0.109 C 
ATOM     16  O   LIG d   1     -10.261  80.723 118.155  0.00  0.00    -0.276 OA
ATOM     17  H   LIG d   1      -8.514  79.223 120.319  0.00  0.00     0.149 HD
ENDBRANCH   6  13
BRANCH   5  18
ATOM     18  N   LIG d   1     -10.880  77.052 118.917  0.00  0.00     0.381 N 
ATOM     19  H   LIG d   1     -11.199  76.500 119.688  0.00  0.00    -0.090 HD
ATOM     20  H   LIG d   1     -11.290  76.685 118.076  0.00  0.00    -0.090 HD
ATOM     21  H   LIG d   1     -11.156  78.001 119.043  0.00  0.00    -0.090 HD
ENDBRANCH   5  18
BRANCH   3  22
ATOM     22  C   LIG d   1      -7.215  74.587 117.066  0.00  0.00     0.382 C 
ATOM     23  O   LIG d   1      -6.171  74.534 116.372  0.00  0.00    -0.241 OA
ATOM     24  O   LIG d   1      -7.816  73.534 117.353  0.00  0.00    -0.241 OA
ENDBRANCH   3  22
TORSDOF 7
ENDMDL
MODEL 5
REMARK VINA RESULT:      -4.6     15.296     17.395
REMARK  7 active torsions:
REMARK  status: ('A' for Active; 'I' for Inactive)
REMARK    1  A    between atoms: C_2  and  C_3 
REMARK    2  A    between atoms: C_3  and  O_6 
REMARK    3  A    between atoms: C_3  and  C_4 
REMARK    4  A    between atoms: C_7  and  O_6 
REMARK    5  A    between atoms: C_9  and  C_10 
REMARK    6  A    between atoms: N_15  and  C_14 
REMARK    7  A    between atoms: N_20  and  C_19 
REMARK       I    between atoms: C_22  and  N_20 
ROOT
ATOM      1  C   LIG d   1      -4.065  93.518 118.789  0.00  0.00     0.161 C 
ATOM      2  C   LIG d   1      -5.252  93.153 118.134  0.00  0.00     0.016 C 
ATOM      3  C   LIG d   1      -5.316  92.146 117.143  0.00  0.00     0.038 C 
ATOM      4  C   LIG d   1      -4.217  91.327 116.846  0.00  0.00     0.028 C 
ATOM      5  C   LIG d   1      -2.873  91.994 117.120  0.00  0.00    -0.047 C 
ATOM      6  C   LIG d   1      -2.877  92.560 118.558  0.00  0.00     0.091 C 
ENDROOT
BRANCH   1   7
ATOM      7  O   LIG d   1      -4.314  93.676 120.200  0.00  0.00    -0.368 OA
BRANCH   7   8
ATOM      8  C   LIG d   1      -5.628  94.166 120.565  0.00  0.00     0.119 C 
BRANCH   8   9
ATOM      9  C   LIG d   1      -5.507  95.684 120.801  0.00  0.00     0.028 C 
ATOM     10  C   LIG d   1      -6.129  96.506 119.660  0.00  0.00     0.006 C 
ENDBRANCH   8   9
BRANCH   8  11
ATOM     11  C   LIG d   1      -6.088  93.582 121.904  0.00  0.00     0.028 C 
ATOM     12  C   LIG d   1      -7.579  93.208 121.910  0.00  0.00     0.006 C 
ENDBRANCH   8  11
ENDBRANCH   7   8
ENDBRANCH   1   7
BRANCH   6  13
ATOM     13  N   LIG d   1      -1.631  93.303 118.879  0.00  0.00    -0.311 N 
ATOM     14  C   LIG d   1      -0.566  92.738 119.445  0.00  0.00     0.210 C 
ATOM     15  C   LIG d   1       0.607  93.688 119.708  0.00  0.00     0.109 C 
ATOM     16  O   LIG d   1      -0.469  91.534 119.726  0.00  0.00    -0.276 OA
ATOM     17  H   LIG d   1      -1.611  94.279 118.656  0.00  0.00     0.149 HD
ENDBRANCH   6  13
BRANCH   5  18
ATOM     18  N   LIG d   1      -1.821  90.985 116.898  0.00  0.00     0.381 N 
ATOM     19  H   LIG d   1      -2.237  90.083 116.774  0.00  0.00    -0.090 HD
ATOM     20  H   LIG d   1      -1.229  90.949 117.709  0.00  0.00    -0.090 HD
ATOM     21  H   LIG d   1      -1.283  91.224 116.095  0.00  0.00    -0.090 HD
ENDBRANCH   5  18
BRANCH   3  22
ATOM     22  C   LIG d   1      -6.481  91.978 116.409  0.00  0.00     0.382 C 
ATOM     23  O   LIG d   1      -6.988  92.954 115.805  0.00  0.00    -0.241 OA
ATOM     24  O   LIG d   1      -7.054  90.873 116.379  0.00  0.00    -0.241 OA
ENDBRANCH   3  22
TORSDOF 7
ENDMDL
MODEL 6
REMARK VINA RESULT:      -4.6      2.392      5.022
REMARK  7 active torsions:
REMARK  status: ('A' for Active; 'I' for Inactive)
REMARK    1  A    between atoms: C_2  and  C_3 
REMARK    2  A    between atoms: C_3  and  O_6 
REMARK    3  A    between atoms: C_3  and  C_4 
REMARK    4  A    between atoms: C_7  and  O_6 
REMARK    5  A    between atoms: C_9  and  C_10 
REMARK    6  A    between atoms: N_15  and  C_14 
REMARK    7  A    between atoms: N_20  and  C_19 
REMARK       I    between atoms: C_22  and  N_20 
ROOT
ATOM      1  C   LIG d   1      -8.312  78.536 118.348  0.00  0.00     0.161 C 
ATOM      2  C   LIG d   1      -9.555  77.888 118.445  0.00  0.00     0.016 C 
ATOM      3  C   LIG d   1      -9.778  76.563 118.005  0.00  0.00     0.038 C 
ATOM      4  C   LIG d   1      -8.729  75.739 117.572  0.00  0.00     0.028 C 
ATOM      5  C   LIG d   1      -7.553  76.513 116.984  0.00  0.00    -0.047 C 
ATOM      6  C   LIG d   1      -7.129  77.615 117.982  0.00  0.00     0.091 C 
ENDROOT
BRANCH   1   7
ATOM      7  O   LIG d   1      -8.034  79.245 119.572  0.00  0.00    -0.368 OA
BRANCH   7   8
ATOM      8  C   LIG d   1      -8.124  80.690 119.506  0.00  0.00     0.119 C 
BRANCH   8   9
ATOM      9  C   LIG d   1      -8.800  81.051 118.168  0.00  0.00     0.028 C 
ATOM     10  C   LIG d   1     -10.179  81.701 118.365  0.00  0.00     0.006 C 
ENDBRANCH   8   9
BRANCH   8  11
ATOM     11  C   LIG d   1      -6.735  81.333 119.445  0.00  0.00     0.028 C 
ATOM     12  C   LIG d   1      -6.467  82.046 118.110  0.00  0.00     0.006 C 
ENDBRANCH   8  11
ENDBRANCH   7   8
ENDBRANCH   1   7
BRANCH   6  13
ATOM     13  N   LIG d   1      -6.040  78.473 117.448  0.00  0.00    -0.311 N 
ATOM     14  C   LIG d   1      -4.820  78.525 117.981  0.00  0.00     0.210 C 
ATOM     15  C   LIG d   1      -3.853  79.491 117.289  0.00  0.00     0.109 C 
ATOM     16  O   LIG d   1      -4.438  77.840 118.942  0.00  0.00    -0.276 OA
ATOM     17  H   LIG d   1      -6.254  79.039 116.651  0.00  0.00     0.149 HD
ENDBRANCH   6  13
BRANCH   5  18
ATOM     18  N   LIG d   1      -6.478  75.543 116.703  0.00  0.00     0.381 N 
ATOM     19  H   LIG d   1      -6.137  75.157 117.560  0.00  0.00    -0.090 HD
ATOM     20  H   LIG d   1      -5.720  76.022 116.249  0.00  0.00    -0.090 HD
ATOM     21  H   LIG d   1      -6.820  74.815 116.115  0.00  0.00    -0.090 HD
ENDBRANCH   5  18
BRANCH   3  22
ATOM     22  C   LIG d   1     -11.071  76.064 117.957  0.00  0.00     0.382 C 
ATOM     23  O   LIG d   1     -11.945  76.510 118.738  0.00  0.00    -0.241 OA
ATOM     24  O   LIG d   1     -11.363  75.141 117.172  0.00  0.00    -0.241 OA
ENDBRANCH   3  22
TORSDOF 7
ENDMDL
MODEL 7
REMARK VINA RESULT:      -4.5     15.999     18.496
REMARK  7 active torsions:
REMARK  status: ('A' for Active; 'I' for Inactive)
REMARK    1  A    between atoms: C_2  and  C_3 
REMARK    2  A    between atoms: C_3  and  O_6 
REMARK    3  A    between atoms: C_3  and  C_4 
REMARK    4  A    between atoms: C_7  and  O_6 
REMARK    5  A    between atoms: C_9  and  C_10 
REMARK    6  A    between atoms: N_15  and  C_14 
REMARK    7  A    between atoms: N_20  and  C_19 
REMARK       I    between atoms: C_22  and  N_20 
ROOT
ATOM      1  C   LIG d   1      -5.467  93.626 119.649  0.00  0.00     0.161 C 
ATOM      2  C   LIG d   1      -5.329  92.617 118.681  0.00  0.00     0.016 C 
ATOM      3  C   LIG d   1      -6.133  92.537 117.521  0.00  0.00     0.038 C 
ATOM      4  C   LIG d   1      -7.035  93.552 117.172  0.00  0.00     0.028 C 
ATOM      5  C   LIG d   1      -7.566  94.330 118.372  0.00  0.00    -0.047 C 
ATOM      6  C   LIG d   1      -6.371  94.804 119.231  0.00  0.00     0.091 C 
ENDROOT
BRANCH   1   7
ATOM      7  O   LIG d   1      -4.167  94.107 120.043  0.00  0.00    -0.368 OA
BRANCH   7   8
ATOM      8  C   LIG d   1      -3.449  94.885 119.054  0.00  0.00     0.119 C 
BRANCH   8   9
ATOM      9  C   LIG d   1      -2.096  94.189 118.810  0.00  0.00     0.028 C 
ATOM     10  C   LIG d   1      -1.974  93.628 117.383  0.00  0.00     0.006 C 
ENDBRANCH   8   9
BRANCH   8  11
ATOM     11  C   LIG d   1      -3.098  96.277 119.588  0.00  0.00     0.028 C 
ATOM     12  C   LIG d   1      -3.214  96.375 121.118  0.00  0.00     0.006 C 
ENDBRANCH   8  11
ENDBRANCH   7   8
ENDBRANCH   1   7
BRANCH   6  13
ATOM     13  N   LIG d   1      -6.804  95.501 120.470  0.00  0.00    -0.311 N 
ATOM     14  C   LIG d   1      -6.885  96.826 120.576  0.00  0.00     0.210 C 
ATOM     15  C   LIG d   1      -7.335  97.339 121.948  0.00  0.00     0.109 C 
ATOM     16  O   LIG d   1      -6.658  97.624 119.655  0.00  0.00    -0.276 OA
ATOM     17  H   LIG d   1      -7.038  94.928 121.257  0.00  0.00     0.149 HD
ENDBRANCH   6  13
BRANCH   5  18
ATOM     18  N   LIG d   1      -8.385  95.442 117.856  0.00  0.00     0.381 N 
ATOM     19  H   LIG d   1      -8.185  95.589 116.887  0.00  0.00    -0.090 HD
ATOM     20  H   LIG d   1      -8.149  96.280 118.358  0.00  0.00    -0.090 HD
ATOM     21  H   LIG d   1      -9.353  95.237 117.975  0.00  0.00    -0.090 HD
ENDBRANCH   5  18
BRANCH   3  22
ATOM     22  C   LIG d   1      -6.066  91.410 116.715  0.00  0.00     0.382 C 
ATOM     23  O   LIG d   1      -7.121  90.873 116.300  0.00  0.00    -0.241 OA
ATOM     24  O   LIG d   1      -4.966  90.898 116.436  0.00  0.00    -0.241 OA
ENDBRANCH   3  22
TORSDOF 7
ENDMDL
MODEL 8
REMARK VINA RESULT:      -4.4     15.920     17.811
REMARK  7 active torsions:
REMARK  status: ('A' for Active; 'I' for Inactive)
REMARK    1  A    between atoms: C_2  and  C_3 
REMARK    2  A    between atoms: C_3  and  O_6 
REMARK    3  A    between atoms: C_3  and  C_4 
REMARK    4  A    between atoms: C_7  and  O_6 
REMARK    5  A    between atoms: C_9  and  C_10 
REMARK    6  A    between atoms: N_15  and  C_14 
REMARK    7  A    between atoms: N_20  and  C_19 
REMARK       I    between atoms: C_22  and  N_20 
ROOT
ATOM      1  C   LIG d   1      -5.444  93.441 119.514  0.00  0.00     0.161 C 
ATOM      2  C   LIG d   1      -6.815  93.573 119.240  0.00  0.00     0.016 C 
ATOM      3  C   LIG d   1      -7.423  94.799 118.881  0.00  0.00     0.038 C 
ATOM      4  C   LIG d   1      -6.668  95.953 118.624  0.00  0.00     0.028 C 
ATOM      5  C   LIG d   1      -5.343  95.991 119.378  0.00  0.00    -0.047 C 
ATOM      6  C   LIG d   1      -4.587  94.666 119.131  0.00  0.00     0.091 C 
ENDROOT
BRANCH   1   7
ATOM      7  O   LIG d   1      -4.931  92.253 118.881  0.00  0.00    -0.368 OA
BRANCH   7   8
ATOM      8  C   LIG d   1      -4.483  92.403 117.512  0.00  0.00     0.119 C 
BRANCH   8   9
ATOM      9  C   LIG d   1      -5.394  91.529 116.628  0.00  0.00     0.028 C 
ATOM     10  C   LIG d   1      -6.391  92.363 115.807  0.00  0.00     0.006 C 
ENDBRANCH   8   9
BRANCH   8  11
ATOM     11  C   LIG d   1      -3.072  91.839 117.322  0.00  0.00     0.028 C 
ATOM     12  C   LIG d   1      -2.498  91.224 118.609  0.00  0.00     0.006 C 
ENDBRANCH   8  11
ENDBRANCH   7   8
ENDBRANCH   1   7
BRANCH   6  13
ATOM     13  N   LIG d   1      -3.318  94.585 119.901  0.00  0.00    -0.311 N 
ATOM     14  C   LIG d   1      -2.123  94.846 119.374  0.00  0.00     0.210 C 
ATOM     15  C   LIG d   1      -0.942  94.683 120.336  0.00  0.00     0.109 C 
ATOM     16  O   LIG d   1      -1.932  95.228 118.209  0.00  0.00    -0.276 OA
ATOM     17  H   LIG d   1      -3.384  94.313 120.862  0.00  0.00     0.149 HD
ENDBRANCH   6  13
BRANCH   5  18
ATOM     18  N   LIG d   1      -4.599  97.177 118.913  0.00  0.00     0.381 N 
ATOM     19  H   LIG d   1      -4.585  97.872 119.633  0.00  0.00    -0.090 HD
ATOM     20  H   LIG d   1      -5.069  97.562 118.113  0.00  0.00    -0.090 HD
ATOM     21  H   LIG d   1      -3.668  96.921 118.670  0.00  0.00    -0.090 HD
ENDBRANCH   5  18
BRANCH   3  22
ATOM     22  C   LIG d   1      -8.805  94.887 118.815  0.00  0.00     0.382 C 
ATOM     23  O   LIG d   1      -9.348  95.539 117.890  0.00  0.00    -0.241 OA
ATOM     24  O   LIG d   1      -9.514  94.361 119.693  0.00  0.00    -0.241 OA
ENDBRANCH   3  22
TORSDOF 7
ENDMDL
MODEL 9
REMARK VINA RESULT:      -4.4     15.453     17.727
REMARK  7 active torsions:
REMARK  status: ('A' for Active; 'I' for Inactive)
REMARK    1  A    between atoms: C_2  and  C_3 
REMARK    2  A    between atoms: C_3  and  O_6 
REMARK    3  A    between atoms: C_3  and  C_4 
REMARK    4  A    between atoms: C_7  and  O_6 
REMARK    5  A    between atoms: C_9  and  C_10 
REMARK    6  A    between atoms: N_15  and  C_14 
REMARK    7  A    between atoms: N_20  and  C_19 
REMARK       I    between atoms: C_22  and  N_20 
ROOT
ATOM      1  C   LIG d   1      -3.866  93.504 119.106  0.00  0.00     0.161 C 
ATOM      2  C   LIG d   1      -5.103  93.188 118.521  0.00  0.00     0.016 C 
ATOM      3  C   LIG d   1      -5.248  92.272 117.454  0.00  0.00     0.038 C 
ATOM      4  C   LIG d   1      -4.177  91.491 116.996  0.00  0.00     0.028 C 
ATOM      5  C   LIG d   1      -2.815  92.142 117.216  0.00  0.00    -0.047 C 
ATOM      6  C   LIG d   1      -2.701  92.579 118.694  0.00  0.00     0.091 C 
ENDROOT
BRANCH   1   7
ATOM      7  O   LIG d   1      -3.997  93.536 120.541  0.00  0.00    -0.368 OA
BRANCH   7   8
ATOM      8  C   LIG d   1      -3.996  94.849 121.152  0.00  0.00     0.119 C 
BRANCH   8   9
ATOM      9  C   LIG d   1      -5.455  95.194 121.510  0.00  0.00     0.028 C 
ATOM     10  C   LIG d   1      -6.216  93.992 122.094  0.00  0.00     0.006 C 
ENDBRANCH   8   9
BRANCH   8  11
ATOM     11  C   LIG d   1      -3.557  95.927 120.157  0.00  0.00     0.028 C 
ATOM     12  C   LIG d   1      -4.591  97.054 120.004  0.00  0.00     0.006 C 
ENDBRANCH   8  11
ENDBRANCH   7   8
ENDBRANCH   1   7
BRANCH   6  13
ATOM     13  N   LIG d   1      -1.433  93.301 118.975  0.00  0.00    -0.311 N 
ATOM     14  C   LIG d   1      -0.328  92.699 119.413  0.00  0.00     0.210 C 
ATOM     15  C   LIG d   1       0.863  93.632 119.658  0.00  0.00     0.109 C 
ATOM     16  O   LIG d   1      -0.211  91.477 119.590  0.00  0.00    -0.276 OA
ATOM     17  H   LIG d   1      -1.429  94.292 118.829  0.00  0.00     0.149 HD
ENDBRANCH   6  13
BRANCH   5  18
ATOM     18  N   LIG d   1      -1.784  91.164 116.821  0.00  0.00     0.381 N 
ATOM     19  H   LIG d   1      -2.103  90.635 116.034  0.00  0.00    -0.090 HD
ATOM     20  H   LIG d   1      -1.628  90.530 117.585  0.00  0.00    -0.090 HD
ATOM     21  H   LIG d   1      -0.937  91.636 116.592  0.00  0.00    -0.090 HD
ENDBRANCH   5  18
BRANCH   3  22
ATOM     22  C   LIG d   1      -6.469  92.160 116.806  0.00  0.00     0.382 C 
ATOM     23  O   LIG d   1      -6.958  91.026 116.583  0.00  0.00    -0.241 OA
ATOM     24  O   LIG d   1      -7.066  93.176 116.403  0.00  0.00    -0.241 OA
ENDBRANCH   3  22
TORSDOF 7
ENDMDL
