MODEL 1
REMARK VINA RESULT:      -5.2      0.000      0.000
REMARK  7 active torsions:
REMARK  status: ('A' for Active; 'I' for Inactive)
REMARK    1  A    between atoms: C_2  and  C_3 
REMARK    2  A    between atoms: C_3  and  O_6 
REMARK    3  A    between atoms: C_3  and  C_4 
REMARK    4  A    between atoms: C_7  and  O_6 
REMARK    5  A    between atoms: C_9  and  C_10 
REMARK    6  A    between atoms: N_15  and  C_14 
REMARK    7  A    between atoms: N_20  and  C_19 
REMARK       I    between atoms: C_22  and  N_20 
ROOT
ATOM      1  C   LIG d   1       0.348  57.659 117.613  0.00  0.00     0.161 C 
ATOM      2  C   LIG d   1      -0.439  58.795 117.863  0.00  0.00     0.016 C 
ATOM      3  C   LIG d   1      -1.852  58.790 117.809  0.00  0.00     0.038 C 
ATOM      4  C   LIG d   1      -2.584  57.604 117.650  0.00  0.00     0.028 C 
ATOM      5  C   LIG d   1      -1.823  56.520 116.893  0.00  0.00    -0.047 C 
ATOM      6  C   LIG d   1      -0.435  56.331 117.547  0.00  0.00     0.091 C 
ENDROOT
BRANCH   1   7
ATOM      7  O   LIG d   1       1.402  57.570 118.592  0.00  0.00    -0.368 OA
BRANCH   7   8
ATOM      8  C   LIG d   1       1.922  58.830 119.085  0.00  0.00     0.119 C 
BRANCH   8   9
ATOM      9  C   LIG d   1       3.283  59.068 118.403  0.00  0.00     0.028 C 
ATOM     10  C   LIG d   1       4.464  58.607 119.273  0.00  0.00     0.006 C 
ENDBRANCH   8   9
BRANCH   8  11
ATOM     11  C   LIG d   1       2.226  58.759 120.584  0.00  0.00     0.028 C 
ATOM     12  C   LIG d   1       1.573  59.900 121.380  0.00  0.00     0.006 C 
ENDBRANCH   8  11
ENDBRANCH   7   8
ENDBRANCH   1   7
BRANCH   6  13
ATOM     13  N   LIG d   1       0.406  55.348 116.817  0.00  0.00    -0.311 N 
ATOM     14  C   LIG d   1       0.998  54.310 117.405  0.00  0.00     0.210 C 
ATOM     15  C   LIG d   1       1.838  53.431 116.473  0.00  0.00     0.109 C 
ATOM     16  O   LIG d   1       0.882  54.015 118.604  0.00  0.00    -0.276 OA
ATOM     17  H   LIG d   1       0.529  55.493 115.834  0.00  0.00     0.149 HD
ENDBRANCH   6  13
BRANCH   5  18
ATOM     18  N   LIG d   1      -2.646  55.296 116.920  0.00  0.00     0.381 N 
ATOM     19  H   LIG d   1      -2.557  54.809 116.051  0.00  0.00    -0.090 HD
ATOM     20  H   LIG d   1      -3.610  55.555 117.039  0.00  0.00    -0.090 HD
ATOM     21  H   LIG d   1      -2.358  54.708 117.670  0.00  0.00    -0.090 HD
ENDBRANCH   5  18
BRANCH   3  22
ATOM     22  C   LIG d   1      -2.547  59.988 117.876  0.00  0.00     0.382 C 
ATOM     23  O   LIG d   1      -2.156  60.897 118.647  0.00  0.00    -0.241 OA
ATOM     24  O   LIG d   1      -3.585  60.155 117.208  0.00  0.00    -0.241 OA
ENDBRANCH   3  22
TORSDOF 7
ENDMDL
MODEL 2
REMARK VINA RESULT:      -5.0     19.792     22.668
REMARK  7 active torsions:
REMARK  status: ('A' for Active; 'I' for Inactive)
REMARK    1  A    between atoms: C_2  and  C_3 
REMARK    2  A    between atoms: C_3  and  O_6 
REMARK    3  A    between atoms: C_3  and  C_4 
REMARK    4  A    between atoms: C_7  and  O_6 
REMARK    5  A    between atoms: C_9  and  C_10 
REMARK    6  A    between atoms: N_15  and  C_14 
REMARK    7  A    between atoms: N_20  and  C_19 
REMARK       I    between atoms: C_22  and  N_20 
ROOT
ATOM      1  C   LIG d   1      -7.397  78.070 117.894  0.00  0.00     0.161 C 
ATOM      2  C   LIG d   1      -8.632  77.494 118.232  0.00  0.00     0.016 C 
ATOM      3  C   LIG d   1      -9.774  78.252 118.582  0.00  0.00     0.038 C 
ATOM      4  C   LIG d   1      -9.799  79.650 118.468  0.00  0.00     0.028 C 
ATOM      5  C   LIG d   1      -8.425  80.294 118.616  0.00  0.00    -0.047 C 
ATOM      6  C   LIG d   1      -7.436  79.594 117.657  0.00  0.00     0.091 C 
ENDROOT
BRANCH   1   7
ATOM      7  O   LIG d   1      -6.844  77.398 116.744  0.00  0.00    -0.368 OA
BRANCH   7   8
ATOM      8  C   LIG d   1      -6.129  76.166 117.009  0.00  0.00     0.119 C 
BRANCH   8   9
ATOM      9  C   LIG d   1      -4.623  76.494 117.003  0.00  0.00     0.028 C 
ATOM     10  C   LIG d   1      -4.250  77.519 115.919  0.00  0.00     0.006 C 
ENDBRANCH   8   9
BRANCH   8  11
ATOM     11  C   LIG d   1      -6.327  75.153 115.877  0.00  0.00     0.028 C 
ATOM     12  C   LIG d   1      -6.588  73.729 116.392  0.00  0.00     0.006 C 
ENDBRANCH   8  11
ENDBRANCH   7   8
ENDBRANCH   1   7
BRANCH   6  13
ATOM     13  N   LIG d   1      -6.049  80.108 117.799  0.00  0.00    -0.311 N 
ATOM     14  C   LIG d   1      -5.561  81.111 117.072  0.00  0.00     0.210 C 
ATOM     15  C   LIG d   1      -4.100  81.470 117.363  0.00  0.00     0.109 C 
ATOM     16  O   LIG d   1      -6.208  81.760 116.236  0.00  0.00    -0.276 OA
ATOM     17  H   LIG d   1      -5.464  79.659 118.476  0.00  0.00     0.149 HD
ENDBRANCH   6  13
BRANCH   5  18
ATOM     18  N   LIG d   1      -8.577  81.735 118.340  0.00  0.00     0.381 N 
ATOM     19  H   LIG d   1      -7.751  82.084 117.896  0.00  0.00    -0.090 HD
ATOM     20  H   LIG d   1      -8.696  82.223 119.211  0.00  0.00    -0.090 HD
ATOM     21  H   LIG d   1      -9.368  81.889 117.754  0.00  0.00    -0.090 HD
ENDBRANCH   5  18
BRANCH   3  22
ATOM     22  C   LIG d   1     -10.895  77.612 119.088  0.00  0.00     0.382 C 
ATOM     23  O   LIG d   1     -11.617  76.919 118.332  0.00  0.00    -0.241 OA
ATOM     24  O   LIG d   1     -11.218  77.754 120.283  0.00  0.00    -0.241 OA
ENDBRANCH   3  22
TORSDOF 7
ENDMDL
MODEL 3
REMARK VINA RESULT:      -4.9     20.517     22.996
REMARK  7 active torsions:
REMARK  status: ('A' for Active; 'I' for Inactive)
REMARK    1  A    between atoms: C_2  and  C_3 
REMARK    2  A    between atoms: C_3  and  O_6 
REMARK    3  A    between atoms: C_3  and  C_4 
REMARK    4  A    between atoms: C_7  and  O_6 
REMARK    5  A    between atoms: C_9  and  C_10 
REMARK    6  A    between atoms: N_15  and  C_14 
REMARK    7  A    between atoms: N_20  and  C_19 
REMARK       I    between atoms: C_22  and  N_20 
ROOT
ATOM      1  C   LIG d   1      -8.270  79.066 117.931  0.00  0.00     0.161 C 
ATOM      2  C   LIG d   1      -9.394  78.279 118.232  0.00  0.00     0.016 C 
ATOM      3  C   LIG d   1      -9.419  76.872 118.091  0.00  0.00     0.038 C 
ATOM      4  C   LIG d   1      -8.266  76.137 117.779  0.00  0.00     0.028 C 
ATOM      5  C   LIG d   1      -7.240  76.931 116.977  0.00  0.00    -0.047 C 
ATOM      6  C   LIG d   1      -6.968  78.271 117.697  0.00  0.00     0.091 C 
ENDROOT
BRANCH   1   7
ATOM      7  O   LIG d   1      -8.075  80.054 118.962  0.00  0.00    -0.368 OA
BRANCH   7   8
ATOM      8  C   LIG d   1      -8.162  81.438 118.543  0.00  0.00     0.119 C 
BRANCH   8   9
ATOM      9  C   LIG d   1      -7.269  82.265 119.488  0.00  0.00     0.028 C 
ATOM     10  C   LIG d   1      -5.937  81.562 119.801  0.00  0.00     0.006 C 
ENDBRANCH   8   9
BRANCH   8  11
ATOM     11  C   LIG d   1      -9.577  81.991 118.737  0.00  0.00     0.028 C 
ATOM     12  C   LIG d   1      -9.678  82.971 119.916  0.00  0.00     0.006 C 
ENDBRANCH   8  11
ENDBRANCH   7   8
ENDBRANCH   1   7
BRANCH   6  13
ATOM     13  N   LIG d   1      -6.039  79.146 116.934  0.00  0.00    -0.311 N 
ATOM     14  C   LIG d   1      -4.723  79.174 117.142  0.00  0.00     0.210 C 
ATOM     15  C   LIG d   1      -3.951  80.162 116.261  0.00  0.00     0.109 C 
ATOM     16  O   LIG d   1      -4.119  78.453 117.949  0.00  0.00    -0.276 OA
ATOM     17  H   LIG d   1      -6.441  79.741 116.238  0.00  0.00     0.149 HD
ENDBRANCH   6  13
BRANCH   5  18
ATOM     18  N   LIG d   1      -6.034  76.092 116.841  0.00  0.00     0.381 N 
ATOM     19  H   LIG d   1      -6.267  75.134 117.011  0.00  0.00    -0.090 HD
ATOM     20  H   LIG d   1      -5.360  76.379 117.528  0.00  0.00    -0.090 HD
ATOM     21  H   LIG d   1      -5.651  76.191 115.927  0.00  0.00    -0.090 HD
ENDBRANCH   5  18
BRANCH   3  22
ATOM     22  C   LIG d   1     -10.619  76.190 118.222  0.00  0.00     0.382 C 
ATOM     23  O   LIG d   1     -11.690  76.827 118.367  0.00  0.00    -0.241 OA
ATOM     24  O   LIG d   1     -10.639  74.945 118.242  0.00  0.00    -0.241 OA
ENDBRANCH   3  22
TORSDOF 7
ENDMDL
MODEL 4
REMARK VINA RESULT:      -4.8     19.718     22.572
REMARK  7 active torsions:
REMARK  status: ('A' for Active; 'I' for Inactive)
REMARK    1  A    between atoms: C_2  and  C_3 
REMARK    2  A    between atoms: C_3  and  O_6 
REMARK    3  A    between atoms: C_3  and  C_4 
REMARK    4  A    between atoms: C_7  and  O_6 
REMARK    5  A    between atoms: C_9  and  C_10 
REMARK    6  A    between atoms: N_15  and  C_14 
REMARK    7  A    between atoms: N_20  and  C_19 
REMARK       I    between atoms: C_22  and  N_20 
ROOT
ATOM      1  C   LIG d   1      -7.509  77.965 117.872  0.00  0.00     0.161 C 
ATOM      2  C   LIG d   1      -8.762  77.433 118.219  0.00  0.00     0.016 C 
ATOM      3  C   LIG d   1      -9.867  78.229 118.598  0.00  0.00     0.038 C 
ATOM      4  C   LIG d   1      -9.837  79.629 118.510  0.00  0.00     0.028 C 
ATOM      5  C   LIG d   1      -8.437  80.215 118.649  0.00  0.00    -0.047 C 
ATOM      6  C   LIG d   1      -7.490  79.493 117.663  0.00  0.00     0.091 C 
ENDROOT
BRANCH   1   7
ATOM      7  O   LIG d   1      -6.999  77.292 116.704  0.00  0.00    -0.368 OA
BRANCH   7   8
ATOM      8  C   LIG d   1      -6.007  76.264 116.942  0.00  0.00     0.119 C 
BRANCH   8   9
ATOM      9  C   LIG d   1      -6.740  74.908 116.954  0.00  0.00     0.028 C 
ATOM     10  C   LIG d   1      -6.282  73.983 115.814  0.00  0.00     0.006 C 
ENDBRANCH   8   9
BRANCH   8  11
ATOM     11  C   LIG d   1      -5.385  76.401 118.334  0.00  0.00     0.028 C 
ATOM     12  C   LIG d   1      -3.960  76.976 118.296  0.00  0.00     0.006 C 
ENDBRANCH   8  11
ENDBRANCH   7   8
ENDBRANCH   1   7
BRANCH   6  13
ATOM     13  N   LIG d   1      -6.081  79.948 117.793  0.00  0.00    -0.311 N 
ATOM     14  C   LIG d   1      -5.568  80.955 117.089  0.00  0.00     0.210 C 
ATOM     15  C   LIG d   1      -4.089  81.248 117.362  0.00  0.00     0.109 C 
ATOM     16  O   LIG d   1      -6.205  81.654 116.287  0.00  0.00    -0.276 OA
ATOM     17  H   LIG d   1      -5.502  79.456 118.445  0.00  0.00     0.149 HD
ENDBRANCH   6  13
BRANCH   5  18
ATOM     18  N   LIG d   1      -8.534  81.666 118.400  0.00  0.00     0.381 N 
ATOM     19  H   LIG d   1      -7.691  82.117 118.695  0.00  0.00    -0.090 HD
ATOM     20  H   LIG d   1      -9.296  82.038 118.939  0.00  0.00    -0.090 HD
ATOM     21  H   LIG d   1      -8.689  81.836 117.431  0.00  0.00    -0.090 HD
ENDBRANCH   5  18
BRANCH   3  22
ATOM     22  C   LIG d   1     -11.005  77.625 119.110  0.00  0.00     0.382 C 
ATOM     23  O   LIG d   1     -11.291  77.755 120.325  0.00  0.00    -0.241 OA
ATOM     24  O   LIG d   1     -11.726  76.916 118.383  0.00  0.00    -0.241 OA
ENDBRANCH   3  22
TORSDOF 7
ENDMDL
MODEL 5
REMARK VINA RESULT:      -4.7     18.924     21.848
REMARK  7 active torsions:
REMARK  status: ('A' for Active; 'I' for Inactive)
REMARK    1  A    between atoms: C_2  and  C_3 
REMARK    2  A    between atoms: C_3  and  O_6 
REMARK    3  A    between atoms: C_3  and  C_4 
REMARK    4  A    between atoms: C_7  and  O_6 
REMARK    5  A    between atoms: C_9  and  C_10 
REMARK    6  A    between atoms: N_15  and  C_14 
REMARK    7  A    between atoms: N_20  and  C_19 
REMARK       I    between atoms: C_22  and  N_20 
ROOT
ATOM      1  C   LIG d   1      -7.540  77.127 117.896  0.00  0.00     0.161 C 
ATOM      2  C   LIG d   1      -8.228  75.905 117.812  0.00  0.00     0.016 C 
ATOM      3  C   LIG d   1      -9.595  75.756 118.142  0.00  0.00     0.038 C 
ATOM      4  C   LIG d   1     -10.410  76.859 118.436  0.00  0.00     0.028 C 
ATOM      5  C   LIG d   1      -9.644  78.039 119.024  0.00  0.00    -0.047 C 
ATOM      6  C   LIG d   1      -8.441  78.362 118.109  0.00  0.00     0.091 C 
ENDROOT
BRANCH   1   7
ATOM      7  O   LIG d   1      -6.714  77.304 116.729  0.00  0.00    -0.368 OA
BRANCH   7   8
ATOM      8  C   LIG d   1      -5.284  77.195 116.938  0.00  0.00     0.119 C 
BRANCH   8   9
ATOM      9  C   LIG d   1      -4.639  78.488 116.402  0.00  0.00     0.028 C 
ATOM     10  C   LIG d   1      -3.791  79.205 117.466  0.00  0.00     0.006 C 
ENDBRANCH   8   9
BRANCH   8  11
ATOM     11  C   LIG d   1      -4.683  76.064 116.099  0.00  0.00     0.028 C 
ATOM     12  C   LIG d   1      -4.426  74.788 116.917  0.00  0.00     0.006 C 
ENDBRANCH   8  11
ENDBRANCH   7   8
ENDBRANCH   1   7
BRANCH   6  13
ATOM     13  N   LIG d   1      -7.589  79.450 118.655  0.00  0.00    -0.311 N 
ATOM     14  C   LIG d   1      -7.358  80.594 118.012  0.00  0.00     0.210 C 
ATOM     15  C   LIG d   1      -6.435  81.573 118.745  0.00  0.00     0.109 C 
ATOM     16  O   LIG d   1      -7.856  80.903 116.919  0.00  0.00    -0.276 OA
ATOM     17  H   LIG d   1      -7.170  79.296 119.552  0.00  0.00     0.149 HD
ENDBRANCH   6  13
BRANCH   5  18
ATOM     18  N   LIG d   1     -10.589  79.164 119.154  0.00  0.00     0.381 N 
ATOM     19  H   LIG d   1     -11.402  78.867 119.656  0.00  0.00    -0.090 HD
ATOM     20  H   LIG d   1     -10.875  79.456 118.236  0.00  0.00    -0.090 HD
ATOM     21  H   LIG d   1     -10.154  79.922 119.631  0.00  0.00    -0.090 HD
ENDBRANCH   5  18
BRANCH   3  22
ATOM     22  C   LIG d   1     -10.150  74.488 118.218  0.00  0.00     0.382 C 
ATOM     23  O   LIG d   1      -9.419  73.497 118.462  0.00  0.00    -0.241 OA
ATOM     24  O   LIG d   1     -11.364  74.315 118.002  0.00  0.00    -0.241 OA
ENDBRANCH   3  22
TORSDOF 7
ENDMDL
MODEL 6
REMARK VINA RESULT:      -4.7     21.148     23.678
REMARK  7 active torsions:
REMARK  status: ('A' for Active; 'I' for Inactive)
REMARK    1  A    between atoms: C_2  and  C_3 
REMARK    2  A    between atoms: C_3  and  O_6 
REMARK    3  A    between atoms: C_3  and  C_4 
REMARK    4  A    between atoms: C_7  and  O_6 
REMARK    5  A    between atoms: C_9  and  C_10 
REMARK    6  A    between atoms: N_15  and  C_14 
REMARK    7  A    between atoms: N_20  and  C_19 
REMARK       I    between atoms: C_22  and  N_20 
ROOT
ATOM      1  C   LIG d   1      -7.889  78.878 118.460  0.00  0.00     0.161 C 
ATOM      2  C   LIG d   1      -8.456  77.645 118.100  0.00  0.00     0.016 C 
ATOM      3  C   LIG d   1      -9.787  77.280 118.409  0.00  0.00     0.038 C 
ATOM      4  C   LIG d   1     -10.694  78.191 118.971  0.00  0.00     0.028 C 
ATOM      5  C   LIG d   1     -10.023  79.275 119.809  0.00  0.00    -0.047 C 
ATOM      6  C   LIG d   1      -8.896  79.927 118.976  0.00  0.00     0.091 C 
ENDROOT
BRANCH   1   7
ATOM      7  O   LIG d   1      -7.133  79.410 117.354  0.00  0.00    -0.368 OA
BRANCH   7   8
ATOM      8  C   LIG d   1      -5.701  79.510 117.550  0.00  0.00     0.119 C 
BRANCH   8   9
ATOM      9  C   LIG d   1      -5.332  81.006 117.510  0.00  0.00     0.028 C 
ATOM     10  C   LIG d   1      -4.603  81.465 118.784  0.00  0.00     0.006 C 
ENDBRANCH   8   9
BRANCH   8  11
ATOM     11  C   LIG d   1      -4.934  78.872 116.389  0.00  0.00     0.028 C 
ATOM     12  C   LIG d   1      -5.219  77.369 116.241  0.00  0.00     0.006 C 
ENDBRANCH   8  11
ENDBRANCH   7   8
ENDBRANCH   1   7
BRANCH   6  13
ATOM     13  N   LIG d   1      -8.133  80.941 119.750  0.00  0.00    -0.311 N 
ATOM     14  C   LIG d   1      -8.425  82.241 119.743  0.00  0.00     0.210 C 
ATOM     15  C   LIG d   1      -7.500  83.115 120.595  0.00  0.00     0.109 C 
ATOM     16  O   LIG d   1      -9.381  82.748 119.138  0.00  0.00    -0.276 OA
ATOM     17  H   LIG d   1      -7.359  80.612 120.294  0.00  0.00     0.149 HD
ENDBRANCH   6  13
BRANCH   5  18
ATOM     18  N   LIG d   1     -11.068  80.232 120.218  0.00  0.00     0.381 N 
ATOM     19  H   LIG d   1     -10.667  81.141 120.337  0.00  0.00    -0.090 HD
ATOM     20  H   LIG d   1     -11.450  79.939 121.100  0.00  0.00    -0.090 HD
ATOM     21  H   LIG d   1     -11.788  80.266 119.531  0.00  0.00    -0.090 HD
ENDBRANCH   5  18
BRANCH   3  22
ATOM     22  C   LIG d   1     -10.211  75.978 118.192  0.00  0.00     0.382 C 
ATOM     23  O   LIG d   1      -9.387  75.033 118.245  0.00  0.00    -0.241 OA
ATOM     24  O   LIG d   1     -11.398  75.741 117.899  0.00  0.00    -0.241 OA
ENDBRANCH   3  22
TORSDOF 7
ENDMDL
MODEL 7
REMARK VINA RESULT:      -4.6     20.393     23.307
REMARK  7 active torsions:
REMARK  status: ('A' for Active; 'I' for Inactive)
REMARK    1  A    between atoms: C_2  and  C_3 
REMARK    2  A    between atoms: C_3  and  O_6 
REMARK    3  A    between atoms: C_3  and  C_4 
REMARK    4  A    between atoms: C_7  and  O_6 
REMARK    5  A    between atoms: C_9  and  C_10 
REMARK    6  A    between atoms: N_15  and  C_14 
REMARK    7  A    between atoms: N_20  and  C_19 
REMARK       I    between atoms: C_22  and  N_20 
ROOT
ATOM      1  C   LIG d   1      -7.164  79.148 117.834  0.00  0.00     0.161 C 
ATOM      2  C   LIG d   1      -6.651  77.954 117.299  0.00  0.00     0.016 C 
ATOM      3  C   LIG d   1      -7.381  76.744 117.255  0.00  0.00     0.038 C 
ATOM      4  C   LIG d   1      -8.738  76.684 117.608  0.00  0.00     0.028 C 
ATOM      5  C   LIG d   1      -9.147  77.744 118.625  0.00  0.00    -0.047 C 
ATOM      6  C   LIG d   1      -8.680  79.129 118.122  0.00  0.00     0.091 C 
ENDROOT
BRANCH   1   7
ATOM      7  O   LIG d   1      -6.832  80.253 116.970  0.00  0.00    -0.368 OA
BRANCH   7   8
ATOM      8  C   LIG d   1      -6.096  81.341 117.581  0.00  0.00     0.119 C 
BRANCH   8   9
ATOM      9  C   LIG d   1      -4.956  81.727 116.618  0.00  0.00     0.028 C 
ATOM     10  C   LIG d   1      -4.096  80.519 116.213  0.00  0.00     0.006 C 
ENDBRANCH   8   9
BRANCH   8  11
ATOM     11  C   LIG d   1      -5.403  80.890 118.870  0.00  0.00     0.028 C 
ATOM     12  C   LIG d   1      -5.784  81.752 120.084  0.00  0.00     0.006 C 
ENDBRANCH   8  11
ENDBRANCH   7   8
ENDBRANCH   1   7
BRANCH   6  13
ATOM     13  N   LIG d   1      -8.966  80.212 119.097  0.00  0.00    -0.311 N 
ATOM     14  C   LIG d   1      -9.589  81.344 118.774  0.00  0.00     0.210 C 
ATOM     15  C   LIG d   1      -9.766  82.337 119.927  0.00  0.00     0.109 C 
ATOM     16  O   LIG d   1     -10.041  81.607 117.649  0.00  0.00    -0.276 OA
ATOM     17  H   LIG d   1      -8.662  80.069 120.040  0.00  0.00     0.149 HD
ENDBRANCH   6  13
BRANCH   5  18
ATOM     18  N   LIG d   1     -10.609  77.654 118.798  0.00  0.00     0.381 N 
ATOM     19  H   LIG d   1     -10.839  77.703 119.770  0.00  0.00    -0.090 HD
ATOM     20  H   LIG d   1     -10.925  76.769 118.443  0.00  0.00    -0.090 HD
ATOM     21  H   LIG d   1     -11.057  78.396 118.306  0.00  0.00    -0.090 HD
ENDBRANCH   5  18
BRANCH   3  22
ATOM     22  C   LIG d   1      -6.742  75.569 116.892  0.00  0.00     0.382 C 
ATOM     23  O   LIG d   1      -5.601  75.611 116.371  0.00  0.00    -0.241 OA
ATOM     24  O   LIG d   1      -7.310  74.470 117.037  0.00  0.00    -0.241 OA
ENDBRANCH   3  22
TORSDOF 7
ENDMDL
MODEL 8
REMARK VINA RESULT:      -4.6     32.979     35.371
REMARK  7 active torsions:
REMARK  status: ('A' for Active; 'I' for Inactive)
REMARK    1  A    between atoms: C_2  and  C_3 
REMARK    2  A    between atoms: C_3  and  O_6 
REMARK    3  A    between atoms: C_3  and  C_4 
REMARK    4  A    between atoms: C_7  and  O_6 
REMARK    5  A    between atoms: C_9  and  C_10 
REMARK    6  A    between atoms: N_15  and  C_14 
REMARK    7  A    between atoms: N_20  and  C_19 
REMARK       I    between atoms: C_22  and  N_20 
ROOT
ATOM      1  C   LIG d   1      -5.379  92.457 119.731  0.00  0.00     0.161 C 
ATOM      2  C   LIG d   1      -6.216  91.872 118.766  0.00  0.00     0.016 C 
ATOM      3  C   LIG d   1      -5.805  90.823 117.912  0.00  0.00     0.038 C 
ATOM      4  C   LIG d   1      -4.568  90.181 118.069  0.00  0.00     0.028 C 
ATOM      5  C   LIG d   1      -3.499  91.071 118.695  0.00  0.00    -0.047 C 
ATOM      6  C   LIG d   1      -4.062  91.695 119.991  0.00  0.00     0.091 C 
ENDROOT
BRANCH   1   7
ATOM      7  O   LIG d   1      -6.105  92.639 120.962  0.00  0.00    -0.368 OA
BRANCH   7   8
ATOM      8  C   LIG d   1      -6.357  94.010 121.357  0.00  0.00     0.119 C 
BRANCH   8   9
ATOM      9  C   LIG d   1      -7.884  94.221 121.348  0.00  0.00     0.028 C 
ATOM     10  C   LIG d   1      -8.403  94.694 119.980  0.00  0.00     0.006 C 
ENDBRANCH   8   9
BRANCH   8  11
ATOM     11  C   LIG d   1      -5.806  94.997 120.324  0.00  0.00     0.028 C 
ATOM     12  C   LIG d   1      -4.735  95.933 120.907  0.00  0.00     0.006 C 
ENDBRANCH   8  11
ENDBRANCH   7   8
ENDBRANCH   1   7
BRANCH   6  13
ATOM     13  N   LIG d   1      -3.110  92.646 120.623  0.00  0.00    -0.311 N 
ATOM     14  C   LIG d   1      -2.258  92.299 121.586  0.00  0.00     0.210 C 
ATOM     15  C   LIG d   1      -1.379  93.438 122.112  0.00  0.00     0.109 C 
ATOM     16  O   LIG d   1      -2.125  91.150 122.032  0.00  0.00    -0.276 OA
ATOM     17  H   LIG d   1      -3.129  93.593 120.299  0.00  0.00     0.149 HD
ENDBRANCH   6  13
BRANCH   5  18
ATOM     18  N   LIG d   1      -2.304  90.236 118.926  0.00  0.00     0.381 N 
ATOM     19  H   LIG d   1      -2.354  89.819 119.834  0.00  0.00    -0.090 HD
ATOM     20  H   LIG d   1      -1.488  90.821 118.892  0.00  0.00    -0.090 HD
ATOM     21  H   LIG d   1      -2.244  89.527 118.229  0.00  0.00    -0.090 HD
ENDBRANCH   5  18
BRANCH   3  22
ATOM     22  C   LIG d   1      -6.621  90.432 116.861  0.00  0.00     0.382 C 
ATOM     23  O   LIG d   1      -6.383  89.366 116.245  0.00  0.00    -0.241 OA
ATOM     24  O   LIG d   1      -7.566  91.156 116.493  0.00  0.00    -0.241 OA
ENDBRANCH   3  22
TORSDOF 7
ENDMDL
MODEL 9
REMARK VINA RESULT:      -4.6      2.652      4.734
REMARK  7 active torsions:
REMARK  status: ('A' for Active; 'I' for Inactive)
REMARK    1  A    between atoms: C_2  and  C_3 
REMARK    2  A    between atoms: C_3  and  O_6 
REMARK    3  A    between atoms: C_3  and  C_4 
REMARK    4  A    between atoms: C_7  and  O_6 
REMARK    5  A    between atoms: C_9  and  C_10 
REMARK    6  A    between atoms: N_15  and  C_14 
REMARK    7  A    between atoms: N_20  and  C_19 
REMARK       I    between atoms: C_22  and  N_20 
ROOT
ATOM      1  C   LIG d   1      -0.337  58.169 119.952  0.00  0.00     0.161 C 
ATOM      2  C   LIG d   1      -1.397  58.380 119.055  0.00  0.00     0.016 C 
ATOM      3  C   LIG d   1      -1.210  58.668 117.684  0.00  0.00     0.038 C 
ATOM      4  C   LIG d   1       0.056  58.615 117.081  0.00  0.00     0.028 C 
ATOM      5  C   LIG d   1       1.200  58.903 118.047  0.00  0.00    -0.047 C 
ATOM      6  C   LIG d   1       1.046  57.997 119.290  0.00  0.00     0.091 C 
ENDROOT
BRANCH   1   7
ATOM      7  O   LIG d   1      -0.631  57.040 120.799  0.00  0.00    -0.368 OA
BRANCH   7   8
ATOM      8  C   LIG d   1      -1.557  56.064 120.261  0.00  0.00     0.119 C 
BRANCH   8   9
ATOM      9  C   LIG d   1      -2.454  55.590 121.421  0.00  0.00     0.028 C 
ATOM     10  C   LIG d   1      -3.951  55.776 121.119  0.00  0.00     0.006 C 
ENDBRANCH   8   9
BRANCH   8  11
ATOM     11  C   LIG d   1      -0.825  54.810 119.775  0.00  0.00     0.028 C 
ATOM     12  C   LIG d   1      -1.006  54.560 118.270  0.00  0.00     0.006 C 
ENDBRANCH   8  11
ENDBRANCH   7   8
ENDBRANCH   1   7
BRANCH   6  13
ATOM     13  N   LIG d   1       2.078  58.274 120.324  0.00  0.00    -0.311 N 
ATOM     14  C   LIG d   1       3.244  57.635 120.386  0.00  0.00     0.210 C 
ATOM     15  C   LIG d   1       4.154  58.060 121.543  0.00  0.00     0.109 C 
ATOM     16  O   LIG d   1       3.625  56.779 119.574  0.00  0.00    -0.276 OA
ATOM     17  H   LIG d   1       1.864  58.977 121.005  0.00  0.00     0.149 HD
ENDBRANCH   6  13
BRANCH   5  18
ATOM     18  N   LIG d   1       2.464  58.679 117.321  0.00  0.00     0.381 N 
ATOM     19  H   LIG d   1       2.587  57.702 117.149  0.00  0.00    -0.090 HD
ATOM     20  H   LIG d   1       3.227  58.998 117.891  0.00  0.00    -0.090 HD
ATOM     21  H   LIG d   1       2.454  59.177 116.458  0.00  0.00    -0.090 HD
ENDBRANCH   5  18
BRANCH   3  22
ATOM     22  C   LIG d   1      -2.293  59.053 116.908  0.00  0.00     0.382 C 
ATOM     23  O   LIG d   1      -3.455  58.718 117.243  0.00  0.00    -0.241 OA
ATOM     24  O   LIG d   1      -2.120  59.694 115.855  0.00  0.00    -0.241 OA
ENDBRANCH   3  22
TORSDOF 7
ENDMDL
