MODEL 1
REMARK VINA RESULT:      -5.6      0.000      0.000
REMARK  7 active torsions:
REMARK  status: ('A' for Active; 'I' for Inactive)
REMARK    1  A    between atoms: C_2  and  C_3 
REMARK    2  A    between atoms: C_3  and  O_6 
REMARK    3  A    between atoms: C_3  and  C_4 
REMARK    4  A    between atoms: C_7  and  O_6 
REMARK    5  A    between atoms: C_9  and  C_10 
REMARK    6  A    between atoms: N_15  and  C_14 
REMARK    7  A    between atoms: N_20  and  C_19 
REMARK       I    between atoms: C_22  and  N_20 
ROOT
ATOM      1  C   LIG d   1      -5.274  91.678 118.804  0.00  0.00     0.161 C 
ATOM      2  C   LIG d   1      -6.470  91.150 118.288  0.00  0.00     0.016 C 
ATOM      3  C   LIG d   1      -6.522  90.292 117.166  0.00  0.00     0.038 C 
ATOM      4  C   LIG d   1      -5.360  89.778 116.571  0.00  0.00     0.028 C 
ATOM      5  C   LIG d   1      -4.143  90.681 116.741  0.00  0.00    -0.047 C 
ATOM      6  C   LIG d   1      -3.989  91.040 118.236  0.00  0.00     0.091 C 
ENDROOT
BRANCH   1   7
ATOM      7  O   LIG d   1      -5.283  91.592 120.243  0.00  0.00    -0.368 OA
BRANCH   7   8
ATOM      8  C   LIG d   1      -5.389  92.849 120.955  0.00  0.00     0.119 C 
BRANCH   8   9
ATOM      9  C   LIG d   1      -6.005  93.879 119.987  0.00  0.00     0.028 C 
ATOM     10  C   LIG d   1      -7.464  94.215 120.338  0.00  0.00     0.006 C 
ENDBRANCH   8   9
BRANCH   8  11
ATOM     11  C   LIG d   1      -4.008  93.405 121.314  0.00  0.00     0.028 C 
ATOM     12  C   LIG d   1      -3.732  94.775 120.673  0.00  0.00     0.006 C 
ENDBRANCH   8  11
ENDBRANCH   7   8
ENDBRANCH   1   7
BRANCH   6  13
ATOM     13  N   LIG d   1      -2.871  91.989 118.480  0.00  0.00    -0.311 N 
ATOM     14  C   LIG d   1      -1.654  91.606 118.862  0.00  0.00     0.210 C 
ATOM     15  C   LIG d   1      -0.654  92.747 119.076  0.00  0.00     0.109 C 
ATOM     16  O   LIG d   1      -1.298  90.427 119.013  0.00  0.00    -0.276 OA
ATOM     17  H   LIG d   1      -3.063  92.963 118.350  0.00  0.00     0.149 HD
ENDBRANCH   6  13
BRANCH   5  18
ATOM     18  N   LIG d   1      -2.975  89.963 116.195  0.00  0.00     0.381 N 
ATOM     19  H   LIG d   1      -2.862  90.187 115.227  0.00  0.00    -0.090 HD
ATOM     20  H   LIG d   1      -3.137  88.974 116.273  0.00  0.00    -0.090 HD
ATOM     21  H   LIG d   1      -2.154  90.214 116.700  0.00  0.00    -0.090 HD
ENDBRANCH   5  18
BRANCH   3  22
ATOM     22  C   LIG d   1      -7.747  89.971 116.603  0.00  0.00     0.382 C 
ATOM     23  O   LIG d   1      -8.318  90.784 115.836  0.00  0.00    -0.241 OA
ATOM     24  O   LIG d   1      -8.311  88.896 116.886  0.00  0.00    -0.241 OA
ENDBRANCH   3  22
TORSDOF 7
ENDMDL
MODEL 2
REMARK VINA RESULT:      -5.6     12.637     15.096
REMARK  7 active torsions:
REMARK  status: ('A' for Active; 'I' for Inactive)
REMARK    1  A    between atoms: C_2  and  C_3 
REMARK    2  A    between atoms: C_3  and  O_6 
REMARK    3  A    between atoms: C_3  and  C_4 
REMARK    4  A    between atoms: C_7  and  O_6 
REMARK    5  A    between atoms: C_9  and  C_10 
REMARK    6  A    between atoms: N_15  and  C_14 
REMARK    7  A    between atoms: N_20  and  C_19 
REMARK       I    between atoms: C_22  and  N_20 
ROOT
ATOM      1  C   LIG d   1      -7.582  77.336 117.667  0.00  0.00     0.161 C 
ATOM      2  C   LIG d   1      -8.730  78.111 117.905  0.00  0.00     0.016 C 
ATOM      3  C   LIG d   1      -8.716  79.523 117.971  0.00  0.00     0.038 C 
ATOM      4  C   LIG d   1      -7.572  80.269 117.651  0.00  0.00     0.028 C 
ATOM      5  C   LIG d   1      -6.269  79.516 117.900  0.00  0.00    -0.047 C 
ATOM      6  C   LIG d   1      -6.346  78.137 117.206  0.00  0.00     0.091 C 
ENDROOT
BRANCH   1   7
ATOM      7  O   LIG d   1      -7.885  76.292 116.720  0.00  0.00    -0.368 OA
BRANCH   7   8
ATOM      8  C   LIG d   1      -7.972  74.950 117.258  0.00  0.00     0.119 C 
BRANCH   8   9
ATOM      9  C   LIG d   1      -6.927  74.088 116.525  0.00  0.00     0.028 C 
ATOM     10  C   LIG d   1      -5.679  73.822 117.384  0.00  0.00     0.006 C 
ENDBRANCH   8   9
BRANCH   8  11
ATOM     11  C   LIG d   1      -9.325  74.308 116.936  0.00  0.00     0.028 C 
ATOM     12  C   LIG d   1      -9.225  72.792 116.705  0.00  0.00     0.006 C 
ENDBRANCH   8  11
ENDBRANCH   7   8
ENDBRANCH   1   7
BRANCH   6  13
ATOM     13  N   LIG d   1      -5.146  77.302 117.469  0.00  0.00    -0.311 N 
ATOM     14  C   LIG d   1      -4.031  77.371 116.743  0.00  0.00     0.210 C 
ATOM     15  C   LIG d   1      -2.920  76.408 117.173  0.00  0.00     0.109 C 
ATOM     16  O   LIG d   1      -3.846  78.160 115.805  0.00  0.00    -0.276 OA
ATOM     17  H   LIG d   1      -5.198  76.656 118.232  0.00  0.00     0.149 HD
ENDBRANCH   6  13
BRANCH   5  18
ATOM     18  N   LIG d   1      -5.166  80.356 117.396  0.00  0.00     0.381 N 
ATOM     19  H   LIG d   1      -5.516  81.003 116.717  0.00  0.00    -0.090 HD
ATOM     20  H   LIG d   1      -4.487  79.766 116.949  0.00  0.00    -0.090 HD
ATOM     21  H   LIG d   1      -4.743  80.851 118.150  0.00  0.00    -0.090 HD
ENDBRANCH   5  18
BRANCH   3  22
ATOM     22  C   LIG d   1      -9.847  80.202 118.399  0.00  0.00     0.382 C 
ATOM     23  O   LIG d   1     -10.330  79.964 119.532  0.00  0.00    -0.241 OA
ATOM     24  O   LIG d   1     -10.416  81.017 117.649  0.00  0.00    -0.241 OA
ENDBRANCH   3  22
TORSDOF 7
ENDMDL
MODEL 3
REMARK VINA RESULT:      -5.2     14.746     17.008
REMARK  7 active torsions:
REMARK  status: ('A' for Active; 'I' for Inactive)
REMARK    1  A    between atoms: C_2  and  C_3 
REMARK    2  A    between atoms: C_3  and  O_6 
REMARK    3  A    between atoms: C_3  and  C_4 
REMARK    4  A    between atoms: C_7  and  O_6 
REMARK    5  A    between atoms: C_9  and  C_10 
REMARK    6  A    between atoms: N_15  and  C_14 
REMARK    7  A    between atoms: N_20  and  C_19 
REMARK       I    between atoms: C_22  and  N_20 
ROOT
ATOM      1  C   LIG d   1      -5.105  75.370 117.692  0.00  0.00     0.161 C 
ATOM      2  C   LIG d   1      -3.989  74.611 117.302  0.00  0.00     0.016 C 
ATOM      3  C   LIG d   1      -2.698  74.787 117.852  0.00  0.00     0.038 C 
ATOM      4  C   LIG d   1      -2.466  75.637 118.943  0.00  0.00     0.028 C 
ATOM      5  C   LIG d   1      -3.459  76.792 119.033  0.00  0.00    -0.047 C 
ATOM      6  C   LIG d   1      -4.895  76.226 118.959  0.00  0.00     0.091 C 
ENDROOT
BRANCH   1   7
ATOM      7  O   LIG d   1      -6.250  74.510 117.852  0.00  0.00    -0.368 OA
BRANCH   7   8
ATOM      8  C   LIG d   1      -7.084  74.332 116.681  0.00  0.00     0.119 C 
BRANCH   8   9
ATOM      9  C   LIG d   1      -8.515  74.757 117.062  0.00  0.00     0.028 C 
ATOM     10  C   LIG d   1      -8.697  76.284 117.051  0.00  0.00     0.006 C 
ENDBRANCH   8   9
BRANCH   8  11
ATOM     11  C   LIG d   1      -7.189  72.855 116.290  0.00  0.00     0.028 C 
ATOM     12  C   LIG d   1      -8.641  72.350 116.258  0.00  0.00     0.006 C 
ENDBRANCH   8  11
ENDBRANCH   7   8
ENDBRANCH   1   7
BRANCH   6  13
ATOM     13  N   LIG d   1      -5.927  77.296 118.955  0.00  0.00    -0.311 N 
ATOM     14  C   LIG d   1      -6.563  77.704 120.052  0.00  0.00     0.210 C 
ATOM     15  C   LIG d   1      -7.604  78.805 119.823  0.00  0.00     0.109 C 
ATOM     16  O   LIG d   1      -6.343  77.281 121.196  0.00  0.00    -0.276 OA
ATOM     17  H   LIG d   1      -6.145  77.715 118.073  0.00  0.00     0.149 HD
ENDBRANCH   6  13
BRANCH   5  18
ATOM     18  N   LIG d   1      -3.187  77.516 120.288  0.00  0.00     0.381 N 
ATOM     19  H   LIG d   1      -3.697  78.377 120.300  0.00  0.00    -0.090 HD
ATOM     20  H   LIG d   1      -2.206  77.730 120.334  0.00  0.00    -0.090 HD
ATOM     21  H   LIG d   1      -3.448  76.956 121.069  0.00  0.00    -0.090 HD
ENDBRANCH   5  18
BRANCH   3  22
ATOM     22  C   LIG d   1      -1.615  74.136 117.281  0.00  0.00     0.382 C 
ATOM     23  O   LIG d   1      -1.237  74.443 116.125  0.00  0.00    -0.241 OA
ATOM     24  O   LIG d   1      -1.038  73.216 117.891  0.00  0.00    -0.241 OA
ENDBRANCH   3  22
TORSDOF 7
ENDMDL
MODEL 4
REMARK VINA RESULT:      -5.2     13.521     15.379
REMARK  7 active torsions:
REMARK  status: ('A' for Active; 'I' for Inactive)
REMARK    1  A    between atoms: C_2  and  C_3 
REMARK    2  A    between atoms: C_3  and  O_6 
REMARK    3  A    between atoms: C_3  and  C_4 
REMARK    4  A    between atoms: C_7  and  O_6 
REMARK    5  A    between atoms: C_9  and  C_10 
REMARK    6  A    between atoms: N_15  and  C_14 
REMARK    7  A    between atoms: N_20  and  C_19 
REMARK       I    between atoms: C_22  and  N_20 
ROOT
ATOM      1  C   LIG d   1      -6.970  76.530 117.209  0.00  0.00     0.161 C 
ATOM      2  C   LIG d   1      -7.835  75.439 117.022  0.00  0.00     0.016 C 
ATOM      3  C   LIG d   1      -7.392  74.100 116.936  0.00  0.00     0.038 C 
ATOM      4  C   LIG d   1      -6.058  73.743 117.183  0.00  0.00     0.028 C 
ATOM      5  C   LIG d   1      -5.065  74.859 116.875  0.00  0.00    -0.047 C 
ATOM      6  C   LIG d   1      -5.524  76.149 117.592  0.00  0.00     0.091 C 
ENDROOT
BRANCH   1   7
ATOM      7  O   LIG d   1      -7.525  77.433 118.186  0.00  0.00    -0.368 OA
BRANCH   7   8
ATOM      8  C   LIG d   1      -8.031  78.691 117.675  0.00  0.00     0.119 C 
BRANCH   8   9
ATOM      9  C   LIG d   1      -7.207  79.819 118.324  0.00  0.00     0.028 C 
ATOM     10  C   LIG d   1      -6.273  80.516 117.320  0.00  0.00     0.006 C 
ENDBRANCH   8   9
BRANCH   8  11
ATOM     11  C   LIG d   1      -9.475  78.934 118.124  0.00  0.00     0.028 C 
ATOM     12  C   LIG d   1      -9.810  80.427 118.271  0.00  0.00     0.006 C 
ENDBRANCH   8  11
ENDBRANCH   7   8
ENDBRANCH   1   7
BRANCH   6  13
ATOM     13  N   LIG d   1      -4.654  77.313 117.276  0.00  0.00    -0.311 N 
ATOM     14  C   LIG d   1      -3.632  77.692 118.041  0.00  0.00     0.210 C 
ATOM     15  C   LIG d   1      -2.877  78.929 117.544  0.00  0.00     0.109 C 
ATOM     16  O   LIG d   1      -3.258  77.103 119.066  0.00  0.00    -0.276 OA
ATOM     17  H   LIG d   1      -4.867  77.829 116.446  0.00  0.00     0.149 HD
ENDBRANCH   6  13
BRANCH   5  18
ATOM     18  N   LIG d   1      -3.732  74.400 117.307  0.00  0.00     0.381 N 
ATOM     19  H   LIG d   1      -3.417  73.663 116.709  0.00  0.00    -0.090 HD
ATOM     20  H   LIG d   1      -3.799  74.041 118.243  0.00  0.00    -0.090 HD
ATOM     21  H   LIG d   1      -3.085  75.158 117.280  0.00  0.00    -0.090 HD
ENDBRANCH   5  18
BRANCH   3  22
ATOM     22  C   LIG d   1      -8.281  73.105 116.559  0.00  0.00     0.382 C 
ATOM     23  O   LIG d   1      -7.901  72.177 115.805  0.00  0.00    -0.241 OA
ATOM     24  O   LIG d   1      -9.470  73.147 116.927  0.00  0.00    -0.241 OA
ENDBRANCH   3  22
TORSDOF 7
ENDMDL
MODEL 5
REMARK VINA RESULT:      -5.0     14.284     16.679
REMARK  7 active torsions:
REMARK  status: ('A' for Active; 'I' for Inactive)
REMARK    1  A    between atoms: C_2  and  C_3 
REMARK    2  A    between atoms: C_3  and  O_6 
REMARK    3  A    between atoms: C_3  and  C_4 
REMARK    4  A    between atoms: C_7  and  O_6 
REMARK    5  A    between atoms: C_9  and  C_10 
REMARK    6  A    between atoms: N_15  and  C_14 
REMARK    7  A    between atoms: N_20  and  C_19 
REMARK       I    between atoms: C_22  and  N_20 
ROOT
ATOM      1  C   LIG d   1      -5.006  76.109 116.300  0.00  0.00     0.161 C 
ATOM      2  C   LIG d   1      -3.954  75.179 116.290  0.00  0.00     0.016 C 
ATOM      3  C   LIG d   1      -2.969  75.108 117.302  0.00  0.00     0.038 C 
ATOM      4  C   LIG d   1      -3.057  75.868 118.477  0.00  0.00     0.028 C 
ATOM      5  C   LIG d   1      -3.821  77.176 118.297  0.00  0.00    -0.047 C 
ATOM      6  C   LIG d   1      -5.182  76.873 117.629  0.00  0.00     0.091 C 
ENDROOT
BRANCH   1   7
ATOM      7  O   LIG d   1      -6.238  75.458 115.930  0.00  0.00    -0.368 OA
BRANCH   7   8
ATOM      8  C   LIG d   1      -6.632  74.328 116.746  0.00  0.00     0.119 C 
BRANCH   8   9
ATOM      9  C   LIG d   1      -6.831  73.124 115.805  0.00  0.00     0.028 C 
ATOM     10  C   LIG d   1      -8.071  72.292 116.171  0.00  0.00     0.006 C 
ENDBRANCH   8   9
BRANCH   8  11
ATOM     11  C   LIG d   1      -7.997  74.562 117.400  0.00  0.00     0.028 C 
ATOM     12  C   LIG d   1      -8.670  75.859 116.926  0.00  0.00     0.006 C 
ENDBRANCH   8  11
ENDBRANCH   7   8
ENDBRANCH   1   7
BRANCH   6  13
ATOM     13  N   LIG d   1      -5.958  78.107 117.340  0.00  0.00    -0.311 N 
ATOM     14  C   LIG d   1      -6.850  78.627 118.182  0.00  0.00     0.210 C 
ATOM     15  C   LIG d   1      -7.553  79.892 117.679  0.00  0.00     0.109 C 
ATOM     16  O   LIG d   1      -7.102  78.179 119.310  0.00  0.00    -0.276 OA
ATOM     17  H   LIG d   1      -5.793  78.554 116.459  0.00  0.00     0.149 HD
ENDBRANCH   6  13
BRANCH   5  18
ATOM     18  N   LIG d   1      -3.955  77.800 119.627  0.00  0.00     0.381 N 
ATOM     19  H   LIG d   1      -4.607  78.558 119.580  0.00  0.00    -0.090 HD
ATOM     20  H   LIG d   1      -3.063  78.168 119.905  0.00  0.00    -0.090 HD
ATOM     21  H   LIG d   1      -4.266  77.126 120.291  0.00  0.00    -0.090 HD
ENDBRANCH   5  18
BRANCH   3  22
ATOM     22  C   LIG d   1      -1.859  74.296 117.125  0.00  0.00     0.382 C 
ATOM     23  O   LIG d   1      -1.154  74.414 116.093  0.00  0.00    -0.241 OA
ATOM     24  O   LIG d   1      -1.579  73.416 117.961  0.00  0.00    -0.241 OA
ENDBRANCH   3  22
TORSDOF 7
ENDMDL
MODEL 6
REMARK VINA RESULT:      -5.0      2.228      4.359
REMARK  7 active torsions:
REMARK  status: ('A' for Active; 'I' for Inactive)
REMARK    1  A    between atoms: C_2  and  C_3 
REMARK    2  A    between atoms: C_3  and  O_6 
REMARK    3  A    between atoms: C_3  and  C_4 
REMARK    4  A    between atoms: C_7  and  O_6 
REMARK    5  A    between atoms: C_9  and  C_10 
REMARK    6  A    between atoms: N_15  and  C_14 
REMARK    7  A    between atoms: N_20  and  C_19 
REMARK       I    between atoms: C_22  and  N_20 
ROOT
ATOM      1  C   LIG d   1      -3.448  90.764 118.126  0.00  0.00     0.161 C 
ATOM      2  C   LIG d   1      -4.473  90.501 117.203  0.00  0.00     0.016 C 
ATOM      3  C   LIG d   1      -5.827  90.841 117.426  0.00  0.00     0.038 C 
ATOM      4  C   LIG d   1      -6.227  91.609 118.530  0.00  0.00     0.028 C 
ATOM      5  C   LIG d   1      -5.305  91.461 119.736  0.00  0.00    -0.047 C 
ATOM      6  C   LIG d   1      -3.846  91.701 119.286  0.00  0.00     0.091 C 
ENDROOT
BRANCH   1   7
ATOM      7  O   LIG d   1      -2.292  91.283 117.437  0.00  0.00    -0.368 OA
BRANCH   7   8
ATOM      8  C   LIG d   1      -1.190  90.361 117.256  0.00  0.00     0.119 C 
BRANCH   8   9
ATOM      9  C   LIG d   1      -1.542  89.066 118.014  0.00  0.00     0.028 C 
ATOM     10  C   LIG d   1      -1.007  87.809 117.307  0.00  0.00     0.006 C 
ENDBRANCH   8   9
BRANCH   8  11
ATOM     11  C   LIG d   1       0.088  90.883 117.918  0.00  0.00     0.028 C 
ATOM     12  C   LIG d   1       1.270  90.975 116.940  0.00  0.00     0.006 C 
ENDBRANCH   8  11
ENDBRANCH   7   8
ENDBRANCH   1   7
BRANCH   6  13
ATOM     13  N   LIG d   1      -2.871  91.492 120.388  0.00  0.00    -0.311 N 
ATOM     14  C   LIG d   1      -1.882  92.340 120.661  0.00  0.00     0.210 C 
ATOM     15  C   LIG d   1      -0.978  91.925 121.827  0.00  0.00     0.109 C 
ATOM     16  O   LIG d   1      -1.686  93.413 120.071  0.00  0.00    -0.276 OA
ATOM     17  H   LIG d   1      -2.976  90.662 120.938  0.00  0.00     0.149 HD
ENDBRANCH   6  13
BRANCH   5  18
ATOM     18  N   LIG d   1      -5.758  92.418 120.763  0.00  0.00     0.381 N 
ATOM     19  H   LIG d   1      -5.171  92.351 121.570  0.00  0.00    -0.090 HD
ATOM     20  H   LIG d   1      -6.697  92.182 121.036  0.00  0.00    -0.090 HD
ATOM     21  H   LIG d   1      -5.733  93.345 120.400  0.00  0.00    -0.090 HD
ENDBRANCH   5  18
BRANCH   3  22
ATOM     22  C   LIG d   1      -6.804  90.377 116.559  0.00  0.00     0.382 C 
ATOM     23  O   LIG d   1      -7.945  90.900 116.561  0.00  0.00    -0.241 OA
ATOM     24  O   LIG d   1      -6.574  89.412 115.805  0.00  0.00    -0.241 OA
ENDBRANCH   3  22
TORSDOF 7
ENDMDL
MODEL 7
REMARK VINA RESULT:      -4.9     14.461     16.559
REMARK  7 active torsions:
REMARK  status: ('A' for Active; 'I' for Inactive)
REMARK    1  A    between atoms: C_2  and  C_3 
REMARK    2  A    between atoms: C_3  and  O_6 
REMARK    3  A    between atoms: C_3  and  C_4 
REMARK    4  A    between atoms: C_7  and  O_6 
REMARK    5  A    between atoms: C_9  and  C_10 
REMARK    6  A    between atoms: N_15  and  C_14 
REMARK    7  A    between atoms: N_20  and  C_19 
REMARK       I    between atoms: C_22  and  N_20 
ROOT
ATOM      1  C   LIG d   1      -5.112  74.977 117.422  0.00  0.00     0.161 C 
ATOM      2  C   LIG d   1      -6.014  73.929 117.173  0.00  0.00     0.016 C 
ATOM      3  C   LIG d   1      -7.412  74.116 117.063  0.00  0.00     0.038 C 
ATOM      4  C   LIG d   1      -7.990  75.393 117.044  0.00  0.00     0.028 C 
ATOM      5  C   LIG d   1      -7.174  76.439 117.796  0.00  0.00    -0.047 C 
ATOM      6  C   LIG d   1      -5.713  76.392 117.293  0.00  0.00     0.091 C 
ENDROOT
BRANCH   1   7
ATOM      7  O   LIG d   1      -3.960  74.843 116.567  0.00  0.00    -0.368 OA
BRANCH   7   8
ATOM      8  C   LIG d   1      -2.682  75.180 117.161  0.00  0.00     0.119 C 
BRANCH   8   9
ATOM      9  C   LIG d   1      -1.738  75.603 116.020  0.00  0.00     0.028 C 
ATOM     10  C   LIG d   1      -1.581  77.130 115.922  0.00  0.00     0.006 C 
ENDBRANCH   8   9
BRANCH   8  11
ATOM     11  C   LIG d   1      -2.023  73.954 117.800  0.00  0.00     0.028 C 
ATOM     12  C   LIG d   1      -0.512  73.881 117.529  0.00  0.00     0.006 C 
ENDBRANCH   8  11
ENDBRANCH   7   8
ENDBRANCH   1   7
BRANCH   6  13
ATOM     13  N   LIG d   1      -4.828  77.326 118.037  0.00  0.00    -0.311 N 
ATOM     14  C   LIG d   1      -4.543  78.558 117.616  0.00  0.00     0.210 C 
ATOM     15  C   LIG d   1      -3.593  79.347 118.523  0.00  0.00     0.109 C 
ATOM     16  O   LIG d   1      -5.012  79.083 116.596  0.00  0.00    -0.276 OA
ATOM     17  H   LIG d   1      -4.429  76.993 118.892  0.00  0.00     0.149 HD
ENDBRANCH   6  13
BRANCH   5  18
ATOM     18  N   LIG d   1      -7.819  77.748 117.579  0.00  0.00     0.381 N 
ATOM     19  H   LIG d   1      -7.513  78.136 116.709  0.00  0.00    -0.090 HD
ATOM     20  H   LIG d   1      -7.543  78.372 118.317  0.00  0.00    -0.090 HD
ATOM     21  H   LIG d   1      -8.809  77.644 117.576  0.00  0.00    -0.090 HD
ENDBRANCH   5  18
BRANCH   3  22
ATOM     22  C   LIG d   1      -8.250  73.012 117.011  0.00  0.00     0.382 C 
ATOM     23  O   LIG d   1      -9.491  73.172 116.920  0.00  0.00    -0.241 OA
ATOM     24  O   LIG d   1      -7.784  71.860 117.097  0.00  0.00    -0.241 OA
ENDBRANCH   3  22
TORSDOF 7
ENDMDL
MODEL 8
REMARK VINA RESULT:      -4.8     11.568     13.743
REMARK  7 active torsions:
REMARK  status: ('A' for Active; 'I' for Inactive)
REMARK    1  A    between atoms: C_2  and  C_3 
REMARK    2  A    between atoms: C_3  and  O_6 
REMARK    3  A    between atoms: C_3  and  C_4 
REMARK    4  A    between atoms: C_7  and  O_6 
REMARK    5  A    between atoms: C_9  and  C_10 
REMARK    6  A    between atoms: N_15  and  C_14 
REMARK    7  A    between atoms: N_20  and  C_19 
REMARK       I    between atoms: C_22  and  N_20 
ROOT
ATOM      1  C   LIG d   1      -5.961  78.436 117.413  0.00  0.00     0.161 C 
ATOM      2  C   LIG d   1      -5.886  77.099 116.988  0.00  0.00     0.016 C 
ATOM      3  C   LIG d   1      -7.005  76.238 116.925  0.00  0.00     0.038 C 
ATOM      4  C   LIG d   1      -8.311  76.703 117.141  0.00  0.00     0.028 C 
ATOM      5  C   LIG d   1      -8.377  77.917 118.062  0.00  0.00    -0.047 C 
ATOM      6  C   LIG d   1      -7.394  78.993 117.546  0.00  0.00     0.091 C 
ENDROOT
BRANCH   1   7
ATOM      7  O   LIG d   1      -5.178  79.272 116.537  0.00  0.00    -0.368 OA
BRANCH   7   8
ATOM      8  C   LIG d   1      -3.879  79.676 117.035  0.00  0.00     0.119 C 
BRANCH   8   9
ATOM      9  C   LIG d   1      -3.979  81.160 117.440  0.00  0.00     0.028 C 
ATOM     10  C   LIG d   1      -3.879  81.362 118.961  0.00  0.00     0.006 C 
ENDBRANCH   8   9
BRANCH   8  11
ATOM     11  C   LIG d   1      -2.819  79.627 115.931  0.00  0.00     0.028 C 
ATOM     12  C   LIG d   1      -1.449  79.154 116.441  0.00  0.00     0.006 C 
ENDBRANCH   8  11
ENDBRANCH   7   8
ENDBRANCH   1   7
BRANCH   6  13
ATOM     13  N   LIG d   1      -7.334  80.181 118.437  0.00  0.00    -0.311 N 
ATOM     14  C   LIG d   1      -7.697  81.404 118.054  0.00  0.00     0.210 C 
ATOM     15  C   LIG d   1      -7.538  82.490 119.122  0.00  0.00     0.109 C 
ATOM     16  O   LIG d   1      -8.165  81.686 116.941  0.00  0.00    -0.276 OA
ATOM     17  H   LIG d   1      -6.996  80.036 119.368  0.00  0.00     0.149 HD
ENDBRANCH   6  13
BRANCH   5  18
ATOM     18  N   LIG d   1      -9.778  78.380 118.089  0.00  0.00     0.381 N 
ATOM     19  H   LIG d   1      -9.944  78.908 118.923  0.00  0.00    -0.090 HD
ATOM     20  H   LIG d   1     -10.385  77.579 118.097  0.00  0.00    -0.090 HD
ATOM     21  H   LIG d   1      -9.967  78.942 117.289  0.00  0.00    -0.090 HD
ENDBRANCH   5  18
BRANCH   3  22
ATOM     22  C   LIG d   1      -6.820  74.886 116.683  0.00  0.00     0.382 C 
ATOM     23  O   LIG d   1      -5.744  74.481 116.179  0.00  0.00    -0.241 OA
ATOM     24  O   LIG d   1      -7.731  74.070 116.920  0.00  0.00    -0.241 OA
ENDBRANCH   3  22
TORSDOF 7
ENDMDL
MODEL 9
REMARK VINA RESULT:      -4.6     25.468     27.961
REMARK  7 active torsions:
REMARK  status: ('A' for Active; 'I' for Inactive)
REMARK    1  A    between atoms: C_2  and  C_3 
REMARK    2  A    between atoms: C_3  and  O_6 
REMARK    3  A    between atoms: C_3  and  C_4 
REMARK    4  A    between atoms: C_7  and  O_6 
REMARK    5  A    between atoms: C_9  and  C_10 
REMARK    6  A    between atoms: N_15  and  C_14 
REMARK    7  A    between atoms: N_20  and  C_19 
REMARK       I    between atoms: C_22  and  N_20 
ROOT
ATOM      1  C   LIG d   1     -14.556  65.648 119.608  0.00  0.00     0.161 C 
ATOM      2  C   LIG d   1     -13.491  65.237 120.425  0.00  0.00     0.016 C 
ATOM      3  C   LIG d   1     -12.724  64.075 120.179  0.00  0.00     0.038 C 
ATOM      4  C   LIG d   1     -12.877  63.321 119.006  0.00  0.00     0.028 C 
ATOM      5  C   LIG d   1     -14.275  63.411 118.405  0.00  0.00    -0.047 C 
ATOM      6  C   LIG d   1     -14.665  64.900 118.263  0.00  0.00     0.091 C 
ENDROOT
BRANCH   1   7
ATOM      7  O   LIG d   1     -14.481  67.070 119.386  0.00  0.00    -0.368 OA
BRANCH   7   8
ATOM      8  C   LIG d   1     -15.455  67.878 120.092  0.00  0.00     0.119 C 
BRANCH   8   9
ATOM      9  C   LIG d   1     -16.386  68.509 119.039  0.00  0.00     0.028 C 
ATOM     10  C   LIG d   1     -16.509  70.033 119.202  0.00  0.00     0.006 C 
ENDBRANCH   8   9
BRANCH   8  11
ATOM     11  C   LIG d   1     -14.788  69.060 120.803  0.00  0.00     0.028 C 
ATOM     12  C   LIG d   1     -13.292  68.828 121.068  0.00  0.00     0.006 C 
ENDBRANCH   8  11
ENDBRANCH   7   8
ENDBRANCH   1   7
BRANCH   6  13
ATOM     13  N   LIG d   1     -16.053  65.077 117.761  0.00  0.00    -0.311 N 
ATOM     14  C   LIG d   1     -16.345  65.684 116.611  0.00  0.00     0.210 C 
ATOM     15  C   LIG d   1     -17.840  65.777 116.291  0.00  0.00     0.109 C 
ATOM     16  O   LIG d   1     -15.506  66.124 115.811  0.00  0.00    -0.276 OA
ATOM     17  H   LIG d   1     -16.794  64.722 118.333  0.00  0.00     0.149 HD
ENDBRANCH   6  13
BRANCH   5  18
ATOM     18  N   LIG d   1     -14.254  62.693 117.117  0.00  0.00     0.381 N 
ATOM     19  H   LIG d   1     -15.117  62.841 116.632  0.00  0.00    -0.090 HD
ATOM     20  H   LIG d   1     -14.158  61.709 117.295  0.00  0.00    -0.090 HD
ATOM     21  H   LIG d   1     -13.493  63.014 116.560  0.00  0.00    -0.090 HD
ENDBRANCH   5  18
BRANCH   3  22
ATOM     22  C   LIG d   1     -11.820  63.633 121.133  0.00  0.00     0.382 C 
ATOM     23  O   LIG d   1     -10.706  64.198 121.250  0.00  0.00    -0.241 OA
ATOM     24  O   LIG d   1     -12.087  62.648 121.848  0.00  0.00    -0.241 OA
ENDBRANCH   3  22
TORSDOF 7
ENDMDL
