MODEL 1
REMARK VINA RESULT:      -5.4      0.000      0.000
REMARK  7 active torsions:
REMARK  status: ('A' for Active; 'I' for Inactive)
REMARK    1  A    between atoms: C_2  and  C_3 
REMARK    2  A    between atoms: C_3  and  O_6 
REMARK    3  A    between atoms: C_3  and  C_4 
REMARK    4  A    between atoms: C_7  and  O_6 
REMARK    5  A    between atoms: C_9  and  C_10 
REMARK    6  A    between atoms: N_15  and  C_14 
REMARK    7  A    between atoms: N_20  and  C_19 
REMARK       I    between atoms: C_22  and  N_20 
ROOT
ATOM      1  C   LIG d   1      -6.983  74.599 118.666  0.00  0.00     0.161 C 
ATOM      2  C   LIG d   1      -8.273  75.155 118.657  0.00  0.00     0.016 C 
ATOM      3  C   LIG d   1      -8.598  76.355 117.984  0.00  0.00     0.038 C 
ATOM      4  C   LIG d   1      -7.683  77.005 117.143  0.00  0.00     0.028 C 
ATOM      5  C   LIG d   1      -6.228  76.756 117.525  0.00  0.00    -0.047 C 
ATOM      6  C   LIG d   1      -5.998  75.234 117.663  0.00  0.00     0.091 C 
ENDROOT
BRANCH   1   7
ATOM      7  O   LIG d   1      -7.063  73.175 118.456  0.00  0.00    -0.368 OA
BRANCH   7   8
ATOM      8  C   LIG d   1      -7.866  72.741 117.330  0.00  0.00     0.119 C 
BRANCH   8   9
ATOM      9  C   LIG d   1      -8.795  71.618 117.830  0.00  0.00     0.028 C 
ATOM     10  C   LIG d   1      -9.252  70.686 116.695  0.00  0.00     0.006 C 
ENDBRANCH   8   9
BRANCH   8  11
ATOM     11  C   LIG d   1      -7.000  72.097 116.244  0.00  0.00     0.028 C 
ATOM     12  C   LIG d   1      -5.813  71.306 116.818  0.00  0.00     0.006 C 
ENDBRANCH   8  11
ENDBRANCH   7   8
ENDBRANCH   1   7
BRANCH   6  13
ATOM     13  N   LIG d   1      -4.621  74.907 118.116  0.00  0.00    -0.311 N 
ATOM     14  C   LIG d   1      -3.609  74.677 117.281  0.00  0.00     0.210 C 
ATOM     15  C   LIG d   1      -2.277  74.338 117.957  0.00  0.00     0.109 C 
ATOM     16  O   LIG d   1      -3.681  74.754 116.045  0.00  0.00    -0.276 OA
ATOM     17  H   LIG d   1      -4.466  74.856 119.104  0.00  0.00     0.149 HD
ENDBRANCH   6  13
BRANCH   5  18
ATOM     18  N   LIG d   1      -5.383  77.377 116.487  0.00  0.00     0.381 N 
ATOM     19  H   LIG d   1      -5.070  76.679 115.842  0.00  0.00    -0.090 HD
ATOM     20  H   LIG d   1      -4.576  77.784 116.926  0.00  0.00    -0.090 HD
ATOM     21  H   LIG d   1      -5.897  78.080 116.004  0.00  0.00    -0.090 HD
ENDBRANCH   5  18
BRANCH   3  22
ATOM     22  C   LIG d   1      -9.841  76.938 118.182  0.00  0.00     0.382 C 
ATOM     23  O   LIG d   1      -9.928  78.174 118.384  0.00  0.00    -0.241 OA
ATOM     24  O   LIG d   1     -10.871  76.239 118.205  0.00  0.00    -0.241 OA
ENDBRANCH   3  22
TORSDOF 7
ENDMDL
MODEL 2
REMARK VINA RESULT:      -5.4     16.107     18.635
REMARK  7 active torsions:
REMARK  status: ('A' for Active; 'I' for Inactive)
REMARK    1  A    between atoms: C_2  and  C_3 
REMARK    2  A    between atoms: C_3  and  O_6 
REMARK    3  A    between atoms: C_3  and  C_4 
REMARK    4  A    between atoms: C_7  and  O_6 
REMARK    5  A    between atoms: C_9  and  C_10 
REMARK    6  A    between atoms: N_15  and  C_14 
REMARK    7  A    between atoms: N_20  and  C_19 
REMARK       I    between atoms: C_22  and  N_20 
ROOT
ATOM      1  C   LIG d   1      -5.791  92.128 119.219  0.00  0.00     0.161 C 
ATOM      2  C   LIG d   1      -4.762  91.423 118.574  0.00  0.00     0.016 C 
ATOM      3  C   LIG d   1      -4.859  90.946 117.246  0.00  0.00     0.038 C 
ATOM      4  C   LIG d   1      -5.941  91.276 116.417  0.00  0.00     0.028 C 
ATOM      5  C   LIG d   1      -7.228  91.558 117.184  0.00  0.00    -0.047 C 
ATOM      6  C   LIG d   1      -6.934  92.594 118.294  0.00  0.00     0.091 C 
ENDROOT
BRANCH   1   7
ATOM      7  O   LIG d   1      -5.239  93.249 119.937  0.00  0.00    -0.368 OA
BRANCH   7   8
ATOM      8  C   LIG d   1      -3.870  93.105 120.389  0.00  0.00     0.119 C 
BRANCH   8   9
ATOM      9  C   LIG d   1      -3.906  92.887 121.914  0.00  0.00     0.028 C 
ATOM     10  C   LIG d   1      -3.742  91.407 122.299  0.00  0.00     0.006 C 
ENDBRANCH   8   9
BRANCH   8  11
ATOM     11  C   LIG d   1      -3.076  94.399 120.183  0.00  0.00     0.028 C 
ATOM     12  C   LIG d   1      -2.029  94.284 119.064  0.00  0.00     0.006 C 
ENDBRANCH   8  11
ENDBRANCH   7   8
ENDBRANCH   1   7
BRANCH   6  13
ATOM     13  N   LIG d   1      -8.121  92.864 119.146  0.00  0.00    -0.311 N 
ATOM     14  C   LIG d   1      -8.674  94.069 119.273  0.00  0.00     0.210 C 
ATOM     15  C   LIG d   1      -9.879  94.131 120.218  0.00  0.00     0.109 C 
ATOM     16  O   LIG d   1      -8.302  95.085 118.668  0.00  0.00    -0.276 OA
ATOM     17  H   LIG d   1      -8.508  92.088 119.649  0.00  0.00     0.149 HD
ENDBRANCH   6  13
BRANCH   5  18
ATOM     18  N   LIG d   1      -8.235  92.023 116.211  0.00  0.00     0.381 N 
ATOM     19  H   LIG d   1      -8.884  92.636 116.662  0.00  0.00    -0.090 HD
ATOM     20  H   LIG d   1      -8.741  91.228 115.863  0.00  0.00    -0.090 HD
ATOM     21  H   LIG d   1      -7.787  92.497 115.458  0.00  0.00    -0.090 HD
ENDBRANCH   5  18
BRANCH   3  22
ATOM     22  C   LIG d   1      -3.883  90.096 116.748  0.00  0.00     0.382 C 
ATOM     23  O   LIG d   1      -4.176  89.256 115.863  0.00  0.00    -0.241 OA
ATOM     24  O   LIG d   1      -2.725  90.127 117.205  0.00  0.00    -0.241 OA
ENDBRANCH   3  22
TORSDOF 7
ENDMDL
MODEL 3
REMARK VINA RESULT:      -5.4     15.998     17.972
REMARK  7 active torsions:
REMARK  status: ('A' for Active; 'I' for Inactive)
REMARK    1  A    between atoms: C_2  and  C_3 
REMARK    2  A    between atoms: C_3  and  O_6 
REMARK    3  A    between atoms: C_3  and  C_4 
REMARK    4  A    between atoms: C_7  and  O_6 
REMARK    5  A    between atoms: C_9  and  C_10 
REMARK    6  A    between atoms: N_15  and  C_14 
REMARK    7  A    between atoms: N_20  and  C_19 
REMARK       I    between atoms: C_22  and  N_20 
ROOT
ATOM      1  C   LIG d   1      -6.320  91.855 119.022  0.00  0.00     0.161 C 
ATOM      2  C   LIG d   1      -7.483  92.615 118.814  0.00  0.00     0.016 C 
ATOM      3  C   LIG d   1      -7.527  94.022 118.947  0.00  0.00     0.038 C 
ATOM      4  C   LIG d   1      -6.368  94.784 119.152  0.00  0.00     0.028 C 
ATOM      5  C   LIG d   1      -5.259  94.020 119.868  0.00  0.00    -0.047 C 
ATOM      6  C   LIG d   1      -5.021  92.679 119.136  0.00  0.00     0.091 C 
ENDROOT
BRANCH   1   7
ATOM      7  O   LIG d   1      -6.193  90.862 117.985  0.00  0.00    -0.368 OA
BRANCH   7   8
ATOM      8  C   LIG d   1      -5.878  91.359 116.661  0.00  0.00     0.119 C 
BRANCH   8   9
ATOM      9  C   LIG d   1      -7.196  91.427 115.866  0.00  0.00     0.028 C 
ATOM     10  C   LIG d   1      -7.964  90.095 115.887  0.00  0.00     0.006 C 
ENDBRANCH   8   9
BRANCH   8  11
ATOM     11  C   LIG d   1      -4.991  90.375 115.893  0.00  0.00     0.028 C 
ATOM     12  C   LIG d   1      -3.767  89.918 116.703  0.00  0.00     0.006 C 
ENDBRANCH   8  11
ENDBRANCH   7   8
ENDBRANCH   1   7
BRANCH   6  13
ATOM     13  N   LIG d   1      -4.009  91.832 119.821  0.00  0.00    -0.311 N 
ATOM     14  C   LIG d   1      -2.713  91.847 119.516  0.00  0.00     0.210 C 
ATOM     15  C   LIG d   1      -1.846  90.882 120.330  0.00  0.00     0.109 C 
ATOM     16  O   LIG d   1      -2.194  92.593 118.672  0.00  0.00    -0.276 OA
ATOM     17  H   LIG d   1      -4.340  91.220 120.541  0.00  0.00     0.149 HD
ENDBRANCH   6  13
BRANCH   5  18
ATOM     18  N   LIG d   1      -4.065  94.886 119.892  0.00  0.00     0.381 N 
ATOM     19  H   LIG d   1      -3.238  94.323 119.872  0.00  0.00    -0.090 HD
ATOM     20  H   LIG d   1      -4.065  95.417 120.745  0.00  0.00    -0.090 HD
ATOM     21  H   LIG d   1      -4.075  95.502 119.109  0.00  0.00    -0.090 HD
ENDBRANCH   5  18
BRANCH   3  22
ATOM     22  C   LIG d   1      -8.749  94.677 118.916  0.00  0.00     0.382 C 
ATOM     23  O   LIG d   1      -9.811  94.032 119.092  0.00  0.00    -0.241 OA
ATOM     24  O   LIG d   1      -8.806  95.896 118.670  0.00  0.00    -0.241 OA
ENDBRANCH   3  22
TORSDOF 7
ENDMDL
MODEL 4
REMARK VINA RESULT:      -5.3      2.408      5.146
REMARK  7 active torsions:
REMARK  status: ('A' for Active; 'I' for Inactive)
REMARK    1  A    between atoms: C_2  and  C_3 
REMARK    2  A    between atoms: C_3  and  O_6 
REMARK    3  A    between atoms: C_3  and  C_4 
REMARK    4  A    between atoms: C_7  and  O_6 
REMARK    5  A    between atoms: C_9  and  C_10 
REMARK    6  A    between atoms: N_15  and  C_14 
REMARK    7  A    between atoms: N_20  and  C_19 
REMARK       I    between atoms: C_22  and  N_20 
ROOT
ATOM      1  C   LIG d   1      -5.590  74.490 117.732  0.00  0.00     0.161 C 
ATOM      2  C   LIG d   1      -4.338  74.182 117.174  0.00  0.00     0.016 C 
ATOM      3  C   LIG d   1      -3.118  74.701 117.665  0.00  0.00     0.038 C 
ATOM      4  C   LIG d   1      -3.054  75.449 118.851  0.00  0.00     0.028 C 
ATOM      5  C   LIG d   1      -4.343  76.202 119.161  0.00  0.00    -0.047 C 
ATOM      6  C   LIG d   1      -5.531  75.215 119.092  0.00  0.00     0.091 C 
ENDROOT
BRANCH   1   7
ATOM      7  O   LIG d   1      -6.386  73.293 117.836  0.00  0.00    -0.368 OA
BRANCH   7   8
ATOM      8  C   LIG d   1      -7.333  73.062 116.764  0.00  0.00     0.119 C 
BRANCH   8   9
ATOM      9  C   LIG d   1      -8.716  73.525 117.260  0.00  0.00     0.028 C 
ATOM     10  C   LIG d   1      -9.144  74.866 116.639  0.00  0.00     0.006 C 
ENDBRANCH   8   9
BRANCH   8  11
ATOM     11  C   LIG d   1      -7.488  71.567 116.469  0.00  0.00     0.028 C 
ATOM     12  C   LIG d   1      -8.885  71.032 116.822  0.00  0.00     0.006 C 
ENDBRANCH   8  11
ENDBRANCH   7   8
ENDBRANCH   1   7
BRANCH   6  13
ATOM     13  N   LIG d   1      -6.840  75.887 119.301  0.00  0.00    -0.311 N 
ATOM     14  C   LIG d   1      -7.406  76.034 120.498  0.00  0.00     0.210 C 
ATOM     15  C   LIG d   1      -8.766  76.738 120.487  0.00  0.00     0.109 C 
ATOM     16  O   LIG d   1      -6.896  75.676 121.570  0.00  0.00    -0.276 OA
ATOM     17  H   LIG d   1      -7.309  76.235 118.488  0.00  0.00     0.149 HD
ENDBRANCH   6  13
BRANCH   5  18
ATOM     18  N   LIG d   1      -4.186  76.826 120.489  0.00  0.00     0.381 N 
ATOM     19  H   LIG d   1      -4.649  76.271 121.181  0.00  0.00    -0.090 HD
ATOM     20  H   LIG d   1      -4.616  77.734 120.474  0.00  0.00    -0.090 HD
ATOM     21  H   LIG d   1      -3.219  76.912 120.713  0.00  0.00    -0.090 HD
ENDBRANCH   5  18
BRANCH   3  22
ATOM     22  C   LIG d   1      -1.948  74.506 116.946  0.00  0.00     0.382 C 
ATOM     23  O   LIG d   1      -1.083  73.699 117.363  0.00  0.00    -0.241 OA
ATOM     24  O   LIG d   1      -1.728  75.160 115.909  0.00  0.00    -0.241 OA
ENDBRANCH   3  22
TORSDOF 7
ENDMDL
MODEL 5
REMARK VINA RESULT:      -4.9     16.185     18.818
REMARK  7 active torsions:
REMARK  status: ('A' for Active; 'I' for Inactive)
REMARK    1  A    between atoms: C_2  and  C_3 
REMARK    2  A    between atoms: C_3  and  O_6 
REMARK    3  A    between atoms: C_3  and  C_4 
REMARK    4  A    between atoms: C_7  and  O_6 
REMARK    5  A    between atoms: C_9  and  C_10 
REMARK    6  A    between atoms: N_15  and  C_14 
REMARK    7  A    between atoms: N_20  and  C_19 
REMARK       I    between atoms: C_22  and  N_20 
ROOT
ATOM      1  C   LIG d   1      -5.716  92.314 119.259  0.00  0.00     0.161 C 
ATOM      2  C   LIG d   1      -5.802  91.338 118.252  0.00  0.00     0.016 C 
ATOM      3  C   LIG d   1      -6.824  91.317 117.274  0.00  0.00     0.038 C 
ATOM      4  C   LIG d   1      -7.749  92.364 117.146  0.00  0.00     0.028 C 
ATOM      5  C   LIG d   1      -8.006  93.109 118.451  0.00  0.00    -0.047 C 
ATOM      6  C   LIG d   1      -6.651  93.526 119.067  0.00  0.00     0.091 C 
ENDROOT
BRANCH   1   7
ATOM      7  O   LIG d   1      -4.350  92.752 119.399  0.00  0.00    -0.368 OA
BRANCH   7   8
ATOM      8  C   LIG d   1      -3.457  91.844 120.088  0.00  0.00     0.119 C 
BRANCH   8   9
ATOM      9  C   LIG d   1      -3.272  92.376 121.523  0.00  0.00     0.028 C 
ATOM     10  C   LIG d   1      -3.251  93.912 121.580  0.00  0.00     0.006 C 
ENDBRANCH   8   9
BRANCH   8  11
ATOM     11  C   LIG d   1      -2.057  91.859 119.466  0.00  0.00     0.028 C 
ATOM     12  C   LIG d   1      -1.989  92.688 118.174  0.00  0.00     0.006 C 
ENDBRANCH   8  11
ENDBRANCH   7   8
ENDBRANCH   1   7
BRANCH   6  13
ATOM     13  N   LIG d   1      -6.809  94.187 120.389  0.00  0.00    -0.311 N 
ATOM     14  C   LIG d   1      -6.874  95.508 120.545  0.00  0.00     0.210 C 
ATOM     15  C   LIG d   1      -7.016  95.981 121.995  0.00  0.00     0.109 C 
ATOM     16  O   LIG d   1      -6.859  96.331 119.618  0.00  0.00    -0.276 OA
ATOM     17  H   LIG d   1      -6.861  93.592 121.193  0.00  0.00     0.149 HD
ENDBRANCH   6  13
BRANCH   5  18
ATOM     18  N   LIG d   1      -8.880  94.257 118.145  0.00  0.00     0.381 N 
ATOM     19  H   LIG d   1      -9.674  94.250 118.754  0.00  0.00    -0.090 HD
ATOM     20  H   LIG d   1      -9.208  94.172 117.199  0.00  0.00    -0.090 HD
ATOM     21  H   LIG d   1      -8.375  95.108 118.254  0.00  0.00    -0.090 HD
ENDBRANCH   5  18
BRANCH   3  22
ATOM     22  C   LIG d   1      -6.951  90.219 116.438  0.00  0.00     0.382 C 
ATOM     23  O   LIG d   1      -5.955  89.793 115.805  0.00  0.00    -0.241 OA
ATOM     24  O   LIG d   1      -8.060  89.676 116.273  0.00  0.00    -0.241 OA
ENDBRANCH   3  22
TORSDOF 7
ENDMDL
MODEL 6
REMARK VINA RESULT:      -4.9     16.378     18.674
REMARK  7 active torsions:
REMARK  status: ('A' for Active; 'I' for Inactive)
REMARK    1  A    between atoms: C_2  and  C_3 
REMARK    2  A    between atoms: C_3  and  O_6 
REMARK    3  A    between atoms: C_3  and  C_4 
REMARK    4  A    between atoms: C_7  and  O_6 
REMARK    5  A    between atoms: C_9  and  C_10 
REMARK    6  A    between atoms: N_15  and  C_14 
REMARK    7  A    between atoms: N_20  and  C_19 
REMARK       I    between atoms: C_22  and  N_20 
ROOT
ATOM      1  C   LIG d   1      -5.669  93.112 119.865  0.00  0.00     0.161 C 
ATOM      2  C   LIG d   1      -6.043  94.053 120.838  0.00  0.00     0.016 C 
ATOM      3  C   LIG d   1      -7.256  94.779 120.794  0.00  0.00     0.038 C 
ATOM      4  C   LIG d   1      -8.253  94.499 119.847  0.00  0.00     0.028 C 
ATOM      5  C   LIG d   1      -7.708  93.912 118.549  0.00  0.00    -0.047 C 
ATOM      6  C   LIG d   1      -6.793  92.713 118.886  0.00  0.00     0.091 C 
ENDROOT
BRANCH   1   7
ATOM      7  O   LIG d   1      -5.122  91.941 120.503  0.00  0.00    -0.368 OA
BRANCH   7   8
ATOM      8  C   LIG d   1      -3.686  91.936 120.702  0.00  0.00     0.119 C 
BRANCH   8   9
ATOM      9  C   LIG d   1      -3.028  91.768 119.319  0.00  0.00     0.028 C 
ATOM     10  C   LIG d   1      -3.273  90.374 118.717  0.00  0.00     0.006 C 
ENDBRANCH   8   9
BRANCH   8  11
ATOM     11  C   LIG d   1      -3.241  90.715 121.513  0.00  0.00     0.028 C 
ATOM     12  C   LIG d   1      -1.839  90.883 122.120  0.00  0.00     0.006 C 
ENDBRANCH   8  11
ENDBRANCH   7   8
ENDBRANCH   1   7
BRANCH   6  13
ATOM     13  N   LIG d   1      -6.151  92.132 117.677  0.00  0.00    -0.311 N 
ATOM     14  C   LIG d   1      -6.645  91.087 117.016  0.00  0.00     0.210 C 
ATOM     15  C   LIG d   1      -5.816  90.636 115.809  0.00  0.00     0.109 C 
ATOM     16  O   LIG d   1      -7.706  90.510 117.296  0.00  0.00    -0.276 OA
ATOM     17  H   LIG d   1      -5.302  92.559 117.362  0.00  0.00     0.149 HD
ENDBRANCH   6  13
BRANCH   5  18
ATOM     18  N   LIG d   1      -8.862  93.541 117.709  0.00  0.00     0.381 N 
ATOM     19  H   LIG d   1      -8.730  93.887 116.780  0.00  0.00    -0.090 HD
ATOM     20  H   LIG d   1      -9.690  93.966 118.088  0.00  0.00    -0.090 HD
ATOM     21  H   LIG d   1      -8.966  92.551 117.691  0.00  0.00    -0.090 HD
ENDBRANCH   5  18
BRANCH   3  22
ATOM     22  C   LIG d   1      -7.464  95.824 121.680  0.00  0.00     0.382 C 
ATOM     23  O   LIG d   1      -6.485  96.388 122.226  0.00  0.00    -0.241 OA
ATOM     24  O   LIG d   1      -8.620  96.182 121.975  0.00  0.00    -0.241 OA
ENDBRANCH   3  22
TORSDOF 7
ENDMDL
MODEL 7
REMARK VINA RESULT:      -4.8      2.219      4.987
REMARK  7 active torsions:
REMARK  status: ('A' for Active; 'I' for Inactive)
REMARK    1  A    between atoms: C_2  and  C_3 
REMARK    2  A    between atoms: C_3  and  O_6 
REMARK    3  A    between atoms: C_3  and  C_4 
REMARK    4  A    between atoms: C_7  and  O_6 
REMARK    5  A    between atoms: C_9  and  C_10 
REMARK    6  A    between atoms: N_15  and  C_14 
REMARK    7  A    between atoms: N_20  and  C_19 
REMARK       I    between atoms: C_22  and  N_20 
ROOT
ATOM      1  C   LIG d   1      -5.936  74.710 117.482  0.00  0.00     0.161 C 
ATOM      2  C   LIG d   1      -6.315  73.413 117.096  0.00  0.00     0.016 C 
ATOM      3  C   LIG d   1      -7.660  73.016 116.918  0.00  0.00     0.038 C 
ATOM      4  C   LIG d   1      -8.717  73.936 116.967  0.00  0.00     0.028 C 
ATOM      5  C   LIG d   1      -8.427  75.146 117.849  0.00  0.00    -0.047 C 
ATOM      6  C   LIG d   1      -7.069  75.756 117.432  0.00  0.00     0.091 C 
ENDROOT
BRANCH   1   7
ATOM      7  O   LIG d   1      -4.815  75.148 116.689  0.00  0.00    -0.368 OA
BRANCH   7   8
ATOM      8  C   LIG d   1      -3.502  74.907 117.253  0.00  0.00     0.119 C 
BRANCH   8   9
ATOM      9  C   LIG d   1      -3.146  76.121 118.132  0.00  0.00     0.028 C 
ATOM     10  C   LIG d   1      -3.156  75.783 119.632  0.00  0.00     0.006 C 
ENDBRANCH   8   9
BRANCH   8  11
ATOM     11  C   LIG d   1      -2.427  74.865 116.164  0.00  0.00     0.028 C 
ATOM     12  C   LIG d   1      -1.054  74.425 116.698  0.00  0.00     0.006 C 
ENDBRANCH   8  11
ENDBRANCH   7   8
ENDBRANCH   1   7
BRANCH   6  13
ATOM     13  N   LIG d   1      -6.669  76.894 118.300  0.00  0.00    -0.311 N 
ATOM     14  C   LIG d   1      -6.196  78.046 117.827  0.00  0.00     0.210 C 
ATOM     15  C   LIG d   1      -5.825  79.079 118.895  0.00  0.00     0.109 C 
ATOM     16  O   LIG d   1      -6.079  78.322 116.624  0.00  0.00    -0.276 OA
ATOM     17  H   LIG d   1      -6.761  76.768 119.289  0.00  0.00     0.149 HD
ENDBRANCH   6  13
BRANCH   5  18
ATOM     18  N   LIG d   1      -9.554  76.086 117.701  0.00  0.00     0.381 N 
ATOM     19  H   LIG d   1     -10.212  75.725 117.039  0.00  0.00    -0.090 HD
ATOM     20  H   LIG d   1      -9.203  76.961 117.351  0.00  0.00    -0.090 HD
ATOM     21  H   LIG d   1      -9.999  76.226 118.581  0.00  0.00    -0.090 HD
ENDBRANCH   5  18
BRANCH   3  22
ATOM     22  C   LIG d   1      -7.961  71.676 116.726  0.00  0.00     0.382 C 
ATOM     23  O   LIG d   1      -9.139  71.329 116.469  0.00  0.00    -0.241 OA
ATOM     24  O   LIG d   1      -7.078  70.806 116.851  0.00  0.00    -0.241 OA
ENDBRANCH   3  22
TORSDOF 7
ENDMDL
MODEL 8
REMARK VINA RESULT:      -4.7      2.035      4.745
REMARK  7 active torsions:
REMARK  status: ('A' for Active; 'I' for Inactive)
REMARK    1  A    between atoms: C_2  and  C_3 
REMARK    2  A    between atoms: C_3  and  O_6 
REMARK    3  A    between atoms: C_3  and  C_4 
REMARK    4  A    between atoms: C_7  and  O_6 
REMARK    5  A    between atoms: C_9  and  C_10 
REMARK    6  A    between atoms: N_15  and  C_14 
REMARK    7  A    between atoms: N_20  and  C_19 
REMARK       I    between atoms: C_22  and  N_20 
ROOT
ATOM      1  C   LIG d   1      -8.035  75.022 116.841  0.00  0.00     0.161 C 
ATOM      2  C   LIG d   1      -8.675  73.779 116.982  0.00  0.00     0.016 C 
ATOM      3  C   LIG d   1      -7.984  72.572 117.231  0.00  0.00     0.038 C 
ATOM      4  C   LIG d   1      -6.609  72.548 117.508  0.00  0.00     0.028 C 
ATOM      5  C   LIG d   1      -5.844  73.708 116.878  0.00  0.00    -0.047 C 
ATOM      6  C   LIG d   1      -6.547  75.033 117.250  0.00  0.00     0.091 C 
ENDROOT
BRANCH   1   7
ATOM      7  O   LIG d   1      -8.762  76.032 117.568  0.00  0.00    -0.368 OA
BRANCH   7   8
ATOM      8  C   LIG d   1      -8.425  76.175 118.970  0.00  0.00     0.119 C 
BRANCH   8   9
ATOM      9  C   LIG d   1      -9.703  75.897 119.784  0.00  0.00     0.028 C 
ATOM     10  C   LIG d   1      -9.750  76.699 121.095  0.00  0.00     0.006 C 
ENDBRANCH   8   9
BRANCH   8  11
ATOM     11  C   LIG d   1      -8.037  77.618 119.304  0.00  0.00     0.028 C 
ATOM     12  C   LIG d   1      -8.344  78.598 118.162  0.00  0.00     0.006 C 
ENDBRANCH   8  11
ENDBRANCH   7   8
ENDBRANCH   1   7
BRANCH   6  13
ATOM     13  N   LIG d   1      -5.913  76.212 116.604  0.00  0.00    -0.311 N 
ATOM     14  C   LIG d   1      -4.994  76.968 117.202  0.00  0.00     0.210 C 
ATOM     15  C   LIG d   1      -4.484  78.147 116.367  0.00  0.00     0.109 C 
ATOM     16  O   LIG d   1      -4.530  76.757 118.332  0.00  0.00    -0.276 OA
ATOM     17  H   LIG d   1      -6.208  76.437 115.674  0.00  0.00     0.149 HD
ENDBRANCH   6  13
BRANCH   5  18
ATOM     18  N   LIG d   1      -4.452  73.637 117.360  0.00  0.00     0.381 N 
ATOM     19  H   LIG d   1      -3.962  74.471 117.103  0.00  0.00    -0.090 HD
ATOM     20  H   LIG d   1      -3.996  72.856 116.922  0.00  0.00    -0.090 HD
ATOM     21  H   LIG d   1      -4.438  73.527 118.350  0.00  0.00    -0.090 HD
ENDBRANCH   5  18
BRANCH   3  22
ATOM     22  C   LIG d   1      -8.663  71.365 117.166  0.00  0.00     0.382 C 
ATOM     23  O   LIG d   1      -9.428  71.127 116.200  0.00  0.00    -0.241 OA
ATOM     24  O   LIG d   1      -8.555  70.528 118.082  0.00  0.00    -0.241 OA
ENDBRANCH   3  22
TORSDOF 7
ENDMDL
MODEL 9
REMARK VINA RESULT:      -4.7     16.780     19.242
REMARK  7 active torsions:
REMARK  status: ('A' for Active; 'I' for Inactive)
REMARK    1  A    between atoms: C_2  and  C_3 
REMARK    2  A    between atoms: C_3  and  O_6 
REMARK    3  A    between atoms: C_3  and  C_4 
REMARK    4  A    between atoms: C_7  and  O_6 
REMARK    5  A    between atoms: C_9  and  C_10 
REMARK    6  A    between atoms: N_15  and  C_14 
REMARK    7  A    between atoms: N_20  and  C_19 
REMARK       I    between atoms: C_22  and  N_20 
ROOT
ATOM      1  C   LIG d   1      -1.609  92.734 117.747  0.00  0.00     0.161 C 
ATOM      2  C   LIG d   1      -0.555  91.823 117.570  0.00  0.00     0.016 C 
ATOM      3  C   LIG d   1       0.624  91.835 118.351  0.00  0.00     0.038 C 
ATOM      4  C   LIG d   1       0.763  92.671 119.469  0.00  0.00     0.028 C 
ATOM      5  C   LIG d   1      -0.062  93.950 119.377  0.00  0.00    -0.047 C 
ATOM      6  C   LIG d   1      -1.523  93.580 119.034  0.00  0.00     0.091 C 
ENDROOT
BRANCH   1   7
ATOM      7  O   LIG d   1      -2.870  92.038 117.688  0.00  0.00    -0.368 OA
BRANCH   7   8
ATOM      8  C   LIG d   1      -2.823  90.611 117.930  0.00  0.00     0.119 C 
BRANCH   8   9
ATOM      9  C   LIG d   1      -3.576  89.920 116.776  0.00  0.00     0.028 C 
ATOM     10  C   LIG d   1      -4.871  90.657 116.396  0.00  0.00     0.006 C 
ENDBRANCH   8   9
BRANCH   8  11
ATOM     11  C   LIG d   1      -3.594  90.235 119.199  0.00  0.00     0.028 C 
ATOM     12  C   LIG d   1      -2.829  90.582 120.486  0.00  0.00     0.006 C 
ENDBRANCH   8  11
ENDBRANCH   7   8
ENDBRANCH   1   7
BRANCH   6  13
ATOM     13  N   LIG d   1      -2.381  94.779 118.842  0.00  0.00    -0.311 N 
ATOM     14  C   LIG d   1      -3.102  95.329 119.817  0.00  0.00     0.210 C 
ATOM     15  C   LIG d   1      -3.932  96.547 119.400  0.00  0.00     0.109 C 
ATOM     16  O   LIG d   1      -3.108  94.942 120.996  0.00  0.00    -0.276 OA
ATOM     17  H   LIG d   1      -2.410  95.176 117.923  0.00  0.00     0.149 HD
ENDBRANCH   6  13
BRANCH   5  18
ATOM     18  N   LIG d   1       0.068  94.659 120.664  0.00  0.00     0.381 N 
ATOM     19  H   LIG d   1      -0.621  95.381 120.724  0.00  0.00    -0.090 HD
ATOM     20  H   LIG d   1       0.977  95.085 120.709  0.00  0.00    -0.090 HD
ATOM     21  H   LIG d   1      -0.044  94.018 121.419  0.00  0.00    -0.090 HD
ENDBRANCH   5  18
BRANCH   3  22
ATOM     22  C   LIG d   1       1.696  91.033 117.991  0.00  0.00     0.382 C 
ATOM     23  O   LIG d   1       2.614  91.498 117.273  0.00  0.00    -0.241 OA
ATOM     24  O   LIG d   1       1.734  89.837 118.338  0.00  0.00    -0.241 OA
ENDBRANCH   3  22
TORSDOF 7
ENDMDL
