MODEL 1
REMARK VINA RESULT:      -4.8      0.000      0.000
REMARK  7 active torsions:
REMARK  status: ('A' for Active; 'I' for Inactive)
REMARK    1  A    between atoms: C_2  and  C_3 
REMARK    2  A    between atoms: C_3  and  O_6 
REMARK    3  A    between atoms: C_3  and  C_4 
REMARK    4  A    between atoms: C_7  and  O_6 
REMARK    5  A    between atoms: C_9  and  C_10 
REMARK    6  A    between atoms: N_15  and  C_14 
REMARK    7  A    between atoms: N_20  and  C_19 
REMARK       I    between atoms: C_22  and  N_20 
ROOT
ATOM      1  C   LIG d   1      -5.130  92.983 118.911  0.00  0.00     0.161 C 
ATOM      2  C   LIG d   1      -6.349  93.680 118.936  0.00  0.00     0.016 C 
ATOM      3  C   LIG d   1      -7.388  93.463 118.002  0.00  0.00     0.038 C 
ATOM      4  C   LIG d   1      -7.338  92.420 117.066  0.00  0.00     0.028 C 
ATOM      5  C   LIG d   1      -5.917  92.022 116.679  0.00  0.00    -0.047 C 
ATOM      6  C   LIG d   1      -5.100  91.764 117.965  0.00  0.00     0.091 C 
ENDROOT
BRANCH   1   7
ATOM      7  O   LIG d   1      -4.766  92.588 120.249  0.00  0.00    -0.368 OA
BRANCH   7   8
ATOM      8  C   LIG d   1      -3.627  93.271 120.828  0.00  0.00     0.119 C 
BRANCH   8   9
ATOM      9  C   LIG d   1      -3.039  94.193 119.742  0.00  0.00     0.028 C 
ATOM     10  C   LIG d   1      -1.571  93.863 119.424  0.00  0.00     0.006 C 
ENDBRANCH   8   9
BRANCH   8  11
ATOM     11  C   LIG d   1      -2.505  92.289 121.176  0.00  0.00     0.028 C 
ATOM     12  C   LIG d   1      -3.028  90.986 121.803  0.00  0.00     0.006 C 
ENDBRANCH   8  11
ENDBRANCH   7   8
ENDBRANCH   1   7
BRANCH   6  13
ATOM     13  N   LIG d   1      -3.676  91.452 117.679  0.00  0.00    -0.311 N 
ATOM     14  C   LIG d   1      -3.079  90.327 118.070  0.00  0.00     0.210 C 
ATOM     15  C   LIG d   1      -1.600  90.213 117.688  0.00  0.00     0.109 C 
ATOM     16  O   LIG d   1      -3.643  89.398 118.668  0.00  0.00    -0.276 OA
ATOM     17  H   LIG d   1      -3.151  92.137 117.171  0.00  0.00     0.149 HD
ENDBRANCH   6  13
BRANCH   5  18
ATOM     18  N   LIG d   1      -6.009  90.837 115.805  0.00  0.00     0.381 N 
ATOM     19  H   LIG d   1      -5.560  90.057 116.243  0.00  0.00    -0.090 HD
ATOM     20  H   LIG d   1      -5.532  91.031 114.942  0.00  0.00    -0.090 HD
ATOM     21  H   LIG d   1      -6.964  90.620 115.623  0.00  0.00    -0.090 HD
ENDBRANCH   5  18
BRANCH   3  22
ATOM     22  C   LIG d   1      -8.478  94.320 117.975  0.00  0.00     0.382 C 
ATOM     23  O   LIG d   1      -9.628  93.866 117.763  0.00  0.00    -0.241 OA
ATOM     24  O   LIG d   1      -8.319  95.548 118.114  0.00  0.00    -0.241 OA
ENDBRANCH   3  22
TORSDOF 7
ENDMDL
MODEL 2
REMARK VINA RESULT:      -4.6      2.706      4.758
REMARK  7 active torsions:
REMARK  status: ('A' for Active; 'I' for Inactive)
REMARK    1  A    between atoms: C_2  and  C_3 
REMARK    2  A    between atoms: C_3  and  O_6 
REMARK    3  A    between atoms: C_3  and  C_4 
REMARK    4  A    between atoms: C_7  and  O_6 
REMARK    5  A    between atoms: C_9  and  C_10 
REMARK    6  A    between atoms: N_15  and  C_14 
REMARK    7  A    between atoms: N_20  and  C_19 
REMARK       I    between atoms: C_22  and  N_20 
ROOT
ATOM      1  C   LIG d   1      -5.732  93.269 119.031  0.00  0.00     0.161 C 
ATOM      2  C   LIG d   1      -5.760  92.250 118.064  0.00  0.00     0.016 C 
ATOM      3  C   LIG d   1      -6.772  92.137 117.082  0.00  0.00     0.038 C 
ATOM      4  C   LIG d   1      -7.748  93.128 116.906  0.00  0.00     0.028 C 
ATOM      5  C   LIG d   1      -8.054  93.910 118.180  0.00  0.00    -0.047 C 
ATOM      6  C   LIG d   1      -6.728  94.422 118.785  0.00  0.00     0.091 C 
ENDROOT
BRANCH   1   7
ATOM      7  O   LIG d   1      -4.392  93.783 119.161  0.00  0.00    -0.368 OA
BRANCH   7   8
ATOM      8  C   LIG d   1      -3.327  92.902 118.727  0.00  0.00     0.119 C 
BRANCH   8   9
ATOM      9  C   LIG d   1      -2.505  92.520 119.974  0.00  0.00     0.028 C 
ATOM     10  C   LIG d   1      -2.729  91.059 120.399  0.00  0.00     0.006 C 
ENDBRANCH   8   9
BRANCH   8  11
ATOM     11  C   LIG d   1      -2.345  93.628 117.802  0.00  0.00     0.028 C 
ATOM     12  C   LIG d   1      -2.068  95.073 118.244  0.00  0.00     0.006 C 
ENDBRANCH   8  11
ENDBRANCH   7   8
ENDBRANCH   1   7
BRANCH   6  13
ATOM     13  N   LIG d   1      -6.929  95.125 120.079  0.00  0.00    -0.311 N 
ATOM     14  C   LIG d   1      -7.050  96.448 120.183  0.00  0.00     0.210 C 
ATOM     15  C   LIG d   1      -7.231  96.970 121.612  0.00  0.00     0.109 C 
ATOM     16  O   LIG d   1      -7.056  97.235 119.225  0.00  0.00    -0.276 OA
ATOM     17  H   LIG d   1      -6.967  94.560 120.904  0.00  0.00     0.149 HD
ENDBRANCH   6  13
BRANCH   5  18
ATOM     18  N   LIG d   1      -8.985  94.997 117.822  0.00  0.00     0.381 N 
ATOM     19  H   LIG d   1      -9.229  95.517 118.641  0.00  0.00    -0.090 HD
ATOM     20  H   LIG d   1      -9.824  94.596 117.442  0.00  0.00    -0.090 HD
ATOM     21  H   LIG d   1      -8.562  95.600 117.151  0.00  0.00    -0.090 HD
ENDBRANCH   5  18
BRANCH   3  22
ATOM     22  C   LIG d   1      -6.836  91.001 116.290  0.00  0.00     0.382 C 
ATOM     23  O   LIG d   1      -5.785  90.515 115.805  0.00  0.00    -0.241 OA
ATOM     24  O   LIG d   1      -7.935  90.483 116.016  0.00  0.00    -0.241 OA
ENDBRANCH   3  22
TORSDOF 7
ENDMDL
MODEL 3
REMARK VINA RESULT:      -4.6     11.953     13.966
REMARK  7 active torsions:
REMARK  status: ('A' for Active; 'I' for Inactive)
REMARK    1  A    between atoms: C_2  and  C_3 
REMARK    2  A    between atoms: C_3  and  O_6 
REMARK    3  A    between atoms: C_3  and  C_4 
REMARK    4  A    between atoms: C_7  and  O_6 
REMARK    5  A    between atoms: C_9  and  C_10 
REMARK    6  A    between atoms: N_15  and  C_14 
REMARK    7  A    between atoms: N_20  and  C_19 
REMARK       I    between atoms: C_22  and  N_20 
ROOT
ATOM      1  C   LIG d   1      -6.316  78.793 118.035  0.00  0.00     0.161 C 
ATOM      2  C   LIG d   1      -7.622  79.280 117.859  0.00  0.00     0.016 C 
ATOM      3  C   LIG d   1      -8.047  80.549 118.317  0.00  0.00     0.038 C 
ATOM      4  C   LIG d   1      -7.148  81.484 118.852  0.00  0.00     0.028 C 
ATOM      5  C   LIG d   1      -5.929  80.845 119.508  0.00  0.00    -0.047 C 
ATOM      6  C   LIG d   1      -5.293  79.843 118.517  0.00  0.00     0.091 C 
ENDROOT
BRANCH   1   7
ATOM      7  O   LIG d   1      -5.859  78.170 116.818  0.00  0.00    -0.368 OA
BRANCH   7   8
ATOM      8  C   LIG d   1      -5.546  76.758 116.904  0.00  0.00     0.119 C 
BRANCH   8   9
ATOM      9  C   LIG d   1      -4.402  76.476 115.910  0.00  0.00     0.028 C 
ATOM     10  C   LIG d   1      -3.014  76.679 116.539  0.00  0.00     0.006 C 
ENDBRANCH   8   9
BRANCH   8  11
ATOM     11  C   LIG d   1      -6.719  75.897 116.427  0.00  0.00     0.028 C 
ATOM     12  C   LIG d   1      -6.331  74.425 116.216  0.00  0.00     0.006 C 
ENDBRANCH   8  11
ENDBRANCH   7   8
ENDBRANCH   1   7
BRANCH   6  13
ATOM     13  N   LIG d   1      -4.143  79.112 119.110  0.00  0.00    -0.311 N 
ATOM     14  C   LIG d   1      -2.879  79.512 118.989  0.00  0.00     0.210 C 
ATOM     15  C   LIG d   1      -1.845  78.602 119.660  0.00  0.00     0.109 C 
ATOM     16  O   LIG d   1      -2.517  80.551 118.416  0.00  0.00    -0.276 OA
ATOM     17  H   LIG d   1      -4.349  78.274 119.618  0.00  0.00     0.149 HD
ENDBRANCH   6  13
BRANCH   5  18
ATOM     18  N   LIG d   1      -5.012  81.933 119.898  0.00  0.00     0.381 N 
ATOM     19  H   LIG d   1      -4.840  81.894 120.883  0.00  0.00    -0.090 HD
ATOM     20  H   LIG d   1      -5.445  82.814 119.688  0.00  0.00    -0.090 HD
ATOM     21  H   LIG d   1      -4.153  81.850 119.400  0.00  0.00    -0.090 HD
ENDBRANCH   5  18
BRANCH   3  22
ATOM     22  C   LIG d   1      -9.394  80.877 118.278  0.00  0.00     0.382 C 
ATOM     23  O   LIG d   1     -10.261  79.991 118.472  0.00  0.00    -0.241 OA
ATOM     24  O   LIG d   1      -9.753  82.039 118.007  0.00  0.00    -0.241 OA
ENDBRANCH   3  22
TORSDOF 7
ENDMDL
MODEL 4
REMARK VINA RESULT:      -4.5      2.176      3.958
REMARK  7 active torsions:
REMARK  status: ('A' for Active; 'I' for Inactive)
REMARK    1  A    between atoms: C_2  and  C_3 
REMARK    2  A    between atoms: C_3  and  O_6 
REMARK    3  A    between atoms: C_3  and  C_4 
REMARK    4  A    between atoms: C_7  and  O_6 
REMARK    5  A    between atoms: C_9  and  C_10 
REMARK    6  A    between atoms: N_15  and  C_14 
REMARK    7  A    between atoms: N_20  and  C_19 
REMARK       I    between atoms: C_22  and  N_20 
ROOT
ATOM      1  C   LIG d   1      -5.494  93.313 118.815  0.00  0.00     0.161 C 
ATOM      2  C   LIG d   1      -6.490  92.730 118.014  0.00  0.00     0.016 C 
ATOM      3  C   LIG d   1      -6.233  91.703 117.077  0.00  0.00     0.038 C 
ATOM      4  C   LIG d   1      -4.980  91.080 116.985  0.00  0.00     0.028 C 
ATOM      5  C   LIG d   1      -3.824  91.977 117.417  0.00  0.00    -0.047 C 
ATOM      6  C   LIG d   1      -4.142  92.569 118.808  0.00  0.00     0.091 C 
ENDROOT
BRANCH   1   7
ATOM      7  O   LIG d   1      -5.977  93.461 120.165  0.00  0.00    -0.368 OA
BRANCH   7   8
ATOM      8  C   LIG d   1      -6.235  94.818 120.604  0.00  0.00     0.119 C 
BRANCH   8   9
ATOM      9  C   LIG d   1      -7.761  94.976 120.747  0.00  0.00     0.028 C 
ATOM     10  C   LIG d   1      -8.425  95.464 119.449  0.00  0.00     0.006 C 
ENDBRANCH   8   9
BRANCH   8  11
ATOM     11  C   LIG d   1      -5.820  95.837 119.539  0.00  0.00     0.028 C 
ATOM     12  C   LIG d   1      -4.677  96.753 120.004  0.00  0.00     0.006 C 
ENDBRANCH   8  11
ENDBRANCH   7   8
ENDBRANCH   1   7
BRANCH   6  13
ATOM     13  N   LIG d   1      -3.101  93.525 119.268  0.00  0.00    -0.311 N 
ATOM     14  C   LIG d   1      -2.486  93.429 120.446  0.00  0.00     0.210 C 
ATOM     15  C   LIG d   1      -1.459  94.529 120.731  0.00  0.00     0.109 C 
ATOM     16  O   LIG d   1      -2.669  92.518 121.267  0.00  0.00    -0.276 OA
ATOM     17  H   LIG d   1      -2.868  94.278 118.651  0.00  0.00     0.149 HD
ENDBRANCH   6  13
BRANCH   5  18
ATOM     18  N   LIG d   1      -2.597  91.159 117.403  0.00  0.00     0.381 N 
ATOM     19  H   LIG d   1      -2.642  90.492 116.659  0.00  0.00    -0.090 HD
ATOM     20  H   LIG d   1      -2.529  90.659 118.272  0.00  0.00    -0.090 HD
ATOM     21  H   LIG d   1      -1.799  91.744 117.285  0.00  0.00    -0.090 HD
ENDBRANCH   5  18
BRANCH   3  22
ATOM     22  C   LIG d   1      -7.227  91.317 116.191  0.00  0.00     0.382 C 
ATOM     23  O   LIG d   1      -8.083  92.150 115.806  0.00  0.00    -0.241 OA
ATOM     24  O   LIG d   1      -7.306  90.135 115.806  0.00  0.00    -0.241 OA
ENDBRANCH   3  22
TORSDOF 7
ENDMDL
MODEL 5
REMARK VINA RESULT:      -4.4      2.439      3.903
REMARK  7 active torsions:
REMARK  status: ('A' for Active; 'I' for Inactive)
REMARK    1  A    between atoms: C_2  and  C_3 
REMARK    2  A    between atoms: C_3  and  O_6 
REMARK    3  A    between atoms: C_3  and  C_4 
REMARK    4  A    between atoms: C_7  and  O_6 
REMARK    5  A    between atoms: C_9  and  C_10 
REMARK    6  A    between atoms: N_15  and  C_14 
REMARK    7  A    between atoms: N_20  and  C_19 
REMARK       I    between atoms: C_22  and  N_20 
ROOT
ATOM      1  C   LIG d   1      -4.158  92.105 118.253  0.00  0.00     0.161 C 
ATOM      2  C   LIG d   1      -5.003  91.602 117.249  0.00  0.00     0.016 C 
ATOM      3  C   LIG d   1      -6.343  92.018 117.079  0.00  0.00     0.038 C 
ATOM      4  C   LIG d   1      -6.888  93.083 117.813  0.00  0.00     0.028 C 
ATOM      5  C   LIG d   1      -6.233  93.276 119.176  0.00  0.00    -0.047 C 
ATOM      6  C   LIG d   1      -4.700  93.347 118.991  0.00  0.00     0.091 C 
ENDROOT
BRANCH   1   7
ATOM      7  O   LIG d   1      -2.854  92.378 117.703  0.00  0.00    -0.368 OA
BRANCH   7   8
ATOM      8  C   LIG d   1      -1.794  91.472 118.095  0.00  0.00     0.119 C 
BRANCH   8   9
ATOM      9  C   LIG d   1      -2.391  90.471 119.103  0.00  0.00     0.028 C 
ATOM     10  C   LIG d   1      -2.419  89.034 118.556  0.00  0.00     0.006 C 
ENDBRANCH   8   9
BRANCH   8  11
ATOM     11  C   LIG d   1      -0.688  92.206 118.859  0.00  0.00     0.028 C 
ATOM     12  C   LIG d   1      -0.406  91.590 120.238  0.00  0.00     0.006 C 
ENDBRANCH   8  11
ENDBRANCH   7   8
ENDBRANCH   1   7
BRANCH   6  13
ATOM     13  N   LIG d   1      -3.977  93.451 120.286  0.00  0.00    -0.311 N 
ATOM     14  C   LIG d   1      -3.051  94.375 120.536  0.00  0.00     0.210 C 
ATOM     15  C   LIG d   1      -2.415  94.293 121.927  0.00  0.00     0.109 C 
ATOM     16  O   LIG d   1      -2.720  95.275 119.750  0.00  0.00    -0.276 OA
ATOM     17  H   LIG d   1      -4.207  92.779 120.992  0.00  0.00     0.149 HD
ENDBRANCH   6  13
BRANCH   5  18
ATOM     18  N   LIG d   1      -6.800  94.500 119.774  0.00  0.00     0.381 N 
ATOM     19  H   LIG d   1      -6.104  95.218 119.801  0.00  0.00    -0.090 HD
ATOM     20  H   LIG d   1      -7.085  94.300 120.716  0.00  0.00    -0.090 HD
ATOM     21  H   LIG d   1      -7.584  94.808 119.241  0.00  0.00    -0.090 HD
ENDBRANCH   5  18
BRANCH   3  22
ATOM     22  C   LIG d   1      -7.167  91.339 116.194  0.00  0.00     0.382 C 
ATOM     23  O   LIG d   1      -8.238  91.864 115.806  0.00  0.00    -0.241 OA
ATOM     24  O   LIG d   1      -6.874  90.190 115.814  0.00  0.00    -0.241 OA
ENDBRANCH   3  22
TORSDOF 7
ENDMDL
MODEL 6
REMARK VINA RESULT:      -4.3      2.109      5.028
REMARK  7 active torsions:
REMARK  status: ('A' for Active; 'I' for Inactive)
REMARK    1  A    between atoms: C_2  and  C_3 
REMARK    2  A    between atoms: C_3  and  O_6 
REMARK    3  A    between atoms: C_3  and  C_4 
REMARK    4  A    between atoms: C_7  and  O_6 
REMARK    5  A    between atoms: C_9  and  C_10 
REMARK    6  A    between atoms: N_15  and  C_14 
REMARK    7  A    between atoms: N_20  and  C_19 
REMARK       I    between atoms: C_22  and  N_20 
ROOT
ATOM      1  C   LIG d   1      -5.290  93.211 119.897  0.00  0.00     0.161 C 
ATOM      2  C   LIG d   1      -4.275  92.338 119.471  0.00  0.00     0.016 C 
ATOM      3  C   LIG d   1      -4.298  91.664 118.228  0.00  0.00     0.038 C 
ATOM      4  C   LIG d   1      -5.272  91.936 117.256  0.00  0.00     0.028 C 
ATOM      5  C   LIG d   1      -6.591  92.429 117.841  0.00  0.00    -0.047 C 
ATOM      6  C   LIG d   1      -6.305  93.605 118.803  0.00  0.00     0.091 C 
ENDROOT
BRANCH   1   7
ATOM      7  O   LIG d   1      -4.706  94.389 120.487  0.00  0.00    -0.368 OA
BRANCH   7   8
ATOM      8  C   LIG d   1      -4.353  95.453 119.570  0.00  0.00     0.119 C 
BRANCH   8   9
ATOM      9  C   LIG d   1      -2.823  95.627 119.630  0.00  0.00     0.028 C 
ATOM     10  C   LIG d   1      -2.125  95.127 118.354  0.00  0.00     0.006 C 
ENDBRANCH   8   9
BRANCH   8  11
ATOM     11  C   LIG d   1      -4.932  96.796 120.024  0.00  0.00     0.028 C 
ATOM     12  C   LIG d   1      -5.710  96.693 121.345  0.00  0.00     0.006 C 
ENDBRANCH   8  11
ENDBRANCH   7   8
ENDBRANCH   1   7
BRANCH   6  13
ATOM     13  N   LIG d   1      -7.533  94.092 119.484  0.00  0.00    -0.311 N 
ATOM     14  C   LIG d   1      -8.230  95.149 119.069  0.00  0.00     0.210 C 
ATOM     15  C   LIG d   1      -9.452  95.493 119.926  0.00  0.00     0.109 C 
ATOM     16  O   LIG d   1      -7.972  95.813 118.055  0.00  0.00    -0.276 OA
ATOM     17  H   LIG d   1      -7.832  93.592 120.298  0.00  0.00     0.149 HD
ENDBRANCH   6  13
BRANCH   5  18
ATOM     18  N   LIG d   1      -7.466  92.804 116.714  0.00  0.00     0.381 N 
ATOM     19  H   LIG d   1      -7.489  92.064 116.042  0.00  0.00    -0.090 HD
ATOM     20  H   LIG d   1      -7.089  93.623 116.269  0.00  0.00    -0.090 HD
ATOM     21  H   LIG d   1      -8.387  92.992 117.045  0.00  0.00    -0.090 HD
ENDBRANCH   5  18
BRANCH   3  22
ATOM     22  C   LIG d   1      -3.361  90.677 117.964  0.00  0.00     0.382 C 
ATOM     23  O   LIG d   1      -3.683  89.468 118.055  0.00  0.00    -0.241 OA
ATOM     24  O   LIG d   1      -2.187  90.980 117.680  0.00  0.00    -0.241 OA
ENDBRANCH   3  22
TORSDOF 7
ENDMDL
MODEL 7
REMARK VINA RESULT:      -4.3      3.297      6.647
REMARK  7 active torsions:
REMARK  status: ('A' for Active; 'I' for Inactive)
REMARK    1  A    between atoms: C_2  and  C_3 
REMARK    2  A    between atoms: C_3  and  O_6 
REMARK    3  A    between atoms: C_3  and  C_4 
REMARK    4  A    between atoms: C_7  and  O_6 
REMARK    5  A    between atoms: C_9  and  C_10 
REMARK    6  A    between atoms: N_15  and  C_14 
REMARK    7  A    between atoms: N_20  and  C_19 
REMARK       I    between atoms: C_22  and  N_20 
ROOT
ATOM      1  C   LIG d   1      -0.908  91.651 118.149  0.00  0.00     0.161 C 
ATOM      2  C   LIG d   1       0.424  91.999 118.426  0.00  0.00     0.016 C 
ATOM      3  C   LIG d   1       0.875  93.336 118.526  0.00  0.00     0.038 C 
ATOM      4  C   LIG d   1      -0.013  94.421 118.505  0.00  0.00     0.028 C 
ATOM      5  C   LIG d   1      -1.293  94.141 117.724  0.00  0.00    -0.047 C 
ATOM      6  C   LIG d   1      -1.912  92.820 118.233  0.00  0.00     0.091 C 
ENDROOT
BRANCH   1   7
ATOM      7  O   LIG d   1      -1.321  90.573 119.012  0.00  0.00    -0.368 OA
BRANCH   7   8
ATOM      8  C   LIG d   1      -1.726  89.348 118.352  0.00  0.00     0.119 C 
BRANCH   8   9
ATOM      9  C   LIG d   1      -3.068  88.911 118.971  0.00  0.00     0.028 C 
ATOM     10  C   LIG d   1      -2.881  87.963 120.168  0.00  0.00     0.006 C 
ENDBRANCH   8   9
BRANCH   8  11
ATOM     11  C   LIG d   1      -0.750  88.206 118.650  0.00  0.00     0.028 C 
ATOM     12  C   LIG d   1       0.296  88.012 117.541  0.00  0.00     0.006 C 
ENDBRANCH   8  11
ENDBRANCH   7   8
ENDBRANCH   1   7
BRANCH   6  13
ATOM     13  N   LIG d   1      -3.123  92.429 117.465  0.00  0.00    -0.311 N 
ATOM     14  C   LIG d   1      -4.322  92.264 118.021  0.00  0.00     0.210 C 
ATOM     15  C   LIG d   1      -5.431  91.840 117.052  0.00  0.00     0.109 C 
ATOM     16  O   LIG d   1      -4.580  92.461 119.218  0.00  0.00    -0.276 OA
ATOM     17  H   LIG d   1      -3.011  92.279 116.481  0.00  0.00     0.149 HD
ENDBRANCH   6  13
BRANCH   5  18
ATOM     18  N   LIG d   1      -2.185  95.303 117.899  0.00  0.00     0.381 N 
ATOM     19  H   LIG d   1      -3.067  95.122 117.463  0.00  0.00    -0.090 HD
ATOM     20  H   LIG d   1      -1.770  96.102 117.452  0.00  0.00    -0.090 HD
ATOM     21  H   LIG d   1      -2.317  95.488 118.869  0.00  0.00    -0.090 HD
ENDBRANCH   5  18
BRANCH   3  22
ATOM     22  C   LIG d   1       2.234  93.598 118.609  0.00  0.00     0.382 C 
ATOM     23  O   LIG d   1       2.975  93.384 117.619  0.00  0.00    -0.241 OA
ATOM     24  O   LIG d   1       2.735  94.004 119.675  0.00  0.00    -0.241 OA
ENDBRANCH   3  22
TORSDOF 7
ENDMDL
MODEL 8
REMARK VINA RESULT:      -4.2     11.212     13.564
REMARK  7 active torsions:
REMARK  status: ('A' for Active; 'I' for Inactive)
REMARK    1  A    between atoms: C_2  and  C_3 
REMARK    2  A    between atoms: C_3  and  O_6 
REMARK    3  A    between atoms: C_3  and  C_4 
REMARK    4  A    between atoms: C_7  and  O_6 
REMARK    5  A    between atoms: C_9  and  C_10 
REMARK    6  A    between atoms: N_15  and  C_14 
REMARK    7  A    between atoms: N_20  and  C_19 
REMARK       I    between atoms: C_22  and  N_20 
ROOT
ATOM      1  C   LIG d   1      -7.165  79.953 118.340  0.00  0.00     0.161 C 
ATOM      2  C   LIG d   1      -7.074  78.705 117.702  0.00  0.00     0.016 C 
ATOM      3  C   LIG d   1      -5.856  78.011 117.520  0.00  0.00     0.038 C 
ATOM      4  C   LIG d   1      -4.658  78.451 118.102  0.00  0.00     0.028 C 
ATOM      5  C   LIG d   1      -4.610  79.960 118.322  0.00  0.00    -0.047 C 
ATOM      6  C   LIG d   1      -5.885  80.397 119.079  0.00  0.00     0.091 C 
ENDROOT
BRANCH   1   7
ATOM      7  O   LIG d   1      -8.291  79.961 119.240  0.00  0.00    -0.368 OA
BRANCH   7   8
ATOM      8  C   LIG d   1      -9.513  80.546 118.726  0.00  0.00     0.119 C 
BRANCH   8   9
ATOM      9  C   LIG d   1      -9.116  81.727 117.819  0.00  0.00     0.028 C 
ATOM     10  C   LIG d   1      -9.392  83.090 118.475  0.00  0.00     0.006 C 
ENDBRANCH   8   9
BRANCH   8  11
ATOM     11  C   LIG d   1     -10.352  81.162 119.850  0.00  0.00     0.028 C 
ATOM     12  C   LIG d   1      -9.911  80.696 121.246  0.00  0.00     0.006 C 
ENDBRANCH   8  11
ENDBRANCH   7   8
ENDBRANCH   1   7
BRANCH   6  13
ATOM     13  N   LIG d   1      -5.959  81.870 119.261  0.00  0.00    -0.311 N 
ATOM     14  C   LIG d   1      -6.251  82.451 120.423  0.00  0.00     0.210 C 
ATOM     15  C   LIG d   1      -6.294  83.982 120.388  0.00  0.00     0.109 C 
ATOM     16  O   LIG d   1      -6.446  81.845 121.488  0.00  0.00    -0.276 OA
ATOM     17  H   LIG d   1      -5.784  82.439 118.456  0.00  0.00     0.149 HD
ENDBRANCH   6  13
BRANCH   5  18
ATOM     18  N   LIG d   1      -3.368  80.264 119.058  0.00  0.00     0.381 N 
ATOM     19  H   LIG d   1      -3.069  81.195 118.848  0.00  0.00    -0.090 HD
ATOM     20  H   LIG d   1      -2.650  79.627 118.760  0.00  0.00    -0.090 HD
ATOM     21  H   LIG d   1      -3.521  80.169 120.038  0.00  0.00    -0.090 HD
ENDBRANCH   5  18
BRANCH   3  22
ATOM     22  C   LIG d   1      -5.822  76.882 116.715  0.00  0.00     0.382 C 
ATOM     23  O   LIG d   1      -4.720  76.395 116.367  0.00  0.00    -0.241 OA
ATOM     24  O   LIG d   1      -6.878  76.372 116.297  0.00  0.00    -0.241 OA
ENDBRANCH   3  22
TORSDOF 7
ENDMDL
MODEL 9
REMARK VINA RESULT:      -4.1      3.172      5.428
REMARK  7 active torsions:
REMARK  status: ('A' for Active; 'I' for Inactive)
REMARK    1  A    between atoms: C_2  and  C_3 
REMARK    2  A    between atoms: C_3  and  O_6 
REMARK    3  A    between atoms: C_3  and  C_4 
REMARK    4  A    between atoms: C_7  and  O_6 
REMARK    5  A    between atoms: C_9  and  C_10 
REMARK    6  A    between atoms: N_15  and  C_14 
REMARK    7  A    between atoms: N_20  and  C_19 
REMARK       I    between atoms: C_22  and  N_20 
ROOT
ATOM      1  C   LIG d   1      -2.139  93.151 118.538  0.00  0.00     0.161 C 
ATOM      2  C   LIG d   1      -2.544  94.493 118.625  0.00  0.00     0.016 C 
ATOM      3  C   LIG d   1      -1.640  95.580 118.645  0.00  0.00     0.038 C 
ATOM      4  C   LIG d   1      -0.265  95.404 118.425  0.00  0.00     0.028 C 
ATOM      5  C   LIG d   1       0.243  94.027 118.837  0.00  0.00    -0.047 C 
ATOM      6  C   LIG d   1      -0.650  92.947 118.185  0.00  0.00     0.091 C 
ENDROOT
BRANCH   1   7
ATOM      7  O   LIG d   1      -2.977  92.447 117.600  0.00  0.00    -0.368 OA
BRANCH   7   8
ATOM      8  C   LIG d   1      -4.006  91.603 118.173  0.00  0.00     0.119 C 
BRANCH   8   9
ATOM      9  C   LIG d   1      -3.571  90.139 117.968  0.00  0.00     0.028 C 
ATOM     10  C   LIG d   1      -3.212  89.443 119.292  0.00  0.00     0.006 C 
ENDBRANCH   8   9
BRANCH   8  11
ATOM     11  C   LIG d   1      -5.328  91.744 117.414  0.00  0.00     0.028 C 
ATOM     12  C   LIG d   1      -6.334  92.657 118.132  0.00  0.00     0.006 C 
ENDBRANCH   8  11
ENDBRANCH   7   8
ENDBRANCH   1   7
BRANCH   6  13
ATOM     13  N   LIG d   1      -0.274  91.571 118.604  0.00  0.00    -0.311 N 
ATOM     14  C   LIG d   1       0.077  90.614 117.747  0.00  0.00     0.210 C 
ATOM     15  C   LIG d   1       0.408  89.263 118.387  0.00  0.00     0.109 C 
ATOM     16  O   LIG d   1       0.177  90.766 116.520  0.00  0.00    -0.276 OA
ATOM     17  H   LIG d   1      -0.297  91.371 119.585  0.00  0.00     0.149 HD
ENDBRANCH   6  13
BRANCH   5  18
ATOM     18  N   LIG d   1       1.657  93.932 118.426  0.00  0.00     0.381 N 
ATOM     19  H   LIG d   1       1.906  94.735 117.883  0.00  0.00    -0.090 HD
ATOM     20  H   LIG d   1       1.775  93.115 117.854  0.00  0.00    -0.090 HD
ATOM     21  H   LIG d   1       2.242  93.872 119.230  0.00  0.00    -0.090 HD
ENDBRANCH   5  18
BRANCH   3  22
ATOM     22  C   LIG d   1      -2.104  96.856 118.926  0.00  0.00     0.382 C 
ATOM     23  O   LIG d   1      -1.582  97.850 118.368  0.00  0.00    -0.241 OA
ATOM     24  O   LIG d   1      -3.009  97.028 119.765  0.00  0.00    -0.241 OA
ENDBRANCH   3  22
TORSDOF 7
ENDMDL
