MODEL 1
REMARK VINA RESULT:      -5.3      0.000      0.000
REMARK  7 active torsions:
REMARK  status: ('A' for Active; 'I' for Inactive)
REMARK    1  A    between atoms: C_2  and  C_3 
REMARK    2  A    between atoms: C_3  and  O_6 
REMARK    3  A    between atoms: C_3  and  C_4 
REMARK    4  A    between atoms: C_7  and  O_6 
REMARK    5  A    between atoms: C_9  and  C_10 
REMARK    6  A    between atoms: N_15  and  C_14 
REMARK    7  A    between atoms: N_20  and  C_19 
REMARK       I    between atoms: C_22  and  N_20 
ROOT
ATOM      1  C   LIG d   1      -4.487  93.572 118.093  0.00  0.00     0.161 C 
ATOM      2  C   LIG d   1      -5.752  94.175 117.988  0.00  0.00     0.016 C 
ATOM      3  C   LIG d   1      -6.815  93.627 117.235  0.00  0.00     0.038 C 
ATOM      4  C   LIG d   1      -6.733  92.352 116.654  0.00  0.00     0.028 C 
ATOM      5  C   LIG d   1      -5.307  91.934 116.311  0.00  0.00    -0.047 C 
ATOM      6  C   LIG d   1      -4.414  92.126 117.558  0.00  0.00     0.091 C 
ENDROOT
BRANCH   1   7
ATOM      7  O   LIG d   1      -4.033  93.624 119.460  0.00  0.00    -0.368 OA
BRANCH   7   8
ATOM      8  C   LIG d   1      -2.917  94.508 119.728  0.00  0.00     0.119 C 
BRANCH   8   9
ATOM      9  C   LIG d   1      -3.491  95.811 120.319  0.00  0.00     0.028 C 
ATOM     10  C   LIG d   1      -3.498  96.964 119.302  0.00  0.00     0.006 C 
ENDBRANCH   8   9
BRANCH   8  11
ATOM     11  C   LIG d   1      -2.214  94.926 118.433  0.00  0.00     0.028 C 
ATOM     12  C   LIG d   1      -0.716  94.584 118.432  0.00  0.00     0.006 C 
ENDBRANCH   8  11
ENDBRANCH   7   8
ENDBRANCH   1   7
BRANCH   6  13
ATOM     13  N   LIG d   1      -2.986  91.819 117.285  0.00  0.00    -0.311 N 
ATOM     14  C   LIG d   1      -2.227  91.081 118.093  0.00  0.00     0.210 C 
ATOM     15  C   LIG d   1      -0.776  90.904 117.635  0.00  0.00     0.109 C 
ATOM     16  O   LIG d   1      -2.626  90.529 119.130  0.00  0.00    -0.276 OA
ATOM     17  H   LIG d   1      -2.589  92.202 116.450  0.00  0.00     0.149 HD
ENDBRANCH   6  13
BRANCH   5  18
ATOM     18  N   LIG d   1      -5.353  90.536 115.843  0.00  0.00     0.381 N 
ATOM     19  H   LIG d   1      -4.706  90.409 115.091  0.00  0.00    -0.090 HD
ATOM     20  H   LIG d   1      -6.277  90.338 115.501  0.00  0.00    -0.090 HD
ATOM     21  H   LIG d   1      -5.129  89.918 116.592  0.00  0.00    -0.090 HD
ENDBRANCH   5  18
BRANCH   3  22
ATOM     22  C   LIG d   1      -7.963  94.374 117.022  0.00  0.00     0.382 C 
ATOM     23  O   LIG d   1      -8.798  94.010 116.159  0.00  0.00    -0.241 OA
ATOM     24  O   LIG d   1      -8.154  95.432 117.652  0.00  0.00    -0.241 OA
ENDBRANCH   3  22
TORSDOF 7
ENDMDL
MODEL 2
REMARK VINA RESULT:      -5.0      2.173      3.447
REMARK  7 active torsions:
REMARK  status: ('A' for Active; 'I' for Inactive)
REMARK    1  A    between atoms: C_2  and  C_3 
REMARK    2  A    between atoms: C_3  and  O_6 
REMARK    3  A    between atoms: C_3  and  C_4 
REMARK    4  A    between atoms: C_7  and  O_6 
REMARK    5  A    between atoms: C_9  and  C_10 
REMARK    6  A    between atoms: N_15  and  C_14 
REMARK    7  A    between atoms: N_20  and  C_19 
REMARK       I    between atoms: C_22  and  N_20 
ROOT
ATOM      1  C   LIG d   1      -5.114  94.180 118.287  0.00  0.00     0.161 C 
ATOM      2  C   LIG d   1      -5.552  95.428 118.761  0.00  0.00     0.016 C 
ATOM      3  C   LIG d   1      -6.779  96.018 118.379  0.00  0.00     0.038 C 
ATOM      4  C   LIG d   1      -7.727  95.326 117.611  0.00  0.00     0.028 C 
ATOM      5  C   LIG d   1      -7.113  94.270 116.698  0.00  0.00    -0.047 C 
ATOM      6  C   LIG d   1      -6.185  93.361 117.536  0.00  0.00     0.091 C 
ENDROOT
BRANCH   1   7
ATOM      7  O   LIG d   1      -4.567  93.409 119.376  0.00  0.00    -0.368 OA
BRANCH   7   8
ATOM      8  C   LIG d   1      -3.142  93.152 119.321  0.00  0.00     0.119 C 
BRANCH   8   9
ATOM      9  C   LIG d   1      -2.953  91.636 119.121  0.00  0.00     0.028 C 
ATOM     10  C   LIG d   1      -1.984  91.312 117.972  0.00  0.00     0.006 C 
ENDBRANCH   8   9
BRANCH   8  11
ATOM     11  C   LIG d   1      -2.466  93.472 120.658  0.00  0.00     0.028 C 
ATOM     12  C   LIG d   1      -2.216  94.976 120.853  0.00  0.00     0.006 C 
ENDBRANCH   8  11
ENDBRANCH   7   8
ENDBRANCH   1   7
BRANCH   6  13
ATOM     13  N   LIG d   1      -5.478  92.352 116.704  0.00  0.00    -0.311 N 
ATOM     14  C   LIG d   1      -5.765  91.052 116.727  0.00  0.00     0.210 C 
ATOM     15  C   LIG d   1      -4.902  90.183 115.807  0.00  0.00     0.109 C 
ATOM     16  O   LIG d   1      -6.674  90.540 117.398  0.00  0.00    -0.276 OA
ATOM     17  H   LIG d   1      -4.746  92.685 116.107  0.00  0.00     0.149 HD
ENDBRANCH   6  13
BRANCH   5  18
ATOM     18  N   LIG d   1      -8.220  93.533 116.060  0.00  0.00     0.381 N 
ATOM     19  H   LIG d   1      -7.857  92.765 115.533  0.00  0.00    -0.090 HD
ATOM     20  H   LIG d   1      -8.700  94.151 115.428  0.00  0.00    -0.090 HD
ATOM     21  H   LIG d   1      -8.853  93.200 116.754  0.00  0.00    -0.090 HD
ENDBRANCH   5  18
BRANCH   3  22
ATOM     22  C   LIG d   1      -7.051  97.330 118.735  0.00  0.00     0.382 C 
ATOM     23  O   LIG d   1      -6.955  97.687 119.934  0.00  0.00    -0.241 OA
ATOM     24  O   LIG d   1      -7.434  98.150 117.879  0.00  0.00    -0.241 OA
ENDBRANCH   3  22
TORSDOF 7
ENDMDL
MODEL 3
REMARK VINA RESULT:      -4.9     12.417     14.545
REMARK  7 active torsions:
REMARK  status: ('A' for Active; 'I' for Inactive)
REMARK    1  A    between atoms: C_2  and  C_3 
REMARK    2  A    between atoms: C_3  and  O_6 
REMARK    3  A    between atoms: C_3  and  C_4 
REMARK    4  A    between atoms: C_7  and  O_6 
REMARK    5  A    between atoms: C_9  and  C_10 
REMARK    6  A    between atoms: N_15  and  C_14 
REMARK    7  A    between atoms: N_20  and  C_19 
REMARK       I    between atoms: C_22  and  N_20 
ROOT
ATOM      1  C   LIG d   1      -6.715  79.398 118.003  0.00  0.00     0.161 C 
ATOM      2  C   LIG d   1      -8.014  78.960 118.309  0.00  0.00     0.016 C 
ATOM      3  C   LIG d   1      -9.051  79.829 118.721  0.00  0.00     0.038 C 
ATOM      4  C   LIG d   1      -8.899  81.223 118.710  0.00  0.00     0.028 C 
ATOM      5  C   LIG d   1      -7.454  81.676 118.894  0.00  0.00    -0.047 C 
ATOM      6  C   LIG d   1      -6.561  80.928 117.878  0.00  0.00     0.091 C 
ENDROOT
BRANCH   1   7
ATOM      7  O   LIG d   1      -6.250  78.748 116.804  0.00  0.00    -0.368 OA
BRANCH   7   8
ATOM      8  C   LIG d   1      -5.937  77.338 116.923  0.00  0.00     0.119 C 
BRANCH   8   9
ATOM      9  C   LIG d   1      -4.420  77.181 116.701  0.00  0.00     0.028 C 
ATOM     10  C   LIG d   1      -3.787  78.431 116.068  0.00  0.00     0.006 C 
ENDBRANCH   8   9
BRANCH   8  11
ATOM     11  C   LIG d   1      -6.597  76.524 115.806  0.00  0.00     0.028 C 
ATOM     12  C   LIG d   1      -7.864  75.790 116.273  0.00  0.00     0.006 C 
ENDBRANCH   8  11
ENDBRANCH   7   8
ENDBRANCH   1   7
BRANCH   6  13
ATOM     13  N   LIG d   1      -5.120  81.250 118.046  0.00  0.00    -0.311 N 
ATOM     14  C   LIG d   1      -4.490  82.184 117.335  0.00  0.00     0.210 C 
ATOM     15  C   LIG d   1      -2.999  82.342 117.652  0.00  0.00     0.109 C 
ATOM     16  O   LIG d   1      -5.031  82.919 116.495  0.00  0.00    -0.276 OA
ATOM     17  H   LIG d   1      -4.611  80.723 118.728  0.00  0.00     0.149 HD
ENDBRANCH   6  13
BRANCH   5  18
ATOM     18  N   LIG d   1      -7.421  83.141 118.724  0.00  0.00     0.381 N 
ATOM     19  H   LIG d   1      -8.217  83.551 119.170  0.00  0.00    -0.090 HD
ATOM     20  H   LIG d   1      -7.464  83.355 117.743  0.00  0.00    -0.090 HD
ATOM     21  H   LIG d   1      -6.583  83.511 119.116  0.00  0.00    -0.090 HD
ENDBRANCH   5  18
BRANCH   3  22
ATOM     22  C   LIG d   1     -10.245  79.300 119.189  0.00  0.00     0.382 C 
ATOM     23  O   LIG d   1     -10.886  79.898 120.087  0.00  0.00    -0.241 OA
ATOM     24  O   LIG d   1     -10.666  78.211 118.757  0.00  0.00    -0.241 OA
ENDBRANCH   3  22
TORSDOF 7
ENDMDL
MODEL 4
REMARK VINA RESULT:      -4.9      2.547      4.514
REMARK  7 active torsions:
REMARK  status: ('A' for Active; 'I' for Inactive)
REMARK    1  A    between atoms: C_2  and  C_3 
REMARK    2  A    between atoms: C_3  and  O_6 
REMARK    3  A    between atoms: C_3  and  C_4 
REMARK    4  A    between atoms: C_7  and  O_6 
REMARK    5  A    between atoms: C_9  and  C_10 
REMARK    6  A    between atoms: N_15  and  C_14 
REMARK    7  A    between atoms: N_20  and  C_19 
REMARK       I    between atoms: C_22  and  N_20 
ROOT
ATOM      1  C   LIG d   1      -4.910  93.619 118.210  0.00  0.00     0.161 C 
ATOM      2  C   LIG d   1      -4.789  92.423 117.482  0.00  0.00     0.016 C 
ATOM      3  C   LIG d   1      -5.796  91.933 116.618  0.00  0.00     0.038 C 
ATOM      4  C   LIG d   1      -6.936  92.688 116.305  0.00  0.00     0.028 C 
ATOM      5  C   LIG d   1      -7.335  93.667 117.404  0.00  0.00    -0.047 C 
ATOM      6  C   LIG d   1      -6.100  94.510 117.797  0.00  0.00     0.091 C 
ENDROOT
BRANCH   1   7
ATOM      7  O   LIG d   1      -3.678  94.362 118.137  0.00  0.00    -0.368 OA
BRANCH   7   8
ATOM      8  C   LIG d   1      -2.527  93.753 118.771  0.00  0.00     0.119 C 
BRANCH   8   9
ATOM      9  C   LIG d   1      -2.532  94.184 120.251  0.00  0.00     0.028 C 
ATOM     10  C   LIG d   1      -2.636  92.986 121.211  0.00  0.00     0.006 C 
ENDBRANCH   8   9
BRANCH   8  11
ATOM     11  C   LIG d   1      -1.218  94.299 118.194  0.00  0.00     0.028 C 
ATOM     12  C   LIG d   1      -0.060  93.293 118.287  0.00  0.00     0.006 C 
ENDBRANCH   8  11
ENDBRANCH   7   8
ENDBRANCH   1   7
BRANCH   6  13
ATOM     13  N   LIG d   1      -6.382  95.436 118.925  0.00  0.00    -0.311 N 
ATOM     14  C   LIG d   1      -6.900  96.652 118.763  0.00  0.00     0.210 C 
ATOM     15  C   LIG d   1      -7.091  97.451 120.057  0.00  0.00     0.109 C 
ATOM     16  O   LIG d   1      -7.249  97.133 117.675  0.00  0.00    -0.276 OA
ATOM     17  H   LIG d   1      -6.157  95.114 119.846  0.00  0.00     0.149 HD
ENDBRANCH   6  13
BRANCH   5  18
ATOM     18  N   LIG d   1      -8.452  94.482 116.892  0.00  0.00     0.381 N 
ATOM     19  H   LIG d   1      -9.081  94.703 117.638  0.00  0.00    -0.090 HD
ATOM     20  H   LIG d   1      -8.955  93.948 116.204  0.00  0.00    -0.090 HD
ATOM     21  H   LIG d   1      -8.103  95.320 116.482  0.00  0.00    -0.090 HD
ENDBRANCH   5  18
BRANCH   3  22
ATOM     22  C   LIG d   1      -5.684  90.657 116.087  0.00  0.00     0.382 C 
ATOM     23  O   LIG d   1      -4.553  90.192 115.805  0.00  0.00    -0.241 OA
ATOM     24  O   LIG d   1      -6.702  89.982 115.845  0.00  0.00    -0.241 OA
ENDBRANCH   3  22
TORSDOF 7
ENDMDL
MODEL 5
REMARK VINA RESULT:      -4.7     16.491     18.990
REMARK  7 active torsions:
REMARK  status: ('A' for Active; 'I' for Inactive)
REMARK    1  A    between atoms: C_2  and  C_3 
REMARK    2  A    between atoms: C_3  and  O_6 
REMARK    3  A    between atoms: C_3  and  C_4 
REMARK    4  A    between atoms: C_7  and  O_6 
REMARK    5  A    between atoms: C_9  and  C_10 
REMARK    6  A    between atoms: N_15  and  C_14 
REMARK    7  A    between atoms: N_20  and  C_19 
REMARK       I    between atoms: C_22  and  N_20 
ROOT
ATOM      1  C   LIG d   1      -4.816  74.650 118.139  0.00  0.00     0.161 C 
ATOM      2  C   LIG d   1      -5.141  73.305 117.895  0.00  0.00     0.016 C 
ATOM      3  C   LIG d   1      -6.181  72.901 117.026  0.00  0.00     0.038 C 
ATOM      4  C   LIG d   1      -6.873  73.818 116.221  0.00  0.00     0.028 C 
ATOM      5  C   LIG d   1      -6.921  75.224 116.808  0.00  0.00    -0.047 C 
ATOM      6  C   LIG d   1      -5.487  75.661 117.184  0.00  0.00     0.091 C 
ENDROOT
BRANCH   1   7
ATOM      7  O   LIG d   1      -3.385  74.819 118.121  0.00  0.00    -0.368 OA
BRANCH   7   8
ATOM      8  C   LIG d   1      -2.750  74.738 116.822  0.00  0.00     0.119 C 
BRANCH   8   9
ATOM      9  C   LIG d   1      -1.584  73.736 116.938  0.00  0.00     0.028 C 
ATOM     10  C   LIG d   1      -1.330  73.297 118.390  0.00  0.00     0.006 C 
ENDBRANCH   8   9
BRANCH   8  11
ATOM     11  C   LIG d   1      -2.102  76.071 116.434  0.00  0.00     0.028 C 
ATOM     12  C   LIG d   1      -1.717  76.923 117.654  0.00  0.00     0.006 C 
ENDBRANCH   8  11
ENDBRANCH   7   8
ENDBRANCH   1   7
BRANCH   6  13
ATOM     13  N   LIG d   1      -5.454  76.992 117.844  0.00  0.00    -0.311 N 
ATOM     14  C   LIG d   1      -5.187  78.125 117.196  0.00  0.00     0.210 C 
ATOM     15  C   LIG d   1      -5.185  79.384 118.069  0.00  0.00     0.109 C 
ATOM     16  O   LIG d   1      -4.984  78.211 115.976  0.00  0.00    -0.276 OA
ATOM     17  H   LIG d   1      -5.639  77.018 118.828  0.00  0.00     0.149 HD
ENDBRANCH   6  13
BRANCH   5  18
ATOM     18  N   LIG d   1      -7.549  76.105 115.805  0.00  0.00     0.381 N 
ATOM     19  H   LIG d   1      -8.291  75.617 115.344  0.00  0.00    -0.090 HD
ATOM     20  H   LIG d   1      -6.862  76.356 115.118  0.00  0.00    -0.090 HD
ATOM     21  H   LIG d   1      -7.905  76.924 116.246  0.00  0.00    -0.090 HD
ENDBRANCH   5  18
BRANCH   3  22
ATOM     22  C   LIG d   1      -6.564  71.569 116.987  0.00  0.00     0.382 C 
ATOM     23  O   LIG d   1      -6.771  71.008 115.884  0.00  0.00    -0.241 OA
ATOM     24  O   LIG d   1      -6.749  70.934 118.042  0.00  0.00    -0.241 OA
ENDBRANCH   3  22
TORSDOF 7
ENDMDL
MODEL 6
REMARK VINA RESULT:      -4.5     34.457     36.578
REMARK  7 active torsions:
REMARK  status: ('A' for Active; 'I' for Inactive)
REMARK    1  A    between atoms: C_2  and  C_3 
REMARK    2  A    between atoms: C_3  and  O_6 
REMARK    3  A    between atoms: C_3  and  C_4 
REMARK    4  A    between atoms: C_7  and  O_6 
REMARK    5  A    between atoms: C_9  and  C_10 
REMARK    6  A    between atoms: N_15  and  C_14 
REMARK    7  A    between atoms: N_20  and  C_19 
REMARK       I    between atoms: C_22  and  N_20 
ROOT
ATOM      1  C   LIG d   1      -0.100  56.539 118.594  0.00  0.00     0.161 C 
ATOM      2  C   LIG d   1       1.172  56.249 119.115  0.00  0.00     0.016 C 
ATOM      3  C   LIG d   1       2.369  56.791 118.593  0.00  0.00     0.038 C 
ATOM      4  C   LIG d   1       2.363  57.785 117.603  0.00  0.00     0.028 C 
ATOM      5  C   LIG d   1       1.133  57.736 116.703  0.00  0.00    -0.047 C 
ATOM      6  C   LIG d   1      -0.135  57.708 117.587  0.00  0.00     0.091 C 
ENDROOT
BRANCH   1   7
ATOM      7  O   LIG d   1      -1.026  56.779 119.672  0.00  0.00    -0.368 OA
BRANCH   7   8
ATOM      8  C   LIG d   1      -0.546  57.620 120.749  0.00  0.00     0.119 C 
BRANCH   8   9
ATOM      9  C   LIG d   1      -1.137  57.073 122.063  0.00  0.00     0.028 C 
ATOM     10  C   LIG d   1      -1.726  55.662 121.898  0.00  0.00     0.006 C 
ENDBRANCH   8   9
BRANCH   8  11
ATOM     11  C   LIG d   1      -1.088  59.048 120.625  0.00  0.00     0.028 C 
ATOM     12  C   LIG d   1      -2.621  59.097 120.536  0.00  0.00     0.006 C 
ENDBRANCH   8  11
ENDBRANCH   7   8
ENDBRANCH   1   7
BRANCH   6  13
ATOM     13  N   LIG d   1      -1.380  57.575 116.786  0.00  0.00    -0.311 N 
ATOM     14  C   LIG d   1      -2.293  58.539 116.686  0.00  0.00     0.210 C 
ATOM     15  C   LIG d   1      -3.512  58.188 115.827  0.00  0.00     0.109 C 
ATOM     16  O   LIG d   1      -2.194  59.663 117.200  0.00  0.00    -0.276 OA
ATOM     17  H   LIG d   1      -1.526  56.706 116.311  0.00  0.00     0.149 HD
ENDBRANCH   6  13
BRANCH   5  18
ATOM     18  N   LIG d   1       1.189  58.908 115.809  0.00  0.00     0.381 N 
ATOM     19  H   LIG d   1       2.108  59.302 115.823  0.00  0.00    -0.090 HD
ATOM     20  H   LIG d   1       0.544  59.603 116.143  0.00  0.00    -0.090 HD
ATOM     21  H   LIG d   1       0.948  58.640 114.880  0.00  0.00    -0.090 HD
ENDBRANCH   5  18
BRANCH   3  22
ATOM     22  C   LIG d   1       3.592  56.308 119.034  0.00  0.00     0.382 C 
ATOM     23  O   LIG d   1       4.617  57.026 118.949  0.00  0.00    -0.241 OA
ATOM     24  O   LIG d   1       3.691  55.147 119.475  0.00  0.00    -0.241 OA
ENDBRANCH   3  22
TORSDOF 7
ENDMDL
MODEL 7
REMARK VINA RESULT:      -4.4      2.243      3.583
REMARK  7 active torsions:
REMARK  status: ('A' for Active; 'I' for Inactive)
REMARK    1  A    between atoms: C_2  and  C_3 
REMARK    2  A    between atoms: C_3  and  O_6 
REMARK    3  A    between atoms: C_3  and  C_4 
REMARK    4  A    between atoms: C_7  and  O_6 
REMARK    5  A    between atoms: C_9  and  C_10 
REMARK    6  A    between atoms: N_15  and  C_14 
REMARK    7  A    between atoms: N_20  and  C_19 
REMARK       I    between atoms: C_22  and  N_20 
ROOT
ATOM      1  C   LIG d   1      -5.336  93.905 118.024  0.00  0.00     0.161 C 
ATOM      2  C   LIG d   1      -6.345  93.089 117.487  0.00  0.00     0.016 C 
ATOM      3  C   LIG d   1      -6.112  91.781 117.002  0.00  0.00     0.038 C 
ATOM      4  C   LIG d   1      -4.875  91.140 117.163  0.00  0.00     0.028 C 
ATOM      5  C   LIG d   1      -3.698  92.107 117.243  0.00  0.00    -0.047 C 
ATOM      6  C   LIG d   1      -4.003  93.182 118.310  0.00  0.00     0.091 C 
ENDROOT
BRANCH   1   7
ATOM      7  O   LIG d   1      -5.818  94.557 119.216  0.00  0.00    -0.368 OA
BRANCH   7   8
ATOM      8  C   LIG d   1      -7.140  94.168 119.665  0.00  0.00     0.119 C 
BRANCH   8   9
ATOM      9  C   LIG d   1      -8.003  95.444 119.718  0.00  0.00     0.028 C 
ATOM     10  C   LIG d   1      -7.267  96.675 119.164  0.00  0.00     0.006 C 
ENDBRANCH   8   9
BRANCH   8  11
ATOM     11  C   LIG d   1      -7.108  93.640 121.102  0.00  0.00     0.028 C 
ATOM     12  C   LIG d   1      -6.043  92.552 121.313  0.00  0.00     0.006 C 
ENDBRANCH   8  11
ENDBRANCH   7   8
ENDBRANCH   1   7
BRANCH   6  13
ATOM     13  N   LIG d   1      -2.939  94.217 118.393  0.00  0.00    -0.311 N 
ATOM     14  C   LIG d   1      -1.902  94.137 119.225  0.00  0.00     0.210 C 
ATOM     15  C   LIG d   1      -0.931  95.321 119.164  0.00  0.00     0.109 C 
ATOM     16  O   LIG d   1      -1.677  93.183 119.985  0.00  0.00    -0.276 OA
ATOM     17  H   LIG d   1      -3.026  95.010 117.789  0.00  0.00     0.149 HD
ENDBRANCH   6  13
BRANCH   5  18
ATOM     18  N   LIG d   1      -2.491  91.315 117.548  0.00  0.00     0.381 N 
ATOM     19  H   LIG d   1      -2.593  90.389 117.185  0.00  0.00    -0.090 HD
ATOM     20  H   LIG d   1      -2.386  91.254 118.545  0.00  0.00    -0.090 HD
ATOM     21  H   LIG d   1      -1.688  91.750 117.149  0.00  0.00    -0.090 HD
ENDBRANCH   5  18
BRANCH   3  22
ATOM     22  C   LIG d   1      -7.114  91.116 116.313  0.00  0.00     0.382 C 
ATOM     23  O   LIG d   1      -7.049  89.872 116.158  0.00  0.00    -0.241 OA
ATOM     24  O   LIG d   1      -8.059  91.748 115.805  0.00  0.00    -0.241 OA
ENDBRANCH   3  22
TORSDOF 7
ENDMDL
MODEL 8
REMARK VINA RESULT:      -4.4      2.135      2.687
REMARK  7 active torsions:
REMARK  status: ('A' for Active; 'I' for Inactive)
REMARK    1  A    between atoms: C_2  and  C_3 
REMARK    2  A    between atoms: C_3  and  O_6 
REMARK    3  A    between atoms: C_3  and  C_4 
REMARK    4  A    between atoms: C_7  and  O_6 
REMARK    5  A    between atoms: C_9  and  C_10 
REMARK    6  A    between atoms: N_15  and  C_14 
REMARK    7  A    between atoms: N_20  and  C_19 
REMARK       I    between atoms: C_22  and  N_20 
ROOT
ATOM      1  C   LIG d   1      -3.293  93.289 117.731  0.00  0.00     0.161 C 
ATOM      2  C   LIG d   1      -4.663  93.078 117.505  0.00  0.00     0.016 C 
ATOM      3  C   LIG d   1      -5.360  91.936 117.962  0.00  0.00     0.038 C 
ATOM      4  C   LIG d   1      -4.763  90.993 118.811  0.00  0.00     0.028 C 
ATOM      5  C   LIG d   1      -3.249  90.904 118.649  0.00  0.00    -0.047 C 
ATOM      6  C   LIG d   1      -2.650  92.325 118.751  0.00  0.00     0.091 C 
ENDROOT
BRANCH   1   7
ATOM      7  O   LIG d   1      -3.067  94.657 118.124  0.00  0.00    -0.368 OA
BRANCH   7   8
ATOM      8  C   LIG d   1      -3.461  95.006 119.474  0.00  0.00     0.119 C 
BRANCH   8   9
ATOM      9  C   LIG d   1      -4.487  96.152 119.375  0.00  0.00     0.028 C 
ATOM     10  C   LIG d   1      -5.545  96.089 120.489  0.00  0.00     0.006 C 
ENDBRANCH   8   9
BRANCH   8  11
ATOM     11  C   LIG d   1      -2.283  95.583 120.266  0.00  0.00     0.028 C 
ATOM     12  C   LIG d   1      -1.068  95.901 119.380  0.00  0.00     0.006 C 
ENDBRANCH   8  11
ENDBRANCH   7   8
ENDBRANCH   1   7
BRANCH   6  13
ATOM     13  N   LIG d   1      -1.182  92.339 118.519  0.00  0.00    -0.311 N 
ATOM     14  C   LIG d   1      -0.284  92.300 119.501  0.00  0.00     0.210 C 
ATOM     15  C   LIG d   1       1.178  92.344 119.044  0.00  0.00     0.109 C 
ATOM     16  O   LIG d   1      -0.558  92.200 120.707  0.00  0.00    -0.276 OA
ATOM     17  H   LIG d   1      -0.871  92.388 117.568  0.00  0.00     0.149 HD
ENDBRANCH   6  13
BRANCH   5  18
ATOM     18  N   LIG d   1      -2.742  89.987 119.687  0.00  0.00     0.381 N 
ATOM     19  H   LIG d   1      -3.440  89.305 119.906  0.00  0.00    -0.090 HD
ATOM     20  H   LIG d   1      -2.544  90.515 120.518  0.00  0.00    -0.090 HD
ATOM     21  H   LIG d   1      -1.914  89.534 119.367  0.00  0.00    -0.090 HD
ENDBRANCH   5  18
BRANCH   3  22
ATOM     22  C   LIG d   1      -6.660  91.708 117.535  0.00  0.00     0.382 C 
ATOM     23  O   LIG d   1      -7.307  92.627 116.978  0.00  0.00    -0.241 OA
ATOM     24  O   LIG d   1      -7.208  90.608 117.740  0.00  0.00    -0.241 OA
ENDBRANCH   3  22
TORSDOF 7
ENDMDL
MODEL 9
REMARK VINA RESULT:      -4.3     16.142     18.613
REMARK  7 active torsions:
REMARK  status: ('A' for Active; 'I' for Inactive)
REMARK    1  A    between atoms: C_2  and  C_3 
REMARK    2  A    between atoms: C_3  and  O_6 
REMARK    3  A    between atoms: C_3  and  C_4 
REMARK    4  A    between atoms: C_7  and  O_6 
REMARK    5  A    between atoms: C_9  and  C_10 
REMARK    6  A    between atoms: N_15  and  C_14 
REMARK    7  A    between atoms: N_20  and  C_19 
REMARK       I    between atoms: C_22  and  N_20 
ROOT
ATOM      1  C   LIG d   1      -4.136  74.867 116.533  0.00  0.00     0.161 C 
ATOM      2  C   LIG d   1      -3.612  76.170 116.484  0.00  0.00     0.016 C 
ATOM      3  C   LIG d   1      -4.411  77.322 116.302  0.00  0.00     0.038 C 
ATOM      4  C   LIG d   1      -5.812  77.262 116.309  0.00  0.00     0.028 C 
ATOM      5  C   LIG d   1      -6.363  75.916 115.850  0.00  0.00    -0.047 C 
ATOM      6  C   LIG d   1      -5.672  74.791 116.654  0.00  0.00     0.091 C 
ENDROOT
BRANCH   1   7
ATOM      7  O   LIG d   1      -3.512  74.130 117.604  0.00  0.00    -0.368 OA
BRANCH   7   8
ATOM      8  C   LIG d   1      -2.255  74.658 118.093  0.00  0.00     0.119 C 
BRANCH   8   9
ATOM      9  C   LIG d   1      -1.181  73.574 117.875  0.00  0.00     0.028 C 
ATOM     10  C   LIG d   1      -1.053  72.625 119.079  0.00  0.00     0.006 C 
ENDBRANCH   8   9
BRANCH   8  11
ATOM     11  C   LIG d   1      -2.298  74.887 119.607  0.00  0.00     0.028 C 
ATOM     12  C   LIG d   1      -3.690  75.304 120.107  0.00  0.00     0.006 C 
ENDBRANCH   8  11
ENDBRANCH   7   8
ENDBRANCH   1   7
BRANCH   6  13
ATOM     13  N   LIG d   1      -6.092  73.437 116.208  0.00  0.00    -0.311 N 
ATOM     14  C   LIG d   1      -6.294  72.420 117.045  0.00  0.00     0.210 C 
ATOM     15  C   LIG d   1      -6.703  71.104 116.375  0.00  0.00     0.109 C 
ATOM     16  O   LIG d   1      -6.205  72.491 118.279  0.00  0.00    -0.276 OA
ATOM     17  H   LIG d   1      -6.217  73.298 115.225  0.00  0.00     0.149 HD
ENDBRANCH   6  13
BRANCH   5  18
ATOM     18  N   LIG d   1      -7.826  75.946 116.037  0.00  0.00     0.381 N 
ATOM     19  H   LIG d   1      -8.192  76.815 115.703  0.00  0.00    -0.090 HD
ATOM     20  H   LIG d   1      -8.030  75.874 117.018  0.00  0.00    -0.090 HD
ATOM     21  H   LIG d   1      -8.248  75.188 115.546  0.00  0.00    -0.090 HD
ENDBRANCH   5  18
BRANCH   3  22
ATOM     22  C   LIG d   1      -3.805  78.548 116.072  0.00  0.00     0.382 C 
ATOM     23  O   LIG d   1      -2.579  78.603 115.811  0.00  0.00    -0.241 OA
ATOM     24  O   LIG d   1      -4.460  79.604 116.165  0.00  0.00    -0.241 OA
ENDBRANCH   3  22
TORSDOF 7
ENDMDL
