MODEL 1
REMARK VINA RESULT:      -5.2      0.000      0.000
REMARK  7 active torsions:
REMARK  status: ('A' for Active; 'I' for Inactive)
REMARK    1  A    between atoms: C_2  and  C_3 
REMARK    2  A    between atoms: C_3  and  O_6 
REMARK    3  A    between atoms: C_3  and  C_4 
REMARK    4  A    between atoms: C_7  and  O_6 
REMARK    5  A    between atoms: C_9  and  C_10 
REMARK    6  A    between atoms: N_15  and  C_14 
REMARK    7  A    between atoms: N_20  and  C_19 
REMARK       I    between atoms: C_22  and  N_20 
ROOT
ATOM      1  C   LIG d   1      -7.989  76.867 119.122  0.00  0.00     0.161 C 
ATOM      2  C   LIG d   1      -9.326  76.475 119.303  0.00  0.00     0.016 C 
ATOM      3  C   LIG d   1     -10.424  77.346 119.116  0.00  0.00     0.038 C 
ATOM      4  C   LIG d   1     -10.266  78.635 118.585  0.00  0.00     0.028 C 
ATOM      5  C   LIG d   1      -8.896  79.242 118.866  0.00  0.00    -0.047 C 
ATOM      6  C   LIG d   1      -7.804  78.237 118.436  0.00  0.00     0.091 C 
ENDROOT
BRANCH   1   7
ATOM      7  O   LIG d   1      -7.273  75.845 118.402  0.00  0.00    -0.368 OA
BRANCH   7   8
ATOM      8  C   LIG d   1      -8.022  75.142 117.380  0.00  0.00     0.119 C 
BRANCH   8   9
ATOM      9  C   LIG d   1      -7.728  73.638 117.543  0.00  0.00     0.028 C 
ATOM     10  C   LIG d   1      -8.180  72.816 116.324  0.00  0.00     0.006 C 
ENDBRANCH   8   9
BRANCH   8  11
ATOM     11  C   LIG d   1      -7.526  75.503 115.977  0.00  0.00     0.028 C 
ATOM     12  C   LIG d   1      -6.093  76.059 115.976  0.00  0.00     0.006 C 
ENDBRANCH   8  11
ENDBRANCH   7   8
ENDBRANCH   1   7
BRANCH   6  13
ATOM     13  N   LIG d   1      -6.434  78.718 118.754  0.00  0.00    -0.311 N 
ATOM     14  C   LIG d   1      -5.672  79.386 117.890  0.00  0.00     0.210 C 
ATOM     15  C   LIG d   1      -4.285  79.772 118.414  0.00  0.00     0.109 C 
ATOM     16  O   LIG d   1      -6.026  79.724 116.750  0.00  0.00    -0.276 OA
ATOM     17  H   LIG d   1      -6.080  78.514 119.668  0.00  0.00     0.149 HD
ENDBRANCH   6  13
BRANCH   5  18
ATOM     18  N   LIG d   1      -8.820  80.525 118.141  0.00  0.00     0.381 N 
ATOM     19  H   LIG d   1      -9.632  80.638 117.567  0.00  0.00    -0.090 HD
ATOM     20  H   LIG d   1      -8.012  80.513 117.544  0.00  0.00    -0.090 HD
ATOM     21  H   LIG d   1      -8.754  81.279 118.788  0.00  0.00    -0.090 HD
ENDBRANCH   5  18
BRANCH   3  22
ATOM     22  C   LIG d   1     -11.694  76.942 119.499  0.00  0.00     0.382 C 
ATOM     23  O   LIG d   1     -11.963  76.790 120.715  0.00  0.00    -0.241 OA
ATOM     24  O   LIG d   1     -12.561  76.685 118.642  0.00  0.00    -0.241 OA
ENDBRANCH   3  22
TORSDOF 7
ENDMDL
MODEL 2
REMARK VINA RESULT:      -5.2      1.995      2.964
REMARK  7 active torsions:
REMARK  status: ('A' for Active; 'I' for Inactive)
REMARK    1  A    between atoms: C_2  and  C_3 
REMARK    2  A    between atoms: C_3  and  O_6 
REMARK    3  A    between atoms: C_3  and  C_4 
REMARK    4  A    between atoms: C_7  and  O_6 
REMARK    5  A    between atoms: C_9  and  C_10 
REMARK    6  A    between atoms: N_15  and  C_14 
REMARK    7  A    between atoms: N_20  and  C_19 
REMARK       I    between atoms: C_22  and  N_20 
ROOT
ATOM      1  C   LIG d   1      -7.028  78.921 117.867  0.00  0.00     0.161 C 
ATOM      2  C   LIG d   1      -8.371  78.653 118.178  0.00  0.00     0.016 C 
ATOM      3  C   LIG d   1      -9.273  79.637 118.645  0.00  0.00     0.038 C 
ATOM      4  C   LIG d   1      -8.929  80.997 118.688  0.00  0.00     0.028 C 
ATOM      5  C   LIG d   1      -7.434  81.238 118.864  0.00  0.00    -0.047 C 
ATOM      6  C   LIG d   1      -6.665  80.419 117.802  0.00  0.00     0.091 C 
ENDROOT
BRANCH   1   7
ATOM      7  O   LIG d   1      -6.672  78.265 116.633  0.00  0.00    -0.368 OA
BRANCH   7   8
ATOM      8  C   LIG d   1      -6.209  76.897 116.749  0.00  0.00     0.119 C 
BRANCH   8   9
ATOM      9  C   LIG d   1      -4.748  76.861 116.260  0.00  0.00     0.028 C 
ATOM     10  C   LIG d   1      -3.744  77.155 117.387  0.00  0.00     0.006 C 
ENDBRANCH   8   9
BRANCH   8  11
ATOM     11  C   LIG d   1      -6.976  75.967 115.805  0.00  0.00     0.028 C 
ATOM     12  C   LIG d   1      -8.267  75.416 116.431  0.00  0.00     0.006 C 
ENDBRANCH   8  11
ENDBRANCH   7   8
ENDBRANCH   1   7
BRANCH   6  13
ATOM     13  N   LIG d   1      -5.191  80.532 117.956  0.00  0.00    -0.311 N 
ATOM     14  C   LIG d   1      -4.418  81.225 117.122  0.00  0.00     0.210 C 
ATOM     15  C   LIG d   1      -2.922  81.195 117.452  0.00  0.00     0.109 C 
ATOM     16  O   LIG d   1      -4.832  81.888 116.159  0.00  0.00    -0.276 OA
ATOM     17  H   LIG d   1      -4.775  80.051 118.729  0.00  0.00     0.149 HD
ENDBRANCH   6  13
BRANCH   5  18
ATOM     18  N   LIG d   1      -7.201  82.691 118.753  0.00  0.00     0.381 N 
ATOM     19  H   LIG d   1      -6.455  82.867 118.110  0.00  0.00    -0.090 HD
ATOM     20  H   LIG d   1      -6.931  83.046 119.654  0.00  0.00    -0.090 HD
ATOM     21  H   LIG d   1      -8.031  83.147 118.444  0.00  0.00    -0.090 HD
ENDBRANCH   5  18
BRANCH   3  22
ATOM     22  C   LIG d   1     -10.522  79.259 119.113  0.00  0.00     0.382 C 
ATOM     23  O   LIG d   1     -11.103  79.953 119.981  0.00  0.00    -0.241 OA
ATOM     24  O   LIG d   1     -11.055  78.208 118.710  0.00  0.00    -0.241 OA
ENDBRANCH   3  22
TORSDOF 7
ENDMDL
MODEL 3
REMARK VINA RESULT:      -5.1      1.026      2.022
REMARK  7 active torsions:
REMARK  status: ('A' for Active; 'I' for Inactive)
REMARK    1  A    between atoms: C_2  and  C_3 
REMARK    2  A    between atoms: C_3  and  O_6 
REMARK    3  A    between atoms: C_3  and  C_4 
REMARK    4  A    between atoms: C_7  and  O_6 
REMARK    5  A    between atoms: C_9  and  C_10 
REMARK    6  A    between atoms: N_15  and  C_14 
REMARK    7  A    between atoms: N_20  and  C_19 
REMARK       I    between atoms: C_22  and  N_20 
ROOT
ATOM      1  C   LIG d   1      -8.179  77.352 118.060  0.00  0.00     0.161 C 
ATOM      2  C   LIG d   1      -9.442  76.836 118.394  0.00  0.00     0.016 C 
ATOM      3  C   LIG d   1     -10.499  77.629 118.895  0.00  0.00     0.038 C 
ATOM      4  C   LIG d   1     -10.413  79.028 118.955  0.00  0.00     0.028 C 
ATOM      5  C   LIG d   1      -8.985  79.541 119.105  0.00  0.00    -0.047 C 
ATOM      6  C   LIG d   1      -8.102  78.893 118.014  0.00  0.00     0.091 C 
ENDROOT
BRANCH   1   7
ATOM      7  O   LIG d   1      -7.736  76.791 116.809  0.00  0.00    -0.368 OA
BRANCH   7   8
ATOM      8  C   LIG d   1      -6.744  75.739 116.898  0.00  0.00     0.119 C 
BRANCH   8   9
ATOM      9  C   LIG d   1      -5.534  76.170 116.046  0.00  0.00     0.028 C 
ATOM     10  C   LIG d   1      -4.383  76.725 116.902  0.00  0.00     0.006 C 
ENDBRANCH   8   9
BRANCH   8  11
ATOM     11  C   LIG d   1      -7.248  74.442 116.258  0.00  0.00     0.028 C 
ATOM     12  C   LIG d   1      -7.711  73.406 117.295  0.00  0.00     0.006 C 
ENDBRANCH   8  11
ENDBRANCH   7   8
ENDBRANCH   1   7
BRANCH   6  13
ATOM     13  N   LIG d   1      -6.671  79.276 118.141  0.00  0.00    -0.311 N 
ATOM     14  C   LIG d   1      -6.136  80.328 117.524  0.00  0.00     0.210 C 
ATOM     15  C   LIG d   1      -4.639  80.532 117.774  0.00  0.00     0.109 C 
ATOM     16  O   LIG d   1      -6.767  81.129 116.818  0.00  0.00    -0.276 OA
ATOM     17  H   LIG d   1      -6.094  78.697 118.720  0.00  0.00     0.149 HD
ENDBRANCH   6  13
BRANCH   5  18
ATOM     18  N   LIG d   1      -9.028  81.012 119.016  0.00  0.00     0.381 N 
ATOM     19  H   LIG d   1      -9.189  81.289 118.068  0.00  0.00    -0.090 HD
ATOM     20  H   LIG d   1      -8.140  81.382 119.306  0.00  0.00    -0.090 HD
ATOM     21  H   LIG d   1      -9.751  81.368 119.601  0.00  0.00    -0.090 HD
ENDBRANCH   5  18
BRANCH   3  22
ATOM     22  C   LIG d   1     -11.646  77.018 119.381  0.00  0.00     0.382 C 
ATOM     23  O   LIG d   1     -12.541  76.643 118.586  0.00  0.00    -0.241 OA
ATOM     24  O   LIG d   1     -11.816  76.878 120.607  0.00  0.00    -0.241 OA
ENDBRANCH   3  22
TORSDOF 7
ENDMDL
MODEL 4
REMARK VINA RESULT:      -5.0      2.182      3.089
REMARK  7 active torsions:
REMARK  status: ('A' for Active; 'I' for Inactive)
REMARK    1  A    between atoms: C_2  and  C_3 
REMARK    2  A    between atoms: C_3  and  O_6 
REMARK    3  A    between atoms: C_3  and  C_4 
REMARK    4  A    between atoms: C_7  and  O_6 
REMARK    5  A    between atoms: C_9  and  C_10 
REMARK    6  A    between atoms: N_15  and  C_14 
REMARK    7  A    between atoms: N_20  and  C_19 
REMARK       I    between atoms: C_22  and  N_20 
ROOT
ATOM      1  C   LIG d   1      -6.914  79.297 117.854  0.00  0.00     0.161 C 
ATOM      2  C   LIG d   1      -8.239  78.926 118.134  0.00  0.00     0.016 C 
ATOM      3  C   LIG d   1      -9.197  79.813 118.678  0.00  0.00     0.038 C 
ATOM      4  C   LIG d   1      -8.934  81.181 118.837  0.00  0.00     0.028 C 
ATOM      5  C   LIG d   1      -7.456  81.494 119.041  0.00  0.00    -0.047 C 
ATOM      6  C   LIG d   1      -6.640  80.814 117.917  0.00  0.00     0.091 C 
ENDROOT
BRANCH   1   7
ATOM      7  O   LIG d   1      -6.520  78.770 116.571  0.00  0.00    -0.368 OA
BRANCH   7   8
ATOM      8  C   LIG d   1      -5.511  77.731 116.592  0.00  0.00     0.119 C 
BRANCH   8   9
ATOM      9  C   LIG d   1      -6.151  76.453 116.016  0.00  0.00     0.028 C 
ATOM     10  C   LIG d   1      -6.881  75.628 117.089  0.00  0.00     0.006 C 
ENDBRANCH   8   9
BRANCH   8  11
ATOM     11  C   LIG d   1      -5.109  77.373 118.026  0.00  0.00     0.028 C 
ATOM     12  C   LIG d   1      -3.612  77.589 118.297  0.00  0.00     0.006 C 
ENDBRANCH   8  11
ENDBRANCH   7   8
ENDBRANCH   1   7
BRANCH   6  13
ATOM     13  N   LIG d   1      -5.175  81.000 118.089  0.00  0.00    -0.311 N 
ATOM     14  C   LIG d   1      -4.379  81.472 117.131  0.00  0.00     0.210 C 
ATOM     15  C   LIG d   1      -2.898  81.566 117.509  0.00  0.00     0.109 C 
ATOM     16  O   LIG d   1      -4.764  81.852 116.015  0.00  0.00    -0.276 OA
ATOM     17  H   LIG d   1      -4.784  80.746 118.974  0.00  0.00     0.149 HD
ENDBRANCH   6  13
BRANCH   5  18
ATOM     18  N   LIG d   1      -7.308  82.962 119.055  0.00  0.00     0.381 N 
ATOM     19  H   LIG d   1      -7.348  83.315 118.120  0.00  0.00    -0.090 HD
ATOM     20  H   LIG d   1      -6.411  83.195 119.442  0.00  0.00    -0.090 HD
ATOM     21  H   LIG d   1      -8.032  83.372 119.603  0.00  0.00    -0.090 HD
ENDBRANCH   5  18
BRANCH   3  22
ATOM     22  C   LIG d   1     -10.422  79.323 119.105  0.00  0.00     0.382 C 
ATOM     23  O   LIG d   1     -10.928  78.322 118.543  0.00  0.00    -0.241 OA
ATOM     24  O   LIG d   1     -11.049  79.897 120.016  0.00  0.00    -0.241 OA
ENDBRANCH   3  22
TORSDOF 7
ENDMDL
MODEL 5
REMARK VINA RESULT:      -5.0     13.718     16.490
REMARK  7 active torsions:
REMARK  status: ('A' for Active; 'I' for Inactive)
REMARK    1  A    between atoms: C_2  and  C_3 
REMARK    2  A    between atoms: C_3  and  O_6 
REMARK    3  A    between atoms: C_3  and  C_4 
REMARK    4  A    between atoms: C_7  and  O_6 
REMARK    5  A    between atoms: C_9  and  C_10 
REMARK    6  A    between atoms: N_15  and  C_14 
REMARK    7  A    between atoms: N_20  and  C_19 
REMARK       I    between atoms: C_22  and  N_20 
ROOT
ATOM      1  C   LIG d   1      -5.529  92.853 118.668  0.00  0.00     0.161 C 
ATOM      2  C   LIG d   1      -6.317  91.955 117.929  0.00  0.00     0.016 C 
ATOM      3  C   LIG d   1      -5.778  91.002 117.034  0.00  0.00     0.038 C 
ATOM      4  C   LIG d   1      -4.397  90.780 116.930  0.00  0.00     0.028 C 
ATOM      5  C   LIG d   1      -3.559  92.005 117.279  0.00  0.00    -0.047 C 
ATOM      6  C   LIG d   1      -4.016  92.551 118.651  0.00  0.00     0.091 C 
ENDROOT
BRANCH   1   7
ATOM      7  O   LIG d   1      -6.011  92.924 120.024  0.00  0.00    -0.368 OA
BRANCH   7   8
ATOM      8  C   LIG d   1      -6.575  94.194 120.434  0.00  0.00     0.119 C 
BRANCH   8   9
ATOM      9  C   LIG d   1      -8.050  93.945 120.807  0.00  0.00     0.028 C 
ATOM     10  C   LIG d   1      -8.978  93.972 119.582  0.00  0.00     0.006 C 
ENDBRANCH   8   9
BRANCH   8  11
ATOM     11  C   LIG d   1      -6.614  95.189 119.270  0.00  0.00     0.028 C 
ATOM     12  C   LIG d   1      -5.861  96.493 119.576  0.00  0.00     0.006 C 
ENDBRANCH   8  11
ENDBRANCH   7   8
ENDBRANCH   1   7
BRANCH   6  13
ATOM     13  N   LIG d   1      -3.304  93.800 119.029  0.00  0.00    -0.311 N 
ATOM     14  C   LIG d   1      -2.197  93.817 119.770  0.00  0.00     0.210 C 
ATOM     15  C   LIG d   1      -1.635  95.212 120.061  0.00  0.00     0.109 C 
ATOM     16  O   LIG d   1      -1.609  92.808 120.186  0.00  0.00    -0.276 OA
ATOM     17  H   LIG d   1      -3.695  94.664 118.707  0.00  0.00     0.149 HD
ENDBRANCH   6  13
BRANCH   5  18
ATOM     18  N   LIG d   1      -2.142  91.595 117.263  0.00  0.00     0.381 N 
ATOM     19  H   LIG d   1      -1.627  92.182 116.637  0.00  0.00    -0.090 HD
ATOM     20  H   LIG d   1      -2.081  90.649 116.930  0.00  0.00    -0.090 HD
ATOM     21  H   LIG d   1      -1.758  91.657 118.180  0.00  0.00    -0.090 HD
ENDBRANCH   5  18
BRANCH   3  22
ATOM     22  C   LIG d   1      -6.625  90.286 116.201  0.00  0.00     0.382 C 
ATOM     23  O   LIG d   1      -7.698  90.801 115.806  0.00  0.00    -0.241 OA
ATOM     24  O   LIG d   1      -6.350  89.115 115.877  0.00  0.00    -0.241 OA
ENDBRANCH   3  22
TORSDOF 7
ENDMDL
MODEL 6
REMARK VINA RESULT:      -4.8      2.170      5.305
REMARK  7 active torsions:
REMARK  status: ('A' for Active; 'I' for Inactive)
REMARK    1  A    between atoms: C_2  and  C_3 
REMARK    2  A    between atoms: C_3  and  O_6 
REMARK    3  A    between atoms: C_3  and  C_4 
REMARK    4  A    between atoms: C_7  and  O_6 
REMARK    5  A    between atoms: C_9  and  C_10 
REMARK    6  A    between atoms: N_15  and  C_14 
REMARK    7  A    between atoms: N_20  and  C_19 
REMARK       I    between atoms: C_22  and  N_20 
ROOT
ATOM      1  C   LIG d   1      -6.961  78.171 117.682  0.00  0.00     0.161 C 
ATOM      2  C   LIG d   1      -6.590  76.987 117.022  0.00  0.00     0.016 C 
ATOM      3  C   LIG d   1      -7.465  75.892 116.837  0.00  0.00     0.038 C 
ATOM      4  C   LIG d   1      -8.826  75.966 117.169  0.00  0.00     0.028 C 
ATOM      5  C   LIG d   1      -9.122  76.952 118.295  0.00  0.00    -0.047 C 
ATOM      6  C   LIG d   1      -8.474  78.313 117.953  0.00  0.00     0.091 C 
ENDROOT
BRANCH   1   7
ATOM      7  O   LIG d   1      -6.474  79.312 116.950  0.00  0.00    -0.368 OA
BRANCH   7   8
ATOM      8  C   LIG d   1      -5.361  80.024 117.545  0.00  0.00     0.119 C 
BRANCH   8   9
ATOM      9  C   LIG d   1      -5.822  81.471 117.805  0.00  0.00     0.028 C 
ATOM     10  C   LIG d   1      -6.008  81.767 119.303  0.00  0.00     0.006 C 
ENDBRANCH   8   9
BRANCH   8  11
ATOM     11  C   LIG d   1      -4.188  80.141 116.567  0.00  0.00     0.028 C 
ATOM     12  C   LIG d   1      -3.632  81.571 116.473  0.00  0.00     0.006 C 
ENDBRANCH   8  11
ENDBRANCH   7   8
ENDBRANCH   1   7
BRANCH   6  13
ATOM     13  N   LIG d   1      -8.644  79.311 119.041  0.00  0.00    -0.311 N 
ATOM     14  C   LIG d   1      -9.649  80.184 119.085  0.00  0.00     0.210 C 
ATOM     15  C   LIG d   1      -9.625  81.138 120.283  0.00  0.00     0.109 C 
ATOM     16  O   LIG d   1     -10.575  80.237 118.262  0.00  0.00    -0.276 OA
ATOM     17  H   LIG d   1      -7.954  79.317 119.767  0.00  0.00     0.149 HD
ENDBRANCH   6  13
BRANCH   5  18
ATOM     18  N   LIG d   1     -10.588  77.031 118.444  0.00  0.00     0.381 N 
ATOM     19  H   LIG d   1     -10.861  77.980 118.604  0.00  0.00    -0.090 HD
ATOM     20  H   LIG d   1     -10.863  76.484 119.240  0.00  0.00    -0.090 HD
ATOM     21  H   LIG d   1     -11.033  76.684 117.623  0.00  0.00    -0.090 HD
ENDBRANCH   5  18
BRANCH   3  22
ATOM     22  C   LIG d   1      -6.970  74.692 116.351  0.00  0.00     0.382 C 
ATOM     23  O   LIG d   1      -5.830  74.649 115.830  0.00  0.00    -0.241 OA
ATOM     24  O   LIG d   1      -7.668  73.660 116.386  0.00  0.00    -0.241 OA
ENDBRANCH   3  22
TORSDOF 7
ENDMDL
MODEL 7
REMARK VINA RESULT:      -4.8     13.546     16.018
REMARK  7 active torsions:
REMARK  status: ('A' for Active; 'I' for Inactive)
REMARK    1  A    between atoms: C_2  and  C_3 
REMARK    2  A    between atoms: C_3  and  O_6 
REMARK    3  A    between atoms: C_3  and  C_4 
REMARK    4  A    between atoms: C_7  and  O_6 
REMARK    5  A    between atoms: C_9  and  C_10 
REMARK    6  A    between atoms: N_15  and  C_14 
REMARK    7  A    between atoms: N_20  and  C_19 
REMARK       I    between atoms: C_22  and  N_20 
ROOT
ATOM      1  C   LIG d   1      -5.072  92.461 118.905  0.00  0.00     0.161 C 
ATOM      2  C   LIG d   1      -6.108  91.773 118.252  0.00  0.00     0.016 C 
ATOM      3  C   LIG d   1      -5.888  90.811 117.240  0.00  0.00     0.038 C 
ATOM      4  C   LIG d   1      -4.600  90.359 116.914  0.00  0.00     0.028 C 
ATOM      5  C   LIG d   1      -3.509  91.389 117.190  0.00  0.00    -0.047 C 
ATOM      6  C   LIG d   1      -3.658  91.901 118.641  0.00  0.00     0.091 C 
ENDROOT
BRANCH   1   7
ATOM      7  O   LIG d   1      -5.334  92.511 120.321  0.00  0.00    -0.368 OA
BRANCH   7   8
ATOM      8  C   LIG d   1      -6.235  93.556 120.765  0.00  0.00     0.119 C 
BRANCH   8   9
ATOM      9  C   LIG d   1      -5.451  94.462 121.734  0.00  0.00     0.028 C 
ATOM     10  C   LIG d   1      -4.528  95.449 120.998  0.00  0.00     0.006 C 
ENDBRANCH   8   9
BRANCH   8  11
ATOM     11  C   LIG d   1      -7.390  92.982 121.591  0.00  0.00     0.028 C 
ATOM     12  C   LIG d   1      -7.101  91.566 122.116  0.00  0.00     0.006 C 
ENDBRANCH   8  11
ENDBRANCH   7   8
ENDBRANCH   1   7
BRANCH   6  13
ATOM     13  N   LIG d   1      -2.682  92.973 118.967  0.00  0.00    -0.311 N 
ATOM     14  C   LIG d   1      -1.832  92.904 119.990  0.00  0.00     0.210 C 
ATOM     15  C   LIG d   1      -0.925  94.127 120.160  0.00  0.00     0.109 C 
ATOM     16  O   LIG d   1      -1.721  91.933 120.753  0.00  0.00    -0.276 OA
ATOM     17  H   LIG d   1      -2.682  93.784 118.379  0.00  0.00     0.149 HD
ENDBRANCH   6  13
BRANCH   5  18
ATOM     18  N   LIG d   1      -2.209  90.739 116.937  0.00  0.00     0.381 N 
ATOM     19  H   LIG d   1      -2.218  89.809 117.304  0.00  0.00    -0.090 HD
ATOM     20  H   LIG d   1      -1.489  91.258 117.408  0.00  0.00    -0.090 HD
ATOM     21  H   LIG d   1      -2.025  90.716 115.958  0.00  0.00    -0.090 HD
ENDBRANCH   5  18
BRANCH   3  22
ATOM     22  C   LIG d   1      -6.961  90.320 116.513  0.00  0.00     0.382 C 
ATOM     23  O   LIG d   1      -7.167  89.083 116.456  0.00  0.00    -0.241 OA
ATOM     24  O   LIG d   1      -7.701  91.094 115.876  0.00  0.00    -0.241 OA
ENDBRANCH   3  22
TORSDOF 7
ENDMDL
MODEL 8
REMARK VINA RESULT:      -4.8      2.665      4.669
REMARK  7 active torsions:
REMARK  status: ('A' for Active; 'I' for Inactive)
REMARK    1  A    between atoms: C_2  and  C_3 
REMARK    2  A    between atoms: C_3  and  O_6 
REMARK    3  A    between atoms: C_3  and  C_4 
REMARK    4  A    between atoms: C_7  and  O_6 
REMARK    5  A    between atoms: C_9  and  C_10 
REMARK    6  A    between atoms: N_15  and  C_14 
REMARK    7  A    between atoms: N_20  and  C_19 
REMARK       I    between atoms: C_22  and  N_20 
ROOT
ATOM      1  C   LIG d   1      -6.108  77.567 117.088  0.00  0.00     0.161 C 
ATOM      2  C   LIG d   1      -6.181  76.257 116.585  0.00  0.00     0.016 C 
ATOM      3  C   LIG d   1      -7.350  75.464 116.647  0.00  0.00     0.038 C 
ATOM      4  C   LIG d   1      -8.577  75.985 117.083  0.00  0.00     0.028 C 
ATOM      5  C   LIG d   1      -8.429  77.140 118.067  0.00  0.00    -0.047 C 
ATOM      6  C   LIG d   1      -7.467  78.191 117.467  0.00  0.00     0.091 C 
ENDROOT
BRANCH   1   7
ATOM      7  O   LIG d   1      -5.413  78.412 116.150  0.00  0.00    -0.368 OA
BRANCH   7   8
ATOM      8  C   LIG d   1      -4.050  78.762 116.496  0.00  0.00     0.119 C 
BRANCH   8   9
ATOM      9  C   LIG d   1      -3.807  78.300 117.946  0.00  0.00     0.028 C 
ATOM     10  C   LIG d   1      -2.697  77.241 118.046  0.00  0.00     0.006 C 
ENDBRANCH   8   9
BRANCH   8  11
ATOM     11  C   LIG d   1      -3.852  80.280 116.515  0.00  0.00     0.028 C 
ATOM     12  C   LIG d   1      -3.618  80.833 117.930  0.00  0.00     0.006 C 
ENDBRANCH   8  11
ENDBRANCH   7   8
ENDBRANCH   1   7
BRANCH   6  13
ATOM     13  N   LIG d   1      -7.201  79.315 118.401  0.00  0.00    -0.311 N 
ATOM     14  C   LIG d   1      -7.361  80.596 118.071  0.00  0.00     0.210 C 
ATOM     15  C   LIG d   1      -7.011  81.597 119.177  0.00  0.00     0.109 C 
ATOM     16  O   LIG d   1      -7.791  80.997 116.979  0.00  0.00    -0.276 OA
ATOM     17  H   LIG d   1      -6.879  79.079 119.319  0.00  0.00     0.149 HD
ENDBRANCH   6  13
BRANCH   5  18
ATOM     18  N   LIG d   1      -9.778  77.676 118.332  0.00  0.00     0.381 N 
ATOM     19  H   LIG d   1      -9.726  78.399 119.022  0.00  0.00    -0.090 HD
ATOM     20  H   LIG d   1     -10.356  76.937 118.693  0.00  0.00    -0.090 HD
ATOM     21  H   LIG d   1     -10.173  78.036 117.492  0.00  0.00    -0.090 HD
ENDBRANCH   5  18
BRANCH   3  22
ATOM     22  C   LIG d   1      -7.288  74.121 116.307  0.00  0.00     0.382 C 
ATOM     23  O   LIG d   1      -6.239  73.649 115.807  0.00  0.00    -0.241 OA
ATOM     24  O   LIG d   1      -8.284  73.386 116.451  0.00  0.00    -0.241 OA
ENDBRANCH   3  22
TORSDOF 7
ENDMDL
MODEL 9
REMARK VINA RESULT:      -4.7      4.402      6.598
REMARK  7 active torsions:
REMARK  status: ('A' for Active; 'I' for Inactive)
REMARK    1  A    between atoms: C_2  and  C_3 
REMARK    2  A    between atoms: C_3  and  O_6 
REMARK    3  A    between atoms: C_3  and  C_4 
REMARK    4  A    between atoms: C_7  and  O_6 
REMARK    5  A    between atoms: C_9  and  C_10 
REMARK    6  A    between atoms: N_15  and  C_14 
REMARK    7  A    between atoms: N_20  and  C_19 
REMARK       I    between atoms: C_22  and  N_20 
ROOT
ATOM      1  C   LIG d   1      -9.587  81.703 120.074  0.00  0.00     0.161 C 
ATOM      2  C   LIG d   1      -9.495  83.010 120.582  0.00  0.00     0.016 C 
ATOM      3  C   LIG d   1     -10.299  83.491 121.641  0.00  0.00     0.038 C 
ATOM      4  C   LIG d   1     -11.150  82.646 122.369  0.00  0.00     0.028 C 
ATOM      5  C   LIG d   1     -11.645  81.447 121.566  0.00  0.00    -0.047 C 
ATOM      6  C   LIG d   1     -10.431  80.735 120.928  0.00  0.00     0.091 C 
ENDROOT
BRANCH   1   7
ATOM      7  O   LIG d   1      -8.266  81.166 119.865  0.00  0.00    -0.368 OA
BRANCH   7   8
ATOM      8  C   LIG d   1      -7.768  81.209 118.505  0.00  0.00     0.119 C 
BRANCH   8   9
ATOM      9  C   LIG d   1      -7.785  79.768 117.960  0.00  0.00     0.028 C 
ATOM     10  C   LIG d   1      -7.441  78.728 119.039  0.00  0.00     0.006 C 
ENDBRANCH   8   9
BRANCH   8  11
ATOM     11  C   LIG d   1      -6.299  81.641 118.463  0.00  0.00     0.028 C 
ATOM     12  C   LIG d   1      -5.738  81.982 119.853  0.00  0.00     0.006 C 
ENDBRANCH   8  11
ENDBRANCH   7   8
ENDBRANCH   1   7
BRANCH   6  13
ATOM     13  N   LIG d   1     -10.834  79.600 120.057  0.00  0.00    -0.311 N 
ATOM     14  C   LIG d   1     -10.879  78.336 120.474  0.00  0.00     0.210 C 
ATOM     15  C   LIG d   1     -11.301  77.319 119.409  0.00  0.00     0.109 C 
ATOM     16  O   LIG d   1     -10.641  77.964 121.633  0.00  0.00    -0.276 OA
ATOM     17  H   LIG d   1     -11.073  79.815 119.109  0.00  0.00     0.149 HD
ENDBRANCH   6  13
BRANCH   5  18
ATOM     18  N   LIG d   1     -12.408  80.581 122.484  0.00  0.00     0.381 N 
ATOM     19  H   LIG d   1     -12.070  80.697 123.419  0.00  0.00    -0.090 HD
ATOM     20  H   LIG d   1     -12.270  79.622 122.217  0.00  0.00    -0.090 HD
ATOM     21  H   LIG d   1     -13.377  80.809 122.443  0.00  0.00    -0.090 HD
ENDBRANCH   5  18
BRANCH   3  22
ATOM     22  C   LIG d   1     -10.285  84.841 121.955  0.00  0.00     0.382 C 
ATOM     23  O   LIG d   1      -9.208  85.483 121.918  0.00  0.00    -0.241 OA
ATOM     24  O   LIG d   1     -11.329  85.416 122.319  0.00  0.00    -0.241 OA
ENDBRANCH   3  22
TORSDOF 7
ENDMDL
