MODEL 1
REMARK VINA RESULT:      -5.0      0.000      0.000
REMARK  7 active torsions:
REMARK  status: ('A' for Active; 'I' for Inactive)
REMARK    1  A    between atoms: C_2  and  C_3 
REMARK    2  A    between atoms: C_3  and  O_6 
REMARK    3  A    between atoms: C_3  and  C_4 
REMARK    4  A    between atoms: C_7  and  O_6 
REMARK    5  A    between atoms: C_9  and  C_10 
REMARK    6  A    between atoms: N_15  and  C_14 
REMARK    7  A    between atoms: N_20  and  C_19 
REMARK       I    between atoms: C_22  and  N_20 
ROOT
ATOM      1  C   LIG d   1      -7.628  78.354 118.567  0.00  0.00     0.161 C 
ATOM      2  C   LIG d   1      -8.688  79.080 119.136  0.00  0.00     0.016 C 
ATOM      3  C   LIG d   1      -8.526  80.343 119.750  0.00  0.00     0.038 C 
ATOM      4  C   LIG d   1      -7.310  81.040 119.702  0.00  0.00     0.028 C 
ATOM      5  C   LIG d   1      -6.093  80.128 119.582  0.00  0.00    -0.047 C 
ATOM      6  C   LIG d   1      -6.314  79.148 118.407  0.00  0.00     0.091 C 
ENDROOT
BRANCH   1   7
ATOM      7  O   LIG d   1      -8.038  77.802 117.301  0.00  0.00    -0.368 OA
BRANCH   7   8
ATOM      8  C   LIG d   1      -8.089  76.357 117.222  0.00  0.00     0.119 C 
BRANCH   8   9
ATOM      9  C   LIG d   1      -7.637  75.954 115.805  0.00  0.00     0.028 C 
ATOM     10  C   LIG d   1      -6.279  75.232 115.805  0.00  0.00     0.006 C 
ENDBRANCH   8   9
BRANCH   8  11
ATOM     11  C   LIG d   1      -9.526  75.843 117.351  0.00  0.00     0.028 C 
ATOM     12  C   LIG d   1      -9.825  74.666 116.408  0.00  0.00     0.006 C 
ENDBRANCH   8  11
ENDBRANCH   7   8
ENDBRANCH   1   7
BRANCH   6  13
ATOM     13  N   LIG d   1      -5.208  78.164 118.274  0.00  0.00    -0.311 N 
ATOM     14  C   LIG d   1      -4.440  78.068 117.190  0.00  0.00     0.210 C 
ATOM     15  C   LIG d   1      -3.370  76.973 117.251  0.00  0.00     0.109 C 
ATOM     16  O   LIG d   1      -4.522  78.806 116.197  0.00  0.00    -0.276 OA
ATOM     17  H   LIG d   1      -5.052  77.546 119.046  0.00  0.00     0.149 HD
ENDBRANCH   6  13
BRANCH   5  18
ATOM     18  N   LIG d   1      -4.908  80.987 119.404  0.00  0.00     0.381 N 
ATOM     19  H   LIG d   1      -4.077  80.432 119.455  0.00  0.00    -0.090 HD
ATOM     20  H   LIG d   1      -4.882  81.663 120.146  0.00  0.00    -0.090 HD
ATOM     21  H   LIG d   1      -4.952  81.451 118.523  0.00  0.00    -0.090 HD
ENDBRANCH   5  18
BRANCH   3  22
ATOM     22  C   LIG d   1      -9.580  80.905 120.455  0.00  0.00     0.382 C 
ATOM     23  O   LIG d   1     -10.621  80.237 120.665  0.00  0.00    -0.241 OA
ATOM     24  O   LIG d   1      -9.519  82.086 120.847  0.00  0.00    -0.241 OA
ENDBRANCH   3  22
TORSDOF 7
ENDMDL
MODEL 2
REMARK VINA RESULT:      -5.0     11.133     12.894
REMARK  7 active torsions:
REMARK  status: ('A' for Active; 'I' for Inactive)
REMARK    1  A    between atoms: C_2  and  C_3 
REMARK    2  A    between atoms: C_3  and  O_6 
REMARK    3  A    between atoms: C_3  and  C_4 
REMARK    4  A    between atoms: C_7  and  O_6 
REMARK    5  A    between atoms: C_9  and  C_10 
REMARK    6  A    between atoms: N_15  and  C_14 
REMARK    7  A    between atoms: N_20  and  C_19 
REMARK       I    between atoms: C_22  and  N_20 
ROOT
ATOM      1  C   LIG d   1      -2.867  89.796 118.277  0.00  0.00     0.161 C 
ATOM      2  C   LIG d   1      -4.257  89.880 118.091  0.00  0.00     0.016 C 
ATOM      3  C   LIG d   1      -4.918  91.062 117.684  0.00  0.00     0.038 C 
ATOM      4  C   LIG d   1      -4.211  92.207 117.288  0.00  0.00     0.028 C 
ATOM      5  C   LIG d   1      -2.839  92.329 117.942  0.00  0.00    -0.047 C 
ATOM      6  C   LIG d   1      -2.069  91.004 117.743  0.00  0.00     0.091 C 
ENDROOT
BRANCH   1   7
ATOM      7  O   LIG d   1      -2.369  88.572 117.701  0.00  0.00    -0.368 OA
BRANCH   7   8
ATOM      8  C   LIG d   1      -2.157  87.474 118.622  0.00  0.00     0.119 C 
BRANCH   8   9
ATOM      9  C   LIG d   1      -2.023  88.075 120.035  0.00  0.00     0.028 C 
ATOM     10  C   LIG d   1      -2.710  87.212 121.107  0.00  0.00     0.006 C 
ENDBRANCH   8   9
BRANCH   8  11
ATOM     11  C   LIG d   1      -0.823  86.771 118.353  0.00  0.00     0.028 C 
ATOM     12  C   LIG d   1      -0.112  87.302 117.098  0.00  0.00     0.006 C 
ENDBRANCH   8  11
ENDBRANCH   7   8
ENDBRANCH   1   7
BRANCH   6  13
ATOM     13  N   LIG d   1      -0.748  91.008 118.425  0.00  0.00    -0.311 N 
ATOM     14  C   LIG d   1       0.413  90.952 117.775  0.00  0.00     0.210 C 
ATOM     15  C   LIG d   1       1.656  90.947 118.671  0.00  0.00     0.109 C 
ATOM     16  O   LIG d   1       0.532  90.938 116.541  0.00  0.00    -0.276 OA
ATOM     17  H   LIG d   1      -0.752  91.049 119.426  0.00  0.00     0.149 HD
ENDBRANCH   6  13
BRANCH   5  18
ATOM     18  N   LIG d   1      -2.159  93.490 117.338  0.00  0.00     0.381 N 
ATOM     19  H   LIG d   1      -1.549  93.912 118.009  0.00  0.00    -0.090 HD
ATOM     20  H   LIG d   1      -2.850  94.168 117.069  0.00  0.00    -0.090 HD
ATOM     21  H   LIG d   1      -1.638  93.202 116.539  0.00  0.00    -0.090 HD
ENDBRANCH   5  18
BRANCH   3  22
ATOM     22  C   LIG d   1      -6.303  91.118 117.709  0.00  0.00     0.382 C 
ATOM     23  O   LIG d   1      -6.975  90.326 117.005  0.00  0.00    -0.241 OA
ATOM     24  O   LIG d   1      -6.888  91.979 118.393  0.00  0.00    -0.241 OA
ENDBRANCH   3  22
TORSDOF 7
ENDMDL
MODEL 3
REMARK VINA RESULT:      -4.9      2.085      5.143
REMARK  7 active torsions:
REMARK  status: ('A' for Active; 'I' for Inactive)
REMARK    1  A    between atoms: C_2  and  C_3 
REMARK    2  A    between atoms: C_3  and  O_6 
REMARK    3  A    between atoms: C_3  and  C_4 
REMARK    4  A    between atoms: C_7  and  O_6 
REMARK    5  A    between atoms: C_9  and  C_10 
REMARK    6  A    between atoms: N_15  and  C_14 
REMARK    7  A    between atoms: N_20  and  C_19 
REMARK       I    between atoms: C_22  and  N_20 
ROOT
ATOM      1  C   LIG d   1      -6.425  78.504 117.579  0.00  0.00     0.161 C 
ATOM      2  C   LIG d   1      -6.951  77.284 117.123  0.00  0.00     0.016 C 
ATOM      3  C   LIG d   1      -8.301  76.903 117.302  0.00  0.00     0.038 C 
ATOM      4  C   LIG d   1      -9.258  77.788 117.819  0.00  0.00     0.028 C 
ATOM      5  C   LIG d   1      -8.669  78.839 118.753  0.00  0.00    -0.047 C 
ATOM      6  C   LIG d   1      -7.479  79.528 118.047  0.00  0.00     0.091 C 
ENDROOT
BRANCH   1   7
ATOM      7  O   LIG d   1      -5.580  79.082 116.564  0.00  0.00    -0.368 OA
BRANCH   7   8
ATOM      8  C   LIG d   1      -4.154  79.023 116.812  0.00  0.00     0.119 C 
BRANCH   8   9
ATOM      9  C   LIG d   1      -3.586  77.861 115.974  0.00  0.00     0.028 C 
ATOM     10  C   LIG d   1      -3.255  76.627 116.830  0.00  0.00     0.006 C 
ENDBRANCH   8   9
BRANCH   8  11
ATOM     11  C   LIG d   1      -3.856  78.656 118.268  0.00  0.00     0.028 C 
ATOM     12  C   LIG d   1      -3.208  79.808 119.052  0.00  0.00     0.006 C 
ENDBRANCH   8  11
ENDBRANCH   7   8
ENDBRANCH   1   7
BRANCH   6  13
ATOM     13  N   LIG d   1      -6.792  80.513 118.923  0.00  0.00    -0.311 N 
ATOM     14  C   LIG d   1      -7.060  81.817 118.910  0.00  0.00     0.210 C 
ATOM     15  C   LIG d   1      -6.223  82.658 119.879  0.00  0.00     0.109 C 
ATOM     16  O   LIG d   1      -7.933  82.353 118.212  0.00  0.00    -0.276 OA
ATOM     17  H   LIG d   1      -6.091  80.159 119.544  0.00  0.00     0.149 HD
ENDBRANCH   6  13
BRANCH   5  18
ATOM     18  N   LIG d   1      -9.751  79.776 119.109  0.00  0.00     0.381 N 
ATOM     19  H   LIG d   1      -9.391  80.504 119.693  0.00  0.00    -0.090 HD
ATOM     20  H   LIG d   1     -10.456  79.278 119.625  0.00  0.00    -0.090 HD
ATOM     21  H   LIG d   1     -10.148  80.168 118.284  0.00  0.00    -0.090 HD
ENDBRANCH   5  18
BRANCH   3  22
ATOM     22  C   LIG d   1      -8.696  75.609 116.998  0.00  0.00     0.382 C 
ATOM     23  O   LIG d   1      -7.879  74.809 116.480  0.00  0.00    -0.241 OA
ATOM     24  O   LIG d   1      -9.871  75.245 117.193  0.00  0.00    -0.241 OA
ENDBRANCH   3  22
TORSDOF 7
ENDMDL
MODEL 4
REMARK VINA RESULT:      -4.9      2.290      2.901
REMARK  7 active torsions:
REMARK  status: ('A' for Active; 'I' for Inactive)
REMARK    1  A    between atoms: C_2  and  C_3 
REMARK    2  A    between atoms: C_3  and  O_6 
REMARK    3  A    between atoms: C_3  and  C_4 
REMARK    4  A    between atoms: C_7  and  O_6 
REMARK    5  A    between atoms: C_9  and  C_10 
REMARK    6  A    between atoms: N_15  and  C_14 
REMARK    7  A    between atoms: N_20  and  C_19 
REMARK       I    between atoms: C_22  and  N_20 
ROOT
ATOM      1  C   LIG d   1      -7.801  78.792 119.219  0.00  0.00     0.161 C 
ATOM      2  C   LIG d   1      -8.595  79.561 118.351  0.00  0.00     0.016 C 
ATOM      3  C   LIG d   1      -8.311  80.907 118.025  0.00  0.00     0.038 C 
ATOM      4  C   LIG d   1      -7.122  81.533 118.428  0.00  0.00     0.028 C 
ATOM      5  C   LIG d   1      -6.542  80.959 119.717  0.00  0.00    -0.047 C 
ATOM      6  C   LIG d   1      -6.440  79.423 119.580  0.00  0.00     0.091 C 
ENDROOT
BRANCH   1   7
ATOM      7  O   LIG d   1      -7.612  77.474 118.668  0.00  0.00    -0.368 OA
BRANCH   7   8
ATOM      8  C   LIG d   1      -8.168  77.248 117.349  0.00  0.00     0.119 C 
BRANCH   8   9
ATOM      9  C   LIG d   1      -9.297  76.210 117.494  0.00  0.00     0.028 C 
ATOM     10  C   LIG d   1      -8.997  74.906 116.736  0.00  0.00     0.006 C 
ENDBRANCH   8   9
BRANCH   8  11
ATOM     11  C   LIG d   1      -7.141  76.602 116.414  0.00  0.00     0.028 C 
ATOM     12  C   LIG d   1      -5.711  77.110 116.658  0.00  0.00     0.006 C 
ENDBRANCH   8  11
ENDBRANCH   7   8
ENDBRANCH   1   7
BRANCH   6  13
ATOM     13  N   LIG d   1      -5.961  78.773 120.828  0.00  0.00    -0.311 N 
ATOM     14  C   LIG d   1      -4.678  78.508 121.070  0.00  0.00     0.210 C 
ATOM     15  C   LIG d   1      -4.403  77.816 122.409  0.00  0.00     0.109 C 
ATOM     16  O   LIG d   1      -3.739  78.808 120.318  0.00  0.00    -0.276 OA
ATOM     17  H   LIG d   1      -6.653  78.524 121.507  0.00  0.00     0.149 HD
ENDBRANCH   6  13
BRANCH   5  18
ATOM     18  N   LIG d   1      -5.237  81.607 119.946  0.00  0.00     0.381 N 
ATOM     19  H   LIG d   1      -5.371  82.579 120.145  0.00  0.00    -0.090 HD
ATOM     20  H   LIG d   1      -4.685  81.530 119.110  0.00  0.00    -0.090 HD
ATOM     21  H   LIG d   1      -4.767  81.167 120.706  0.00  0.00    -0.090 HD
ENDBRANCH   5  18
BRANCH   3  22
ATOM     22  C   LIG d   1      -9.242  81.654 117.320  0.00  0.00     0.382 C 
ATOM     23  O   LIG d   1     -10.447  81.645 117.668  0.00  0.00    -0.241 OA
ATOM     24  O   LIG d   1      -8.900  82.302 116.312  0.00  0.00    -0.241 OA
ENDBRANCH   3  22
TORSDOF 7
ENDMDL
MODEL 5
REMARK VINA RESULT:      -4.9      2.443      4.401
REMARK  7 active torsions:
REMARK  status: ('A' for Active; 'I' for Inactive)
REMARK    1  A    between atoms: C_2  and  C_3 
REMARK    2  A    between atoms: C_3  and  O_6 
REMARK    3  A    between atoms: C_3  and  C_4 
REMARK    4  A    between atoms: C_7  and  O_6 
REMARK    5  A    between atoms: C_9  and  C_10 
REMARK    6  A    between atoms: N_15  and  C_14 
REMARK    7  A    between atoms: N_20  and  C_19 
REMARK       I    between atoms: C_22  and  N_20 
ROOT
ATOM      1  C   LIG d   1      -6.253  79.358 117.851  0.00  0.00     0.161 C 
ATOM      2  C   LIG d   1      -5.144  78.721 118.432  0.00  0.00     0.016 C 
ATOM      3  C   LIG d   1      -4.915  78.676 119.826  0.00  0.00     0.038 C 
ATOM      4  C   LIG d   1      -5.866  79.137 120.749  0.00  0.00     0.028 C 
ATOM      5  C   LIG d   1      -6.763  80.239 120.195  0.00  0.00    -0.047 C 
ATOM      6  C   LIG d   1      -7.357  79.771 118.847  0.00  0.00     0.091 C 
ENDROOT
BRANCH   1   7
ATOM      7  O   LIG d   1      -6.803  78.528 116.809  0.00  0.00    -0.368 OA
BRANCH   7   8
ATOM      8  C   LIG d   1      -6.881  77.110 117.098  0.00  0.00     0.119 C 
BRANCH   8   9
ATOM      9  C   LIG d   1      -6.458  76.354 115.824  0.00  0.00     0.028 C 
ATOM     10  C   LIG d   1      -4.954  76.029 115.807  0.00  0.00     0.006 C 
ENDBRANCH   8   9
BRANCH   8  11
ATOM     11  C   LIG d   1      -8.325  76.675 117.366  0.00  0.00     0.028 C 
ATOM     12  C   LIG d   1      -8.734  75.435 116.557  0.00  0.00     0.006 C 
ENDBRANCH   8  11
ENDBRANCH   7   8
ENDBRANCH   1   7
BRANCH   6  13
ATOM     13  N   LIG d   1      -8.181  80.822 118.195  0.00  0.00    -0.311 N 
ATOM     14  C   LIG d   1      -9.498  80.721 118.024  0.00  0.00     0.210 C 
ATOM     15  C   LIG d   1     -10.151  81.909 117.311  0.00  0.00     0.109 C 
ATOM     16  O   LIG d   1     -10.192  79.775 118.425  0.00  0.00    -0.276 OA
ATOM     17  H   LIG d   1      -7.703  81.639 117.867  0.00  0.00     0.149 HD
ENDBRANCH   6  13
BRANCH   5  18
ATOM     18  N   LIG d   1      -7.792  80.529 121.211  0.00  0.00     0.381 N 
ATOM     19  H   LIG d   1      -8.674  80.162 120.914  0.00  0.00    -0.090 HD
ATOM     20  H   LIG d   1      -7.882  81.525 121.307  0.00  0.00    -0.090 HD
ATOM     21  H   LIG d   1      -7.533  80.125 122.084  0.00  0.00    -0.090 HD
ENDBRANCH   5  18
BRANCH   3  22
ATOM     22  C   LIG d   1      -3.706  78.199 120.309  0.00  0.00     0.382 C 
ATOM     23  O   LIG d   1      -3.354  78.460 121.485  0.00  0.00    -0.241 OA
ATOM     24  O   LIG d   1      -2.943  77.549 119.570  0.00  0.00    -0.241 OA
ENDBRANCH   3  22
TORSDOF 7
ENDMDL
MODEL 6
REMARK VINA RESULT:      -4.7      2.252      5.614
REMARK  7 active torsions:
REMARK  status: ('A' for Active; 'I' for Inactive)
REMARK    1  A    between atoms: C_2  and  C_3 
REMARK    2  A    between atoms: C_3  and  O_6 
REMARK    3  A    between atoms: C_3  and  C_4 
REMARK    4  A    between atoms: C_7  and  O_6 
REMARK    5  A    between atoms: C_9  and  C_10 
REMARK    6  A    between atoms: N_15  and  C_14 
REMARK    7  A    between atoms: N_20  and  C_19 
REMARK       I    between atoms: C_22  and  N_20 
ROOT
ATOM      1  C   LIG d   1      -4.826  78.050 116.762  0.00  0.00     0.161 C 
ATOM      2  C   LIG d   1      -4.141  76.918 116.289  0.00  0.00     0.016 C 
ATOM      3  C   LIG d   1      -3.127  76.260 117.021  0.00  0.00     0.038 C 
ATOM      4  C   LIG d   1      -2.831  76.601 118.349  0.00  0.00     0.028 C 
ATOM      5  C   LIG d   1      -3.144  78.055 118.685  0.00  0.00    -0.047 C 
ATOM      6  C   LIG d   1      -4.594  78.369 118.254  0.00  0.00     0.091 C 
ENDROOT
BRANCH   1   7
ATOM      7  O   LIG d   1      -6.235  77.918 116.490  0.00  0.00    -0.368 OA
BRANCH   7   8
ATOM      8  C   LIG d   1      -6.897  76.780 117.096  0.00  0.00     0.119 C 
BRANCH   8   9
ATOM      9  C   LIG d   1      -7.648  76.032 115.978  0.00  0.00     0.028 C 
ATOM     10  C   LIG d   1      -8.863  75.252 116.508  0.00  0.00     0.006 C 
ENDBRANCH   8   9
BRANCH   8  11
ATOM     11  C   LIG d   1      -7.979  77.226 118.084  0.00  0.00     0.028 C 
ATOM     12  C   LIG d   1      -8.373  78.701 117.910  0.00  0.00     0.006 C 
ENDBRANCH   8  11
ENDBRANCH   7   8
ENDBRANCH   1   7
BRANCH   6  13
ATOM     13  N   LIG d   1      -4.954  79.795 118.469  0.00  0.00    -0.311 N 
ATOM     14  C   LIG d   1      -5.569  80.239 119.564  0.00  0.00     0.210 C 
ATOM     15  C   LIG d   1      -5.865  81.742 119.576  0.00  0.00     0.109 C 
ATOM     16  O   LIG d   1      -5.869  79.535 120.541  0.00  0.00    -0.276 OA
ATOM     17  H   LIG d   1      -4.719  80.440 117.740  0.00  0.00     0.149 HD
ENDBRANCH   6  13
BRANCH   5  18
ATOM     18  N   LIG d   1      -2.919  78.237 120.132  0.00  0.00     0.381 N 
ATOM     19  H   LIG d   1      -2.501  77.413 120.516  0.00  0.00    -0.090 HD
ATOM     20  H   LIG d   1      -3.805  78.381 120.583  0.00  0.00    -0.090 HD
ATOM     21  H   LIG d   1      -2.326  79.023 120.289  0.00  0.00    -0.090 HD
ENDBRANCH   5  18
BRANCH   3  22
ATOM     22  C   LIG d   1      -2.369  75.273 116.410  0.00  0.00     0.382 C 
ATOM     23  O   LIG d   1      -2.713  74.070 116.503  0.00  0.00    -0.241 OA
ATOM     24  O   LIG d   1      -1.320  75.566 115.805  0.00  0.00    -0.241 OA
ENDBRANCH   3  22
TORSDOF 7
ENDMDL
MODEL 7
REMARK VINA RESULT:      -4.6     12.539     14.291
REMARK  7 active torsions:
REMARK  status: ('A' for Active; 'I' for Inactive)
REMARK    1  A    between atoms: C_2  and  C_3 
REMARK    2  A    between atoms: C_3  and  O_6 
REMARK    3  A    between atoms: C_3  and  C_4 
REMARK    4  A    between atoms: C_7  and  O_6 
REMARK    5  A    between atoms: C_9  and  C_10 
REMARK    6  A    between atoms: N_15  and  C_14 
REMARK    7  A    between atoms: N_20  and  C_19 
REMARK       I    between atoms: C_22  and  N_20 
ROOT
ATOM      1  C   LIG d   1      -5.249  92.799 118.761  0.00  0.00     0.161 C 
ATOM      2  C   LIG d   1      -6.318  92.201 118.073  0.00  0.00     0.016 C 
ATOM      3  C   LIG d   1      -6.150  91.173 117.117  0.00  0.00     0.038 C 
ATOM      4  C   LIG d   1      -4.906  90.566 116.892  0.00  0.00     0.028 C 
ATOM      5  C   LIG d   1      -3.723  91.479 117.193  0.00  0.00    -0.047 C 
ATOM      6  C   LIG d   1      -3.896  92.073 118.610  0.00  0.00     0.091 C 
ENDROOT
BRANCH   1   7
ATOM      7  O   LIG d   1      -5.586  92.947 120.154  0.00  0.00    -0.368 OA
BRANCH   7   8
ATOM      8  C   LIG d   1      -5.749  91.718 120.904  0.00  0.00     0.119 C 
BRANCH   8   9
ATOM      9  C   LIG d   1      -7.181  91.710 121.474  0.00  0.00     0.028 C 
ATOM     10  C   LIG d   1      -7.908  93.047 121.252  0.00  0.00     0.006 C 
ENDBRANCH   8   9
BRANCH   8  11
ATOM     11  C   LIG d   1      -4.826  91.683 122.126  0.00  0.00     0.028 C 
ATOM     12  C   LIG d   1      -3.822  90.521 122.081  0.00  0.00     0.006 C 
ENDBRANCH   8  11
ENDBRANCH   7   8
ENDBRANCH   1   7
BRANCH   6  13
ATOM     13  N   LIG d   1      -2.824  93.044 118.952  0.00  0.00    -0.311 N 
ATOM     14  C   LIG d   1      -1.682  92.697 119.542  0.00  0.00     0.210 C 
ATOM     15  C   LIG d   1      -0.721  93.857 119.825  0.00  0.00     0.109 C 
ATOM     16  O   LIG d   1      -1.359  91.535 119.829  0.00  0.00    -0.276 OA
ATOM     17  H   LIG d   1      -2.990  94.005 118.726  0.00  0.00     0.149 HD
ENDBRANCH   6  13
BRANCH   5  18
ATOM     18  N   LIG d   1      -2.493  90.678 117.049  0.00  0.00     0.381 N 
ATOM     19  H   LIG d   1      -2.113  90.802 116.132  0.00  0.00    -0.090 HD
ATOM     20  H   LIG d   1      -2.722  89.706 117.167  0.00  0.00    -0.090 HD
ATOM     21  H   LIG d   1      -1.824  90.954 117.733  0.00  0.00    -0.090 HD
ENDBRANCH   5  18
BRANCH   3  22
ATOM     22  C   LIG d   1      -7.229  90.771 116.344  0.00  0.00     0.382 C 
ATOM     23  O   LIG d   1      -7.438  89.549 116.148  0.00  0.00    -0.241 OA
ATOM     24  O   LIG d   1      -7.970  91.615 115.805  0.00  0.00    -0.241 OA
ENDBRANCH   3  22
TORSDOF 7
ENDMDL
MODEL 8
REMARK VINA RESULT:      -4.6     12.592     15.522
REMARK  7 active torsions:
REMARK  status: ('A' for Active; 'I' for Inactive)
REMARK    1  A    between atoms: C_2  and  C_3 
REMARK    2  A    between atoms: C_3  and  O_6 
REMARK    3  A    between atoms: C_3  and  C_4 
REMARK    4  A    between atoms: C_7  and  O_6 
REMARK    5  A    between atoms: C_9  and  C_10 
REMARK    6  A    between atoms: N_15  and  C_14 
REMARK    7  A    between atoms: N_20  and  C_19 
REMARK       I    between atoms: C_22  and  N_20 
ROOT
ATOM      1  C   LIG d   1      -5.933  93.224 118.750  0.00  0.00     0.161 C 
ATOM      2  C   LIG d   1      -6.538  92.189 118.017  0.00  0.00     0.016 C 
ATOM      3  C   LIG d   1      -5.812  91.265 117.231  0.00  0.00     0.038 C 
ATOM      4  C   LIG d   1      -4.410  91.220 117.246  0.00  0.00     0.028 C 
ATOM      5  C   LIG d   1      -3.764  92.562 117.573  0.00  0.00    -0.047 C 
ATOM      6  C   LIG d   1      -4.398  93.122 118.867  0.00  0.00     0.091 C 
ENDROOT
BRANCH   1   7
ATOM      7  O   LIG d   1      -6.531  93.309 120.059  0.00  0.00    -0.368 OA
BRANCH   7   8
ATOM      8  C   LIG d   1      -7.186  94.561 120.380  0.00  0.00     0.119 C 
BRANCH   8   9
ATOM      9  C   LIG d   1      -8.547  94.220 121.018  0.00  0.00     0.028 C 
ATOM     10  C   LIG d   1      -8.658  92.736 121.406  0.00  0.00     0.006 C 
ENDBRANCH   8   9
BRANCH   8  11
ATOM     11  C   LIG d   1      -7.520  95.356 119.114  0.00  0.00     0.028 C 
ATOM     12  C   LIG d   1      -8.988  95.806 119.063  0.00  0.00     0.006 C 
ENDBRANCH   8  11
ENDBRANCH   7   8
ENDBRANCH   1   7
BRANCH   6  13
ATOM     13  N   LIG d   1      -3.883  94.472 119.212  0.00  0.00    -0.311 N 
ATOM     14  C   LIG d   1      -2.851  94.676 120.030  0.00  0.00     0.210 C 
ATOM     15  C   LIG d   1      -2.495  96.147 120.267  0.00  0.00     0.109 C 
ATOM     16  O   LIG d   1      -2.178  93.778 120.556  0.00  0.00    -0.276 OA
ATOM     17  H   LIG d   1      -4.351  95.258 118.804  0.00  0.00     0.149 HD
ENDBRANCH   6  13
BRANCH   5  18
ATOM     18  N   LIG d   1      -2.311  92.340 117.690  0.00  0.00     0.381 N 
ATOM     19  H   LIG d   1      -1.848  93.210 117.864  0.00  0.00    -0.090 HD
ATOM     20  H   LIG d   1      -1.967  91.969 116.822  0.00  0.00    -0.090 HD
ATOM     21  H   LIG d   1      -2.122  91.701 118.431  0.00  0.00    -0.090 HD
ENDBRANCH   5  18
BRANCH   3  22
ATOM     22  C   LIG d   1      -6.490  90.398 116.388  0.00  0.00     0.382 C 
ATOM     23  O   LIG d   1      -7.732  90.509 116.242  0.00  0.00    -0.241 OA
ATOM     24  O   LIG d   1      -5.884  89.478 115.807  0.00  0.00    -0.241 OA
ENDBRANCH   3  22
TORSDOF 7
ENDMDL
MODEL 9
REMARK VINA RESULT:      -4.6     12.652     15.238
REMARK  7 active torsions:
REMARK  status: ('A' for Active; 'I' for Inactive)
REMARK    1  A    between atoms: C_2  and  C_3 
REMARK    2  A    between atoms: C_3  and  O_6 
REMARK    3  A    between atoms: C_3  and  C_4 
REMARK    4  A    between atoms: C_7  and  O_6 
REMARK    5  A    between atoms: C_9  and  C_10 
REMARK    6  A    between atoms: N_15  and  C_14 
REMARK    7  A    between atoms: N_20  and  C_19 
REMARK       I    between atoms: C_22  and  N_20 
ROOT
ATOM      1  C   LIG d   1      -2.900  92.787 117.948  0.00  0.00     0.161 C 
ATOM      2  C   LIG d   1      -4.283  92.861 118.181  0.00  0.00     0.016 C 
ATOM      3  C   LIG d   1      -5.130  91.729 118.205  0.00  0.00     0.038 C 
ATOM      4  C   LIG d   1      -4.622  90.422 118.148  0.00  0.00     0.028 C 
ATOM      5  C   LIG d   1      -3.292  90.321 117.408  0.00  0.00    -0.047 C 
ATOM      6  C   LIG d   1      -2.311  91.362 117.994  0.00  0.00     0.091 C 
ENDROOT
BRANCH   1   7
ATOM      7  O   LIG d   1      -2.203  93.647 118.871  0.00  0.00    -0.368 OA
BRANCH   7   8
ATOM      8  C   LIG d   1      -1.369  94.675 118.279  0.00  0.00     0.119 C 
BRANCH   8   9
ATOM      9  C   LIG d   1       0.047  94.515 118.864  0.00  0.00     0.028 C 
ATOM     10  C   LIG d   1       0.076  93.584 120.088  0.00  0.00     0.006 C 
ENDBRANCH   8   9
BRANCH   8  11
ATOM     11  C   LIG d   1      -1.826  96.074 118.701  0.00  0.00     0.028 C 
ATOM     12  C   LIG d   1      -2.970  96.044 119.727  0.00  0.00     0.006 C 
ENDBRANCH   8  11
ENDBRANCH   7   8
ENDBRANCH   1   7
BRANCH   6  13
ATOM     13  N   LIG d   1      -1.013  91.387 117.270  0.00  0.00    -0.311 N 
ATOM     14  C   LIG d   1       0.063  90.713 117.671  0.00  0.00     0.210 C 
ATOM     15  C   LIG d   1       1.304  90.894 116.792  0.00  0.00     0.109 C 
ATOM     16  O   LIG d   1       0.098  89.957 118.654  0.00  0.00    -0.276 OA
ATOM     17  H   LIG d   1      -0.963  91.951 116.445  0.00  0.00     0.149 HD
ENDBRANCH   6  13
BRANCH   5  18
ATOM     18  N   LIG d   1      -2.812  88.933 117.544  0.00  0.00     0.381 N 
ATOM     19  H   LIG d   1      -3.072  88.404 116.735  0.00  0.00    -0.090 HD
ATOM     20  H   LIG d   1      -3.246  88.515 118.347  0.00  0.00    -0.090 HD
ATOM     21  H   LIG d   1      -1.821  88.924 117.650  0.00  0.00    -0.090 HD
ENDBRANCH   5  18
BRANCH   3  22
ATOM     22  C   LIG d   1      -6.505  91.899 118.248  0.00  0.00     0.382 C 
ATOM     23  O   LIG d   1      -7.063  92.228 119.323  0.00  0.00    -0.241 OA
ATOM     24  O   LIG d   1      -7.200  91.686 117.237  0.00  0.00    -0.241 OA
ENDBRANCH   3  22
TORSDOF 7
ENDMDL
