MODEL 1
REMARK VINA RESULT:      -4.9      0.000      0.000
REMARK  7 active torsions:
REMARK  status: ('A' for Active; 'I' for Inactive)
REMARK    1  A    between atoms: C_2  and  C_3 
REMARK    2  A    between atoms: C_3  and  O_6 
REMARK    3  A    between atoms: C_3  and  C_4 
REMARK    4  A    between atoms: C_7  and  O_6 
REMARK    5  A    between atoms: C_9  and  C_10 
REMARK    6  A    between atoms: N_15  and  C_14 
REMARK    7  A    between atoms: N_20  and  C_19 
REMARK       I    between atoms: C_22  and  N_20 
ROOT
ATOM      1  C   LIG d   1      -6.099  76.334 116.997  0.00  0.00     0.161 C 
ATOM      2  C   LIG d   1      -4.835  75.846 116.625  0.00  0.00     0.016 C 
ATOM      3  C   LIG d   1      -3.634  76.562 116.831  0.00  0.00     0.038 C 
ATOM      4  C   LIG d   1      -3.599  77.757 117.565  0.00  0.00     0.028 C 
ATOM      5  C   LIG d   1      -4.910  78.534 117.519  0.00  0.00    -0.047 C 
ATOM      6  C   LIG d   1      -6.070  77.586 117.898  0.00  0.00     0.091 C 
ENDROOT
BRANCH   1   7
ATOM      7  O   LIG d   1      -6.864  75.284 117.622  0.00  0.00    -0.368 OA
BRANCH   7   8
ATOM      8  C   LIG d   1      -7.715  74.506 116.745  0.00  0.00     0.119 C 
BRANCH   8   9
ATOM      9  C   LIG d   1      -9.054  75.258 116.613  0.00  0.00     0.028 C 
ATOM     10  C   LIG d   1     -10.265  74.312 116.663  0.00  0.00     0.006 C 
ENDBRANCH   8   9
BRANCH   8  11
ATOM     11  C   LIG d   1      -8.069  73.153 117.368  0.00  0.00     0.028 C 
ATOM     12  C   LIG d   1      -7.257  71.992 116.773  0.00  0.00     0.006 C 
ENDBRANCH   8  11
ENDBRANCH   7   8
ENDBRANCH   1   7
BRANCH   6  13
ATOM     13  N   LIG d   1      -7.398  78.245 117.796  0.00  0.00    -0.311 N 
ATOM     14  C   LIG d   1      -8.241  78.359 118.821  0.00  0.00     0.210 C 
ATOM     15  C   LIG d   1      -9.566  79.055 118.495  0.00  0.00     0.109 C 
ATOM     16  O   LIG d   1      -8.004  77.978 119.977  0.00  0.00    -0.276 OA
ATOM     17  H   LIG d   1      -7.659  78.610 116.901  0.00  0.00     0.149 HD
ENDBRANCH   6  13
BRANCH   5  18
ATOM     18  N   LIG d   1      -4.780  79.684 118.434  0.00  0.00     0.381 N 
ATOM     19  H   LIG d   1      -4.210  80.389 118.013  0.00  0.00    -0.090 HD
ATOM     20  H   LIG d   1      -4.330  79.377 119.279  0.00  0.00    -0.090 HD
ATOM     21  H   LIG d   1      -5.680  80.056 118.645  0.00  0.00    -0.090 HD
ENDBRANCH   5  18
BRANCH   3  22
ATOM     22  C   LIG d   1      -2.454  76.102 116.266  0.00  0.00     0.382 C 
ATOM     23  O   LIG d   1      -1.525  76.907 116.013  0.00  0.00    -0.241 OA
ATOM     24  O   LIG d   1      -2.325  74.901 115.964  0.00  0.00    -0.241 OA
ENDBRANCH   3  22
TORSDOF 7
ENDMDL
MODEL 2
REMARK VINA RESULT:      -4.9      1.996      5.145
REMARK  7 active torsions:
REMARK  status: ('A' for Active; 'I' for Inactive)
REMARK    1  A    between atoms: C_2  and  C_3 
REMARK    2  A    between atoms: C_3  and  O_6 
REMARK    3  A    between atoms: C_3  and  C_4 
REMARK    4  A    between atoms: C_7  and  O_6 
REMARK    5  A    between atoms: C_9  and  C_10 
REMARK    6  A    between atoms: N_15  and  C_14 
REMARK    7  A    between atoms: N_20  and  C_19 
REMARK       I    between atoms: C_22  and  N_20 
ROOT
ATOM      1  C   LIG d   1      -6.283  76.433 117.376  0.00  0.00     0.161 C 
ATOM      2  C   LIG d   1      -7.086  75.347 116.990  0.00  0.00     0.016 C 
ATOM      3  C   LIG d   1      -8.498  75.399 116.948  0.00  0.00     0.038 C 
ATOM      4  C   LIG d   1      -9.202  76.596 117.145  0.00  0.00     0.028 C 
ATOM      5  C   LIG d   1      -8.463  77.594 118.030  0.00  0.00    -0.047 C 
ATOM      6  C   LIG d   1      -7.028  77.780 117.487  0.00  0.00     0.091 C 
ENDROOT
BRANCH   1   7
ATOM      7  O   LIG d   1      -5.161  76.554 116.480  0.00  0.00    -0.368 OA
BRANCH   7   8
ATOM      8  C   LIG d   1      -3.862  76.238 117.039  0.00  0.00     0.119 C 
BRANCH   8   9
ATOM      9  C   LIG d   1      -3.026  77.532 117.029  0.00  0.00     0.028 C 
ATOM     10  C   LIG d   1      -3.442  78.491 115.901  0.00  0.00     0.006 C 
ENDBRANCH   8   9
BRANCH   8  11
ATOM     11  C   LIG d   1      -3.097  75.254 116.148  0.00  0.00     0.028 C 
ATOM     12  C   LIG d   1      -1.737  74.849 116.740  0.00  0.00     0.006 C 
ENDBRANCH   8  11
ENDBRANCH   7   8
ENDBRANCH   1   7
BRANCH   6  13
ATOM     13  N   LIG d   1      -6.210  78.677 118.344  0.00  0.00    -0.311 N 
ATOM     14  C   LIG d   1      -6.049  79.977 118.101  0.00  0.00     0.210 C 
ATOM     15  C   LIG d   1      -5.149  80.714 119.097  0.00  0.00     0.109 C 
ATOM     16  O   LIG d   1      -6.593  80.596 117.174  0.00  0.00    -0.276 OA
ATOM     17  H   LIG d   1      -5.758  78.264 119.136  0.00  0.00     0.149 HD
ENDBRANCH   6  13
BRANCH   5  18
ATOM     18  N   LIG d   1      -9.245  78.846 118.038  0.00  0.00     0.381 N 
ATOM     19  H   LIG d   1      -9.987  78.777 118.706  0.00  0.00    -0.090 HD
ATOM     20  H   LIG d   1      -9.650  78.982 117.129  0.00  0.00    -0.090 HD
ATOM     21  H   LIG d   1      -8.654  79.615 118.266  0.00  0.00    -0.090 HD
ENDBRANCH   5  18
BRANCH   3  22
ATOM     22  C   LIG d   1      -9.223  74.234 116.745  0.00  0.00     0.382 C 
ATOM     23  O   LIG d   1      -8.672  73.118 116.900  0.00  0.00    -0.241 OA
ATOM     24  O   LIG d   1     -10.408  74.286 116.366  0.00  0.00    -0.241 OA
ENDBRANCH   3  22
TORSDOF 7
ENDMDL
MODEL 3
REMARK VINA RESULT:      -4.9      2.012      5.041
REMARK  7 active torsions:
REMARK  status: ('A' for Active; 'I' for Inactive)
REMARK    1  A    between atoms: C_2  and  C_3 
REMARK    2  A    between atoms: C_3  and  O_6 
REMARK    3  A    between atoms: C_3  and  C_4 
REMARK    4  A    between atoms: C_7  and  O_6 
REMARK    5  A    between atoms: C_9  and  C_10 
REMARK    6  A    between atoms: N_15  and  C_14 
REMARK    7  A    between atoms: N_20  and  C_19 
REMARK       I    between atoms: C_22  and  N_20 
ROOT
ATOM      1  C   LIG d   1      -7.688  77.427 117.604  0.00  0.00     0.161 C 
ATOM      2  C   LIG d   1      -8.806  77.911 118.303  0.00  0.00     0.016 C 
ATOM      3  C   LIG d   1      -8.772  79.061 119.125  0.00  0.00     0.038 C 
ATOM      4  C   LIG d   1      -7.647  79.897 119.185  0.00  0.00     0.028 C 
ATOM      5  C   LIG d   1      -6.338  79.171 118.894  0.00  0.00    -0.047 C 
ATOM      6  C   LIG d   1      -6.481  78.388 117.569  0.00  0.00     0.091 C 
ENDROOT
BRANCH   1   7
ATOM      7  O   LIG d   1      -8.071  77.055 116.266  0.00  0.00    -0.368 OA
BRANCH   7   8
ATOM      8  C   LIG d   1      -8.214  75.635 116.015  0.00  0.00     0.119 C 
BRANCH   8   9
ATOM      9  C   LIG d   1      -9.610  75.215 116.513  0.00  0.00     0.028 C 
ATOM     10  C   LIG d   1      -9.670  73.730 116.908  0.00  0.00     0.006 C 
ENDBRANCH   8   9
BRANCH   8  11
ATOM     11  C   LIG d   1      -7.223  74.819 116.851  0.00  0.00     0.028 C 
ATOM     12  C   LIG d   1      -6.038  74.294 116.025  0.00  0.00     0.006 C 
ENDBRANCH   8  11
ENDBRANCH   7   8
ENDBRANCH   1   7
BRANCH   6  13
ATOM     13  N   LIG d   1      -5.273  77.582 117.253  0.00  0.00    -0.311 N 
ATOM     14  C   LIG d   1      -4.322  77.985 116.412  0.00  0.00     0.210 C 
ATOM     15  C   LIG d   1      -3.172  76.993 116.213  0.00  0.00     0.109 C 
ATOM     16  O   LIG d   1      -4.306  79.084 115.837  0.00  0.00    -0.276 OA
ATOM     17  H   LIG d   1      -5.190  76.690 117.701  0.00  0.00     0.149 HD
ENDBRANCH   6  13
BRANCH   5  18
ATOM     18  N   LIG d   1      -5.266  80.184 118.854  0.00  0.00     0.381 N 
ATOM     19  H   LIG d   1      -5.031  80.466 119.784  0.00  0.00    -0.090 HD
ATOM     20  H   LIG d   1      -5.600  80.990 118.355  0.00  0.00    -0.090 HD
ATOM     21  H   LIG d   1      -4.462  79.812 118.399  0.00  0.00    -0.090 HD
ENDBRANCH   5  18
BRANCH   3  22
ATOM     22  C   LIG d   1      -9.860  79.363 119.930  0.00  0.00     0.382 C 
ATOM     23  O   LIG d   1     -10.278  80.544 120.002  0.00  0.00    -0.241 OA
ATOM     24  O   LIG d   1     -10.401  78.478 120.619  0.00  0.00    -0.241 OA
ENDBRANCH   3  22
TORSDOF 7
ENDMDL
MODEL 4
REMARK VINA RESULT:      -4.8      2.198      5.181
REMARK  7 active torsions:
REMARK  status: ('A' for Active; 'I' for Inactive)
REMARK    1  A    between atoms: C_2  and  C_3 
REMARK    2  A    between atoms: C_3  and  O_6 
REMARK    3  A    between atoms: C_3  and  C_4 
REMARK    4  A    between atoms: C_7  and  O_6 
REMARK    5  A    between atoms: C_9  and  C_10 
REMARK    6  A    between atoms: N_15  and  C_14 
REMARK    7  A    between atoms: N_20  and  C_19 
REMARK       I    between atoms: C_22  and  N_20 
ROOT
ATOM      1  C   LIG d   1      -6.185  77.751 117.183  0.00  0.00     0.161 C 
ATOM      2  C   LIG d   1      -6.497  76.423 116.845  0.00  0.00     0.016 C 
ATOM      3  C   LIG d   1      -7.794  75.875 116.961  0.00  0.00     0.038 C 
ATOM      4  C   LIG d   1      -8.908  76.665 117.282  0.00  0.00     0.028 C 
ATOM      5  C   LIG d   1      -8.558  77.891 118.120  0.00  0.00    -0.047 C 
ATOM      6  C   LIG d   1      -7.408  78.659 117.430  0.00  0.00     0.091 C 
ENDROOT
BRANCH   1   7
ATOM      7  O   LIG d   1      -5.330  78.324 116.174  0.00  0.00    -0.368 OA
BRANCH   7   8
ATOM      8  C   LIG d   1      -3.951  78.545 116.559  0.00  0.00     0.119 C 
BRANCH   8   9
ATOM      9  C   LIG d   1      -3.089  77.513 115.805  0.00  0.00     0.028 C 
ATOM     10  C   LIG d   1      -2.682  76.327 116.696  0.00  0.00     0.006 C 
ENDBRANCH   8   9
BRANCH   8  11
ATOM     11  C   LIG d   1      -3.732  78.249 118.045  0.00  0.00     0.028 C 
ATOM     12  C   LIG d   1      -3.395  79.507 118.860  0.00  0.00     0.006 C 
ENDBRANCH   8  11
ENDBRANCH   7   8
ENDBRANCH   1   7
BRANCH   6  13
ATOM     13  N   LIG d   1      -6.948  79.826 118.226  0.00  0.00    -0.311 N 
ATOM     14  C   LIG d   1      -7.363  81.073 118.008  0.00  0.00     0.210 C 
ATOM     15  C   LIG d   1      -6.749  82.130 118.930  0.00  0.00     0.109 C 
ATOM     16  O   LIG d   1      -8.206  81.399 117.158  0.00  0.00    -0.276 OA
ATOM     17  H   LIG d   1      -6.286  79.648 118.957  0.00  0.00     0.149 HD
ENDBRANCH   6  13
BRANCH   5  18
ATOM     18  N   LIG d   1      -9.786  78.696 118.264  0.00  0.00     0.381 N 
ATOM     19  H   LIG d   1      -9.814  79.111 119.175  0.00  0.00    -0.090 HD
ATOM     20  H   LIG d   1     -10.584  78.093 118.168  0.00  0.00    -0.090 HD
ATOM     21  H   LIG d   1      -9.812  79.407 117.567  0.00  0.00    -0.090 HD
ENDBRANCH   5  18
BRANCH   3  22
ATOM     22  C   LIG d   1      -7.982  74.511 116.793  0.00  0.00     0.382 C 
ATOM     23  O   LIG d   1      -9.135  74.022 116.871  0.00  0.00    -0.241 OA
ATOM     24  O   LIG d   1      -7.007  73.758 116.609  0.00  0.00    -0.241 OA
ENDBRANCH   3  22
TORSDOF 7
ENDMDL
MODEL 5
REMARK VINA RESULT:      -4.7     15.034     17.522
REMARK  7 active torsions:
REMARK  status: ('A' for Active; 'I' for Inactive)
REMARK    1  A    between atoms: C_2  and  C_3 
REMARK    2  A    between atoms: C_3  and  O_6 
REMARK    3  A    between atoms: C_3  and  C_4 
REMARK    4  A    between atoms: C_7  and  O_6 
REMARK    5  A    between atoms: C_9  and  C_10 
REMARK    6  A    between atoms: N_15  and  C_14 
REMARK    7  A    between atoms: N_20  and  C_19 
REMARK       I    between atoms: C_22  and  N_20 
ROOT
ATOM      1  C   LIG d   1      -3.589  92.806 119.078  0.00  0.00     0.161 C 
ATOM      2  C   LIG d   1      -3.585  91.789 118.109  0.00  0.00     0.016 C 
ATOM      3  C   LIG d   1      -4.763  91.206 117.588  0.00  0.00     0.038 C 
ATOM      4  C   LIG d   1      -6.036  91.710 117.893  0.00  0.00     0.028 C 
ATOM      5  C   LIG d   1      -6.106  92.401 119.250  0.00  0.00    -0.047 C 
ATOM      6  C   LIG d   1      -4.969  93.444 119.341  0.00  0.00     0.091 C 
ENDROOT
BRANCH   1   7
ATOM      7  O   LIG d   1      -2.627  93.820 118.727  0.00  0.00    -0.368 OA
BRANCH   7   8
ATOM      8  C   LIG d   1      -1.290  93.641 119.256  0.00  0.00     0.119 C 
BRANCH   8   9
ATOM      9  C   LIG d   1      -1.021  94.799 120.237  0.00  0.00     0.028 C 
ATOM     10  C   LIG d   1      -1.870  96.043 119.924  0.00  0.00     0.006 C 
ENDBRANCH   8   9
BRANCH   8  11
ATOM     11  C   LIG d   1      -0.232  93.787 118.158  0.00  0.00     0.028 C 
ATOM     12  C   LIG d   1       0.026  92.474 117.401  0.00  0.00     0.006 C 
ENDBRANCH   8  11
ENDBRANCH   7   8
ENDBRANCH   1   7
BRANCH   6  13
ATOM     13  N   LIG d   1      -4.913  94.107 120.670  0.00  0.00    -0.311 N 
ATOM     14  C   LIG d   1      -5.494  95.277 120.930  0.00  0.00     0.210 C 
ATOM     15  C   LIG d   1      -5.296  95.793 122.359  0.00  0.00     0.109 C 
ATOM     16  O   LIG d   1      -6.181  95.921 120.123  0.00  0.00    -0.276 OA
ATOM     17  H   LIG d   1      -4.402  93.639 121.392  0.00  0.00     0.149 HD
ENDBRANCH   6  13
BRANCH   5  18
ATOM     18  N   LIG d   1      -7.449  92.996 119.379  0.00  0.00     0.381 N 
ATOM     19  H   LIG d   1      -7.917  92.971 118.495  0.00  0.00    -0.090 HD
ATOM     20  H   LIG d   1      -7.353  93.957 119.657  0.00  0.00    -0.090 HD
ATOM     21  H   LIG d   1      -7.980  92.497 120.059  0.00  0.00    -0.090 HD
ENDBRANCH   5  18
BRANCH   3  22
ATOM     22  C   LIG d   1      -4.674  90.081 116.782  0.00  0.00     0.382 C 
ATOM     23  O   LIG d   1      -3.671  89.333 116.859  0.00  0.00    -0.241 OA
ATOM     24  O   LIG d   1      -5.565  89.830 115.948  0.00  0.00    -0.241 OA
ENDBRANCH   3  22
TORSDOF 7
ENDMDL
MODEL 6
REMARK VINA RESULT:      -4.7      2.329      6.094
REMARK  7 active torsions:
REMARK  status: ('A' for Active; 'I' for Inactive)
REMARK    1  A    between atoms: C_2  and  C_3 
REMARK    2  A    between atoms: C_3  and  O_6 
REMARK    3  A    between atoms: C_3  and  C_4 
REMARK    4  A    between atoms: C_7  and  O_6 
REMARK    5  A    between atoms: C_9  and  C_10 
REMARK    6  A    between atoms: N_15  and  C_14 
REMARK    7  A    between atoms: N_20  and  C_19 
REMARK       I    between atoms: C_22  and  N_20 
ROOT
ATOM      1  C   LIG d   1      -7.178  77.632 116.987  0.00  0.00     0.161 C 
ATOM      2  C   LIG d   1      -8.374  76.905 117.112  0.00  0.00     0.016 C 
ATOM      3  C   LIG d   1      -8.476  75.523 116.830  0.00  0.00     0.038 C 
ATOM      4  C   LIG d   1      -7.349  74.738 116.549  0.00  0.00     0.028 C 
ATOM      5  C   LIG d   1      -6.204  75.525 115.919  0.00  0.00    -0.047 C 
ATOM      6  C   LIG d   1      -5.914  76.770 116.788  0.00  0.00     0.091 C 
ENDROOT
BRANCH   1   7
ATOM      7  O   LIG d   1      -7.017  78.504 118.123  0.00  0.00    -0.368 OA
BRANCH   7   8
ATOM      8  C   LIG d   1      -7.558  79.841 117.983  0.00  0.00     0.119 C 
BRANCH   8   9
ATOM      9  C   LIG d   1      -6.433  80.835 118.334  0.00  0.00     0.028 C 
ATOM     10  C   LIG d   1      -5.217  80.143 118.972  0.00  0.00     0.006 C 
ENDBRANCH   8   9
BRANCH   8  11
ATOM     11  C   LIG d   1      -8.666  80.104 119.006  0.00  0.00     0.028 C 
ATOM     12  C   LIG d   1      -9.192  81.547 118.958  0.00  0.00     0.006 C 
ENDBRANCH   8  11
ENDBRANCH   7   8
ENDBRANCH   1   7
BRANCH   6  13
ATOM     13  N   LIG d   1      -4.864  77.641 116.199  0.00  0.00    -0.311 N 
ATOM     14  C   LIG d   1      -3.573  77.549 116.514  0.00  0.00     0.210 C 
ATOM     15  C   LIG d   1      -2.661  78.556 115.805  0.00  0.00     0.109 C 
ATOM     16  O   LIG d   1      -3.093  76.708 117.288  0.00  0.00    -0.276 OA
ATOM     17  H   LIG d   1      -5.162  78.331 115.537  0.00  0.00     0.149 HD
ENDBRANCH   6  13
BRANCH   5  18
ATOM     18  N   LIG d   1      -5.047  74.617 115.806  0.00  0.00     0.381 N 
ATOM     19  H   LIG d   1      -5.183  73.821 116.397  0.00  0.00    -0.090 HD
ATOM     20  H   LIG d   1      -4.222  75.101 116.113  0.00  0.00    -0.090 HD
ATOM     21  H   LIG d   1      -4.936  74.323 114.861  0.00  0.00    -0.090 HD
ENDBRANCH   5  18
BRANCH   3  22
ATOM     22  C   LIG d   1      -9.725  74.921 116.790  0.00  0.00     0.382 C 
ATOM     23  O   LIG d   1      -9.820  73.690 116.568  0.00  0.00    -0.241 OA
ATOM     24  O   LIG d   1     -10.759  75.601 116.929  0.00  0.00    -0.241 OA
ENDBRANCH   3  22
TORSDOF 7
ENDMDL
MODEL 7
REMARK VINA RESULT:      -4.7     15.089     17.580
REMARK  7 active torsions:
REMARK  status: ('A' for Active; 'I' for Inactive)
REMARK    1  A    between atoms: C_2  and  C_3 
REMARK    2  A    between atoms: C_3  and  O_6 
REMARK    3  A    between atoms: C_3  and  C_4 
REMARK    4  A    between atoms: C_7  and  O_6 
REMARK    5  A    between atoms: C_9  and  C_10 
REMARK    6  A    between atoms: N_15  and  C_14 
REMARK    7  A    between atoms: N_20  and  C_19 
REMARK       I    between atoms: C_22  and  N_20 
ROOT
ATOM      1  C   LIG d   1      -3.572  92.457 119.896  0.00  0.00     0.161 C 
ATOM      2  C   LIG d   1      -3.332  91.388 119.017  0.00  0.00     0.016 C 
ATOM      3  C   LIG d   1      -4.170  91.079 117.921  0.00  0.00     0.038 C 
ATOM      4  C   LIG d   1      -5.228  91.916 117.538  0.00  0.00     0.028 C 
ATOM      5  C   LIG d   1      -5.810  92.724 118.692  0.00  0.00    -0.047 C 
ATOM      6  C   LIG d   1      -4.659  93.448 119.428  0.00  0.00     0.091 C 
ENDROOT
BRANCH   1   7
ATOM      7  O   LIG d   1      -2.340  93.156 120.163  0.00  0.00    -0.368 OA
BRANCH   7   8
ATOM      8  C   LIG d   1      -1.879  94.055 119.125  0.00  0.00     0.119 C 
BRANCH   8   9
ATOM      9  C   LIG d   1      -0.441  93.639 118.757  0.00  0.00     0.028 C 
ATOM     10  C   LIG d   1      -0.351  93.014 117.355  0.00  0.00     0.006 C 
ENDBRANCH   8   9
BRANCH   8  11
ATOM     11  C   LIG d   1      -1.765  95.492 119.643  0.00  0.00     0.028 C 
ATOM     12  C   LIG d   1      -1.500  95.561 121.155  0.00  0.00     0.006 C 
ENDBRANCH   8  11
ENDBRANCH   7   8
ENDBRANCH   1   7
BRANCH   6  13
ATOM     13  N   LIG d   1      -5.131  94.195 120.623  0.00  0.00    -0.311 N 
ATOM     14  C   LIG d   1      -5.407  95.498 120.611  0.00  0.00     0.210 C 
ATOM     15  C   LIG d   1      -5.861  96.075 121.956  0.00  0.00     0.109 C 
ATOM     16  O   LIG d   1      -5.351  96.223 119.607  0.00  0.00    -0.276 OA
ATOM     17  H   LIG d   1      -5.235  93.677 121.473  0.00  0.00     0.149 HD
ENDBRANCH   6  13
BRANCH   5  18
ATOM     18  N   LIG d   1      -6.808  93.652 118.128  0.00  0.00     0.381 N 
ATOM     19  H   LIG d   1      -6.610  93.817 117.161  0.00  0.00    -0.090 HD
ATOM     20  H   LIG d   1      -6.750  94.529 118.616  0.00  0.00    -0.090 HD
ATOM     21  H   LIG d   1      -7.723  93.269 118.226  0.00  0.00    -0.090 HD
ENDBRANCH   5  18
BRANCH   3  22
ATOM     22  C   LIG d   1      -3.976  89.898 117.219  0.00  0.00     0.382 C 
ATOM     23  O   LIG d   1      -4.664  89.656 116.198  0.00  0.00    -0.241 OA
ATOM     24  O   LIG d   1      -3.153  89.053 117.620  0.00  0.00    -0.241 OA
ENDBRANCH   3  22
TORSDOF 7
ENDMDL
MODEL 8
REMARK VINA RESULT:      -4.6     13.617     15.857
REMARK  7 active torsions:
REMARK  status: ('A' for Active; 'I' for Inactive)
REMARK    1  A    between atoms: C_2  and  C_3 
REMARK    2  A    between atoms: C_3  and  O_6 
REMARK    3  A    between atoms: C_3  and  C_4 
REMARK    4  A    between atoms: C_7  and  O_6 
REMARK    5  A    between atoms: C_9  and  C_10 
REMARK    6  A    between atoms: N_15  and  C_14 
REMARK    7  A    between atoms: N_20  and  C_19 
REMARK       I    between atoms: C_22  and  N_20 
ROOT
ATOM      1  C   LIG d   1       0.443  90.880 116.676  0.00  0.00     0.161 C 
ATOM      2  C   LIG d   1       1.847  90.855 116.641  0.00  0.00     0.016 C 
ATOM      3  C   LIG d   1       2.661  91.580 117.542  0.00  0.00     0.038 C 
ATOM      4  C   LIG d   1       2.123  92.265 118.641  0.00  0.00     0.028 C 
ATOM      5  C   LIG d   1       0.688  92.731 118.420  0.00  0.00    -0.047 C 
ATOM      6  C   LIG d   1      -0.161  91.533 117.937  0.00  0.00     0.091 C 
ENDROOT
BRANCH   1   7
ATOM      7  O   LIG d   1      -0.074  89.546 116.506  0.00  0.00    -0.368 OA
BRANCH   7   8
ATOM      8  C   LIG d   1      -0.359  88.813 117.723  0.00  0.00     0.119 C 
BRANCH   8   9
ATOM      9  C   LIG d   1       0.538  87.560 117.730  0.00  0.00     0.028 C 
ATOM     10  C   LIG d   1       0.832  87.041 116.313  0.00  0.00     0.006 C 
ENDBRANCH   8   9
BRANCH   8  11
ATOM     11  C   LIG d   1      -1.796  88.283 117.731  0.00  0.00     0.028 C 
ATOM     12  C   LIG d   1      -2.289  87.918 119.140  0.00  0.00     0.006 C 
ENDBRANCH   8  11
ENDBRANCH   7   8
ENDBRANCH   1   7
BRANCH   6  13
ATOM     13  N   LIG d   1      -1.559  91.922 117.616  0.00  0.00    -0.311 N 
ATOM     14  C   LIG d   1      -2.565  91.818 118.482  0.00  0.00     0.210 C 
ATOM     15  C   LIG d   1      -3.931  92.255 117.942  0.00  0.00     0.109 C 
ATOM     16  O   LIG d   1      -2.451  91.436 119.657  0.00  0.00    -0.276 OA
ATOM     17  H   LIG d   1      -1.735  92.271 116.695  0.00  0.00     0.149 HD
ENDBRANCH   6  13
BRANCH   5  18
ATOM     18  N   LIG d   1       0.206  93.306 119.690  0.00  0.00     0.381 N 
ATOM     19  H   LIG d   1      -0.535  93.953 119.509  0.00  0.00    -0.090 HD
ATOM     20  H   LIG d   1       0.960  93.806 120.128  0.00  0.00    -0.090 HD
ATOM     21  H   LIG d   1      -0.116  92.581 120.292  0.00  0.00    -0.090 HD
ENDBRANCH   5  18
BRANCH   3  22
ATOM     22  C   LIG d   1       4.029  91.656 117.323  0.00  0.00     0.382 C 
ATOM     23  O   LIG d   1       4.577  92.774 117.170  0.00  0.00    -0.241 OA
ATOM     24  O   LIG d   1       4.713  90.620 117.232  0.00  0.00    -0.241 OA
ENDBRANCH   3  22
TORSDOF 7
ENDMDL
MODEL 9
REMARK VINA RESULT:      -4.6     16.861     19.519
REMARK  7 active torsions:
REMARK  status: ('A' for Active; 'I' for Inactive)
REMARK    1  A    between atoms: C_2  and  C_3 
REMARK    2  A    between atoms: C_3  and  O_6 
REMARK    3  A    between atoms: C_3  and  C_4 
REMARK    4  A    between atoms: C_7  and  O_6 
REMARK    5  A    between atoms: C_9  and  C_10 
REMARK    6  A    between atoms: N_15  and  C_14 
REMARK    7  A    between atoms: N_20  and  C_19 
REMARK       I    between atoms: C_22  and  N_20 
ROOT
ATOM      1  C   LIG d   1      -4.867  94.740 120.622  0.00  0.00     0.161 C 
ATOM      2  C   LIG d   1      -6.120  94.235 120.237  0.00  0.00     0.016 C 
ATOM      3  C   LIG d   1      -7.073  94.986 119.512  0.00  0.00     0.038 C 
ATOM      4  C   LIG d   1      -6.775  96.252 118.987  0.00  0.00     0.028 C 
ATOM      5  C   LIG d   1      -5.709  97.001 119.780  0.00  0.00    -0.047 C 
ATOM      6  C   LIG d   1      -4.481  96.081 119.962  0.00  0.00     0.091 C 
ENDROOT
BRANCH   1   7
ATOM      7  O   LIG d   1      -3.847  93.751 120.382  0.00  0.00    -0.368 OA
BRANCH   7   8
ATOM      8  C   LIG d   1      -3.397  93.620 119.011  0.00  0.00     0.119 C 
BRANCH   8   9
ATOM      9  C   LIG d   1      -3.555  92.140 118.612  0.00  0.00     0.028 C 
ATOM     10  C   LIG d   1      -4.744  91.911 117.664  0.00  0.00     0.006 C 
ENDBRANCH   8   9
BRANCH   8  11
ATOM     11  C   LIG d   1      -1.899  93.916 118.885  0.00  0.00     0.028 C 
ATOM     12  C   LIG d   1      -1.213  93.067 117.803  0.00  0.00     0.006 C 
ENDBRANCH   8  11
ENDBRANCH   7   8
ENDBRANCH   1   7
BRANCH   6  13
ATOM     13  N   LIG d   1      -3.424  96.706 120.800  0.00  0.00    -0.311 N 
ATOM     14  C   LIG d   1      -2.414  97.414 120.298  0.00  0.00     0.210 C 
ATOM     15  C   LIG d   1      -1.424  97.954 121.335  0.00  0.00     0.109 C 
ATOM     16  O   LIG d   1      -2.262  97.674 119.095  0.00  0.00    -0.276 OA
ATOM     17  H   LIG d   1      -3.488  96.571 121.790  0.00  0.00     0.149 HD
ENDBRANCH   6  13
BRANCH   5  18
ATOM     18  N   LIG d   1      -5.398  98.242 119.046  0.00  0.00     0.381 N 
ATOM     19  H   LIG d   1      -4.841  98.030 118.243  0.00  0.00    -0.090 HD
ATOM     20  H   LIG d   1      -4.869  98.850 119.646  0.00  0.00    -0.090 HD
ATOM     21  H   LIG d   1      -6.241  98.693 118.765  0.00  0.00    -0.090 HD
ENDBRANCH   5  18
BRANCH   3  22
ATOM     22  C   LIG d   1      -8.355  94.486 119.339  0.00  0.00     0.382 C 
ATOM     23  O   LIG d   1      -8.742  93.505 120.019  0.00  0.00    -0.241 OA
ATOM     24  O   LIG d   1      -9.113  94.975 118.480  0.00  0.00    -0.241 OA
ENDBRANCH   3  22
TORSDOF 7
ENDMDL
