MODEL 1
REMARK VINA RESULT:      -5.2      0.000      0.000
REMARK  7 active torsions:
REMARK  status: ('A' for Active; 'I' for Inactive)
REMARK    1  A    between atoms: C_2  and  C_3 
REMARK    2  A    between atoms: C_3  and  O_6 
REMARK    3  A    between atoms: C_3  and  C_4 
REMARK    4  A    between atoms: C_7  and  O_6 
REMARK    5  A    between atoms: C_9  and  C_10 
REMARK    6  A    between atoms: N_15  and  C_14 
REMARK    7  A    between atoms: N_20  and  C_19 
REMARK       I    between atoms: C_22  and  N_20 
ROOT
ATOM      1  C   LIG d   1      -7.522  76.401 117.958  0.00  0.00     0.161 C 
ATOM      2  C   LIG d   1      -8.792  76.968 118.152  0.00  0.00     0.016 C 
ATOM      3  C   LIG d   1      -9.038  78.360 118.110  0.00  0.00     0.038 C 
ATOM      4  C   LIG d   1      -8.049  79.275 117.719  0.00  0.00     0.028 C 
ATOM      5  C   LIG d   1      -6.631  78.795 118.006  0.00  0.00    -0.047 C 
ATOM      6  C   LIG d   1      -6.453  77.375 117.421  0.00  0.00     0.091 C 
ENDROOT
BRANCH   1   7
ATOM      7  O   LIG d   1      -7.627  75.249 117.098  0.00  0.00    -0.368 OA
BRANCH   7   8
ATOM      8  C   LIG d   1      -7.907  73.987 117.754  0.00  0.00     0.119 C 
BRANCH   8   9
ATOM      9  C   LIG d   1      -6.894  72.955 117.222  0.00  0.00     0.028 C 
ATOM     10  C   LIG d   1      -5.873  73.578 116.256  0.00  0.00     0.006 C 
ENDBRANCH   8   9
BRANCH   8  11
ATOM     11  C   LIG d   1      -9.284  73.446 117.358  0.00  0.00     0.028 C 
ATOM     12  C   LIG d   1      -9.237  71.983 116.890  0.00  0.00     0.006 C 
ENDBRANCH   8  11
ENDBRANCH   7   8
ENDBRANCH   1   7
BRANCH   6  13
ATOM     13  N   LIG d   1      -5.120  76.797 117.731  0.00  0.00    -0.311 N 
ATOM     14  C   LIG d   1      -4.081  76.861 116.900  0.00  0.00     0.210 C 
ATOM     15  C   LIG d   1      -2.805  76.183 117.407  0.00  0.00     0.109 C 
ATOM     16  O   LIG d   1      -4.087  77.444 115.805  0.00  0.00    -0.276 OA
ATOM     17  H   LIG d   1      -5.018  76.333 118.613  0.00  0.00     0.149 HD
ENDBRANCH   6  13
BRANCH   5  18
ATOM     18  N   LIG d   1      -5.700  79.781 117.425  0.00  0.00     0.381 N 
ATOM     19  H   LIG d   1      -5.829  80.669 117.867  0.00  0.00    -0.090 HD
ATOM     20  H   LIG d   1      -5.903  79.882 116.446  0.00  0.00    -0.090 HD
ATOM     21  H   LIG d   1      -4.760  79.474 117.546  0.00  0.00    -0.090 HD
ENDBRANCH   5  18
BRANCH   3  22
ATOM     22  C   LIG d   1     -10.274  78.852 118.500  0.00  0.00     0.382 C 
ATOM     23  O   LIG d   1     -10.646  79.987 118.118  0.00  0.00    -0.241 OA
ATOM     24  O   LIG d   1     -11.003  78.193 119.266  0.00  0.00    -0.241 OA
ENDBRANCH   3  22
TORSDOF 7
ENDMDL
MODEL 2
REMARK VINA RESULT:      -5.1      2.061      5.098
REMARK  7 active torsions:
REMARK  status: ('A' for Active; 'I' for Inactive)
REMARK    1  A    between atoms: C_2  and  C_3 
REMARK    2  A    between atoms: C_3  and  O_6 
REMARK    3  A    between atoms: C_3  and  C_4 
REMARK    4  A    between atoms: C_7  and  O_6 
REMARK    5  A    between atoms: C_9  and  C_10 
REMARK    6  A    between atoms: N_15  and  C_14 
REMARK    7  A    between atoms: N_20  and  C_19 
REMARK       I    between atoms: C_22  and  N_20 
ROOT
ATOM      1  C   LIG d   1      -7.779  75.513 117.462  0.00  0.00     0.161 C 
ATOM      2  C   LIG d   1      -8.320  74.220 117.373  0.00  0.00     0.016 C 
ATOM      3  C   LIG d   1      -7.532  73.048 117.310  0.00  0.00     0.038 C 
ATOM      4  C   LIG d   1      -6.140  73.081 117.486  0.00  0.00     0.028 C 
ATOM      5  C   LIG d   1      -5.509  74.406 117.073  0.00  0.00    -0.047 C 
ATOM      6  C   LIG d   1      -6.267  75.561 117.766  0.00  0.00     0.091 C 
ENDROOT
BRANCH   1   7
ATOM      7  O   LIG d   1      -8.510  76.283 118.435  0.00  0.00    -0.368 OA
BRANCH   7   8
ATOM      8  C   LIG d   1      -9.496  77.205 117.908  0.00  0.00     0.119 C 
BRANCH   8   9
ATOM      9  C   LIG d   1      -9.351  78.530 118.681  0.00  0.00     0.028 C 
ATOM     10  C   LIG d   1      -8.390  79.511 117.989  0.00  0.00     0.006 C 
ENDBRANCH   8   9
BRANCH   8  11
ATOM     11  C   LIG d   1     -10.921  76.723 118.196  0.00  0.00     0.028 C 
ATOM     12  C   LIG d   1     -11.421  77.137 119.589  0.00  0.00     0.006 C 
ENDBRANCH   8  11
ENDBRANCH   7   8
ENDBRANCH   1   7
BRANCH   6  13
ATOM     13  N   LIG d   1      -5.766  76.897 117.351  0.00  0.00    -0.311 N 
ATOM     14  C   LIG d   1      -5.101  77.716 118.164  0.00  0.00     0.210 C 
ATOM     15  C   LIG d   1      -4.693  79.055 117.540  0.00  0.00     0.109 C 
ATOM     16  O   LIG d   1      -4.782  77.448 119.332  0.00  0.00    -0.276 OA
ATOM     17  H   LIG d   1      -5.954  77.182 116.409  0.00  0.00     0.149 HD
ENDBRANCH   6  13
BRANCH   5  18
ATOM     18  N   LIG d   1      -4.080  74.351 117.436  0.00  0.00     0.381 N 
ATOM     19  H   LIG d   1      -3.958  73.771 118.242  0.00  0.00    -0.090 HD
ATOM     20  H   LIG d   1      -3.767  75.278 117.665  0.00  0.00    -0.090 HD
ATOM     21  H   LIG d   1      -3.548  73.992 116.675  0.00  0.00    -0.090 HD
ENDBRANCH   5  18
BRANCH   3  22
ATOM     22  C   LIG d   1      -8.132  71.830 117.030  0.00  0.00     0.382 C 
ATOM     23  O   LIG d   1      -9.265  71.798 116.493  0.00  0.00    -0.241 OA
ATOM     24  O   LIG d   1      -7.573  70.763 117.347  0.00  0.00    -0.241 OA
ENDBRANCH   3  22
TORSDOF 7
ENDMDL
MODEL 3
REMARK VINA RESULT:      -5.0     14.417     16.014
REMARK  7 active torsions:
REMARK  status: ('A' for Active; 'I' for Inactive)
REMARK    1  A    between atoms: C_2  and  C_3 
REMARK    2  A    between atoms: C_3  and  O_6 
REMARK    3  A    between atoms: C_3  and  C_4 
REMARK    4  A    between atoms: C_7  and  O_6 
REMARK    5  A    between atoms: C_9  and  C_10 
REMARK    6  A    between atoms: N_15  and  C_14 
REMARK    7  A    between atoms: N_20  and  C_19 
REMARK       I    between atoms: C_22  and  N_20 
ROOT
ATOM      1  C   LIG d   1      -3.913  92.163 118.431  0.00  0.00     0.161 C 
ATOM      2  C   LIG d   1      -5.242  92.615 118.498  0.00  0.00     0.016 C 
ATOM      3  C   LIG d   1      -6.294  92.053 117.738  0.00  0.00     0.038 C 
ATOM      4  C   LIG d   1      -6.115  90.895 116.967  0.00  0.00     0.028 C 
ATOM      5  C   LIG d   1      -4.684  90.709 116.476  0.00  0.00    -0.047 C 
ATOM      6  C   LIG d   1      -3.721  90.829 117.680  0.00  0.00     0.091 C 
ENDROOT
BRANCH   1   7
ATOM      7  O   LIG d   1      -3.360  92.074 119.759  0.00  0.00    -0.368 OA
BRANCH   7   8
ATOM      8  C   LIG d   1      -2.400  93.098 120.120  0.00  0.00     0.119 C 
BRANCH   8   9
ATOM      9  C   LIG d   1      -2.085  93.906 118.846  0.00  0.00     0.028 C 
ATOM     10  C   LIG d   1      -0.595  93.848 118.469  0.00  0.00     0.006 C 
ENDBRANCH   8   9
BRANCH   8  11
ATOM     11  C   LIG d   1      -1.066  92.484 120.551  0.00  0.00     0.028 C 
ATOM     12  C   LIG d   1      -1.241  91.211 121.395  0.00  0.00     0.006 C 
ENDBRANCH   8  11
ENDBRANCH   7   8
ENDBRANCH   1   7
BRANCH   6  13
ATOM     13  N   LIG d   1      -2.293  90.743 117.274  0.00  0.00    -0.311 N 
ATOM     14  C   LIG d   1      -1.432  89.875 117.802  0.00  0.00     0.210 C 
ATOM     15  C   LIG d   1      -0.004  89.968 117.256  0.00  0.00     0.109 C 
ATOM     16  O   LIG d   1      -1.724  89.015 118.647  0.00  0.00    -0.276 OA
ATOM     17  H   LIG d   1      -1.980  91.384 116.571  0.00  0.00     0.149 HD
ENDBRANCH   6  13
BRANCH   5  18
ATOM     18  N   LIG d   1      -4.609  89.398 115.805  0.00  0.00     0.381 N 
ATOM     19  H   LIG d   1      -3.799  88.902 116.120  0.00  0.00    -0.090 HD
ATOM     20  H   LIG d   1      -4.525  89.544 114.815  0.00  0.00    -0.090 HD
ATOM     21  H   LIG d   1      -5.430  88.867 116.002  0.00  0.00    -0.090 HD
ENDBRANCH   5  18
BRANCH   3  22
ATOM     22  C   LIG d   1      -7.533  92.676 117.715  0.00  0.00     0.382 C 
ATOM     23  O   LIG d   1      -8.140  92.822 116.627  0.00  0.00    -0.241 OA
ATOM     24  O   LIG d   1      -8.030  93.133 118.761  0.00  0.00    -0.241 OA
ENDBRANCH   3  22
TORSDOF 7
ENDMDL
MODEL 4
REMARK VINA RESULT:      -4.7      2.327      5.351
REMARK  7 active torsions:
REMARK  status: ('A' for Active; 'I' for Inactive)
REMARK    1  A    between atoms: C_2  and  C_3 
REMARK    2  A    between atoms: C_3  and  O_6 
REMARK    3  A    between atoms: C_3  and  C_4 
REMARK    4  A    between atoms: C_7  and  O_6 
REMARK    5  A    between atoms: C_9  and  C_10 
REMARK    6  A    between atoms: N_15  and  C_14 
REMARK    7  A    between atoms: N_20  and  C_19 
REMARK       I    between atoms: C_22  and  N_20 
ROOT
ATOM      1  C   LIG d   1      -6.896  78.082 117.886  0.00  0.00     0.161 C 
ATOM      2  C   LIG d   1      -7.139  76.717 117.664  0.00  0.00     0.016 C 
ATOM      3  C   LIG d   1      -8.422  76.129 117.760  0.00  0.00     0.038 C 
ATOM      4  C   LIG d   1      -9.579  76.901 117.937  0.00  0.00     0.028 C 
ATOM      5  C   LIG d   1      -9.325  78.215 118.667  0.00  0.00    -0.047 C 
ATOM      6  C   LIG d   1      -8.163  78.959 117.971  0.00  0.00     0.091 C 
ENDROOT
BRANCH   1   7
ATOM      7  O   LIG d   1      -6.002  78.590 116.876  0.00  0.00    -0.368 OA
BRANCH   7   8
ATOM      8  C   LIG d   1      -4.704  79.038 117.340  0.00  0.00     0.119 C 
BRANCH   8   9
ATOM      9  C   LIG d   1      -3.645  78.103 116.726  0.00  0.00     0.028 C 
ATOM     10  C   LIG d   1      -2.248  78.745 116.685  0.00  0.00     0.006 C 
ENDBRANCH   8   9
BRANCH   8  11
ATOM     11  C   LIG d   1      -4.566  78.868 118.856  0.00  0.00     0.028 C 
ATOM     12  C   LIG d   1      -4.239  80.186 119.576  0.00  0.00     0.006 C 
ENDBRANCH   8  11
ENDBRANCH   7   8
ENDBRANCH   1   7
BRANCH   6  13
ATOM     13  N   LIG d   1      -7.793  80.216 118.673  0.00  0.00    -0.311 N 
ATOM     14  C   LIG d   1      -7.581  81.371 118.045  0.00  0.00     0.210 C 
ATOM     15  C   LIG d   1      -7.191  82.540 118.955  0.00  0.00     0.109 C 
ATOM     16  O   LIG d   1      -7.711  81.547 116.824  0.00  0.00    -0.276 OA
ATOM     17  H   LIG d   1      -7.697  80.172 119.668  0.00  0.00     0.149 HD
ENDBRANCH   6  13
BRANCH   5  18
ATOM     18  N   LIG d   1     -10.587  78.980 118.661  0.00  0.00     0.381 N 
ATOM     19  H   LIG d   1     -11.196  78.634 119.375  0.00  0.00    -0.090 HD
ATOM     20  H   LIG d   1     -11.039  78.854 117.772  0.00  0.00    -0.090 HD
ATOM     21  H   LIG d   1     -10.401  79.947 118.813  0.00  0.00    -0.090 HD
ENDBRANCH   5  18
BRANCH   3  22
ATOM     22  C   LIG d   1      -8.550  74.749 117.717  0.00  0.00     0.382 C 
ATOM     23  O   LIG d   1      -7.528  74.027 117.626  0.00  0.00    -0.241 OA
ATOM     24  O   LIG d   1      -9.677  74.219 117.725  0.00  0.00    -0.241 OA
ENDBRANCH   3  22
TORSDOF 7
ENDMDL
MODEL 5
REMARK VINA RESULT:      -4.7      2.291      5.670
REMARK  7 active torsions:
REMARK  status: ('A' for Active; 'I' for Inactive)
REMARK    1  A    between atoms: C_2  and  C_3 
REMARK    2  A    between atoms: C_3  and  O_6 
REMARK    3  A    between atoms: C_3  and  C_4 
REMARK    4  A    between atoms: C_7  and  O_6 
REMARK    5  A    between atoms: C_9  and  C_10 
REMARK    6  A    between atoms: N_15  and  C_14 
REMARK    7  A    between atoms: N_20  and  C_19 
REMARK       I    between atoms: C_22  and  N_20 
ROOT
ATOM      1  C   LIG d   1      -4.401  76.019 116.589  0.00  0.00     0.161 C 
ATOM      2  C   LIG d   1      -3.280  75.174 116.631  0.00  0.00     0.016 C 
ATOM      3  C   LIG d   1      -2.267  75.274 117.612  0.00  0.00     0.038 C 
ATOM      4  C   LIG d   1      -2.384  76.134 118.714  0.00  0.00     0.028 C 
ATOM      5  C   LIG d   1      -3.252  77.357 118.439  0.00  0.00    -0.047 C 
ATOM      6  C   LIG d   1      -4.602  76.890 117.847  0.00  0.00     0.091 C 
ENDROOT
BRANCH   1   7
ATOM      7  O   LIG d   1      -5.587  75.245 116.321  0.00  0.00    -0.368 OA
BRANCH   7   8
ATOM      8  C   LIG d   1      -5.728  74.014 117.072  0.00  0.00     0.119 C 
BRANCH   8   9
ATOM      9  C   LIG d   1      -6.081  72.898 116.071  0.00  0.00     0.028 C 
ATOM     10  C   LIG d   1      -6.963  71.805 116.697  0.00  0.00     0.006 C 
ENDBRANCH   8   9
BRANCH   8  11
ATOM     11  C   LIG d   1      -6.915  74.084 118.037  0.00  0.00     0.028 C 
ATOM     12  C   LIG d   1      -7.909  75.200 117.680  0.00  0.00     0.006 C 
ENDBRANCH   8  11
ENDBRANCH   7   8
ENDBRANCH   1   7
BRANCH   6  13
ATOM     13  N   LIG d   1      -5.479  78.029 117.469  0.00  0.00    -0.311 N 
ATOM     14  C   LIG d   1      -6.415  78.531 118.273  0.00  0.00     0.210 C 
ATOM     15  C   LIG d   1      -7.222  79.691 117.681  0.00  0.00     0.109 C 
ATOM     16  O   LIG d   1      -6.633  78.146 119.432  0.00  0.00    -0.276 OA
ATOM     17  H   LIG d   1      -5.349  78.423 116.558  0.00  0.00     0.149 HD
ENDBRANCH   6  13
BRANCH   5  18
ATOM     18  N   LIG d   1      -3.401  78.093 119.708  0.00  0.00     0.381 N 
ATOM     19  H   LIG d   1      -2.569  78.614 119.897  0.00  0.00    -0.090 HD
ATOM     20  H   LIG d   1      -3.536  77.432 120.453  0.00  0.00    -0.090 HD
ATOM     21  H   LIG d   1      -4.183  78.709 119.655  0.00  0.00    -0.090 HD
ENDBRANCH   5  18
BRANCH   3  22
ATOM     22  C   LIG d   1      -1.101  74.535 117.475  0.00  0.00     0.382 C 
ATOM     23  O   LIG d   1      -0.556  74.429 116.350  0.00  0.00    -0.241 OA
ATOM     24  O   LIG d   1      -0.614  73.936 118.452  0.00  0.00    -0.241 OA
ENDBRANCH   3  22
TORSDOF 7
ENDMDL
MODEL 6
REMARK VINA RESULT:      -4.6      2.061      4.332
REMARK  7 active torsions:
REMARK  status: ('A' for Active; 'I' for Inactive)
REMARK    1  A    between atoms: C_2  and  C_3 
REMARK    2  A    between atoms: C_3  and  O_6 
REMARK    3  A    between atoms: C_3  and  C_4 
REMARK    4  A    between atoms: C_7  and  O_6 
REMARK    5  A    between atoms: C_9  and  C_10 
REMARK    6  A    between atoms: N_15  and  C_14 
REMARK    7  A    between atoms: N_20  and  C_19 
REMARK       I    between atoms: C_22  and  N_20 
ROOT
ATOM      1  C   LIG d   1      -7.152  78.135 117.566  0.00  0.00     0.161 C 
ATOM      2  C   LIG d   1      -8.056  79.139 117.952  0.00  0.00     0.016 C 
ATOM      3  C   LIG d   1      -9.414  78.889 118.255  0.00  0.00     0.038 C 
ATOM      4  C   LIG d   1      -9.928  77.586 118.338  0.00  0.00     0.028 C 
ATOM      5  C   LIG d   1      -9.180  76.584 117.466  0.00  0.00    -0.047 C 
ATOM      6  C   LIG d   1      -7.667  76.693 117.759  0.00  0.00     0.091 C 
ENDROOT
BRANCH   1   7
ATOM      7  O   LIG d   1      -5.898  78.316 118.253  0.00  0.00    -0.368 OA
BRANCH   7   8
ATOM      8  C   LIG d   1      -5.890  77.986 119.663  0.00  0.00     0.119 C 
BRANCH   8   9
ATOM      9  C   LIG d   1      -5.487  79.258 120.434  0.00  0.00     0.028 C 
ATOM     10  C   LIG d   1      -4.775  80.286 119.538  0.00  0.00     0.006 C 
ENDBRANCH   8   9
BRANCH   8  11
ATOM     11  C   LIG d   1      -4.807  76.954 119.989  0.00  0.00     0.028 C 
ATOM     12  C   LIG d   1      -3.846  76.709 118.815  0.00  0.00     0.006 C 
ENDBRANCH   8  11
ENDBRANCH   7   8
ENDBRANCH   1   7
BRANCH   6  13
ATOM     13  N   LIG d   1      -6.854  75.805 116.887  0.00  0.00    -0.311 N 
ATOM     14  C   LIG d   1      -6.440  74.594 117.256  0.00  0.00     0.210 C 
ATOM     15  C   LIG d   1      -5.597  73.854 116.213  0.00  0.00     0.109 C 
ATOM     16  O   LIG d   1      -6.717  74.051 118.336  0.00  0.00    -0.276 OA
ATOM     17  H   LIG d   1      -6.611  76.155 115.981  0.00  0.00     0.149 HD
ENDBRANCH   6  13
BRANCH   5  18
ATOM     18  N   LIG d   1      -9.730  75.245 117.754  0.00  0.00     0.381 N 
ATOM     19  H   LIG d   1      -9.236  74.555 117.224  0.00  0.00    -0.090 HD
ATOM     20  H   LIG d   1     -10.696  75.224 117.477  0.00  0.00    -0.090 HD
ATOM     21  H   LIG d   1      -9.651  75.047 118.727  0.00  0.00    -0.090 HD
ENDBRANCH   5  18
BRANCH   3  22
ATOM     22  C   LIG d   1     -10.284  79.953 118.439  0.00  0.00     0.382 C 
ATOM     23  O   LIG d   1     -10.820  80.138 119.558  0.00  0.00    -0.241 OA
ATOM     24  O   LIG d   1     -10.575  80.703 117.488  0.00  0.00    -0.241 OA
ENDBRANCH   3  22
TORSDOF 7
ENDMDL
MODEL 7
REMARK VINA RESULT:      -4.5      2.451      3.016
REMARK  7 active torsions:
REMARK  status: ('A' for Active; 'I' for Inactive)
REMARK    1  A    between atoms: C_2  and  C_3 
REMARK    2  A    between atoms: C_3  and  O_6 
REMARK    3  A    between atoms: C_3  and  C_4 
REMARK    4  A    between atoms: C_7  and  O_6 
REMARK    5  A    between atoms: C_9  and  C_10 
REMARK    6  A    between atoms: N_15  and  C_14 
REMARK    7  A    between atoms: N_20  and  C_19 
REMARK       I    between atoms: C_22  and  N_20 
ROOT
ATOM      1  C   LIG d   1      -7.629  78.578 118.496  0.00  0.00     0.161 C 
ATOM      2  C   LIG d   1      -8.451  79.456 117.771  0.00  0.00     0.016 C 
ATOM      3  C   LIG d   1      -8.249  80.855 117.727  0.00  0.00     0.038 C 
ATOM      4  C   LIG d   1      -7.113  81.458 118.287  0.00  0.00     0.028 C 
ATOM      5  C   LIG d   1      -6.526  80.674 119.456  0.00  0.00    -0.047 C 
ATOM      6  C   LIG d   1      -6.321  79.205 119.023  0.00  0.00     0.091 C 
ENDROOT
BRANCH   1   7
ATOM      7  O   LIG d   1      -7.341  77.410 117.703  0.00  0.00    -0.368 OA
BRANCH   7   8
ATOM      8  C   LIG d   1      -7.880  76.158 118.194  0.00  0.00     0.119 C 
BRANCH   8   9
ATOM      9  C   LIG d   1      -6.955  75.030 117.698  0.00  0.00     0.028 C 
ATOM     10  C   LIG d   1      -5.486  75.259 118.091  0.00  0.00     0.006 C 
ENDBRANCH   8   9
BRANCH   8  11
ATOM     11  C   LIG d   1      -9.250  75.861 117.577  0.00  0.00     0.028 C 
ATOM     12  C   LIG d   1      -9.664  74.388 117.726  0.00  0.00     0.006 C 
ENDBRANCH   8  11
ENDBRANCH   7   8
ENDBRANCH   1   7
BRANCH   6  13
ATOM     13  N   LIG d   1      -5.828  78.350 120.134  0.00  0.00    -0.311 N 
ATOM     14  C   LIG d   1      -4.537  78.107 120.356  0.00  0.00     0.210 C 
ATOM     15  C   LIG d   1      -4.248  77.183 121.543  0.00  0.00     0.109 C 
ATOM     16  O   LIG d   1      -3.604  78.596 119.703  0.00  0.00    -0.276 OA
ATOM     17  H   LIG d   1      -6.517  77.938 120.733  0.00  0.00     0.149 HD
ENDBRANCH   6  13
BRANCH   5  18
ATOM     18  N   LIG d   1      -5.272  81.341 119.854  0.00  0.00     0.381 N 
ATOM     19  H   LIG d   1      -5.161  82.190 119.338  0.00  0.00    -0.090 HD
ATOM     20  H   LIG d   1      -4.499  80.736 119.636  0.00  0.00    -0.090 HD
ATOM     21  H   LIG d   1      -5.285  81.536 120.831  0.00  0.00    -0.090 HD
ENDBRANCH   5  18
BRANCH   3  22
ATOM     22  C   LIG d   1      -9.211  81.670 117.150  0.00  0.00     0.382 C 
ATOM     23  O   LIG d   1     -10.230  81.997 117.805  0.00  0.00    -0.241 OA
ATOM     24  O   LIG d   1      -9.094  82.048 115.969  0.00  0.00    -0.241 OA
ENDBRANCH   3  22
TORSDOF 7
ENDMDL
MODEL 8
REMARK VINA RESULT:      -4.5     14.036     16.770
REMARK  7 active torsions:
REMARK  status: ('A' for Active; 'I' for Inactive)
REMARK    1  A    between atoms: C_2  and  C_3 
REMARK    2  A    between atoms: C_3  and  O_6 
REMARK    3  A    between atoms: C_3  and  C_4 
REMARK    4  A    between atoms: C_7  and  O_6 
REMARK    5  A    between atoms: C_9  and  C_10 
REMARK    6  A    between atoms: N_15  and  C_14 
REMARK    7  A    between atoms: N_20  and  C_19 
REMARK       I    between atoms: C_22  and  N_20 
ROOT
ATOM      1  C   LIG d   1      -3.017  92.402 118.133  0.00  0.00     0.161 C 
ATOM      2  C   LIG d   1      -4.411  92.330 118.292  0.00  0.00     0.016 C 
ATOM      3  C   LIG d   1      -5.151  91.135 118.138  0.00  0.00     0.038 C 
ATOM      4  C   LIG d   1      -4.524  89.893 117.962  0.00  0.00     0.028 C 
ATOM      5  C   LIG d   1      -3.157  89.993 117.294  0.00  0.00    -0.047 C 
ATOM      6  C   LIG d   1      -2.304  91.036 118.050  0.00  0.00     0.091 C 
ENDROOT
BRANCH   1   7
ATOM      7  O   LIG d   1      -2.446  93.203 119.187  0.00  0.00    -0.368 OA
BRANCH   7   8
ATOM      8  C   LIG d   1      -2.269  94.611 118.893  0.00  0.00     0.119 C 
BRANCH   8   9
ATOM      9  C   LIG d   1      -0.780  94.832 118.566  0.00  0.00     0.028 C 
ATOM     10  C   LIG d   1       0.149  94.007 119.472  0.00  0.00     0.006 C 
ENDBRANCH   8   9
BRANCH   8  11
ATOM     11  C   LIG d   1      -2.547  95.476 120.126  0.00  0.00     0.028 C 
ATOM     12  C   LIG d   1      -2.229  96.961 119.896  0.00  0.00     0.006 C 
ENDBRANCH   8  11
ENDBRANCH   7   8
ENDBRANCH   1   7
BRANCH   6  13
ATOM     13  N   LIG d   1      -0.981  91.257 117.411  0.00  0.00    -0.311 N 
ATOM     14  C   LIG d   1       0.129  90.622 117.784  0.00  0.00     0.210 C 
ATOM     15  C   LIG d   1       1.390  91.013 117.007  0.00  0.00     0.109 C 
ATOM     16  O   LIG d   1       0.183  89.749 118.663  0.00  0.00    -0.276 OA
ATOM     17  H   LIG d   1      -0.939  91.927 116.668  0.00  0.00     0.149 HD
ENDBRANCH   6  13
BRANCH   5  18
ATOM     18  N   LIG d   1      -2.560  88.644 117.298  0.00  0.00     0.381 N 
ATOM     19  H   LIG d   1      -1.693  88.660 117.797  0.00  0.00    -0.090 HD
ATOM     20  H   LIG d   1      -2.373  88.369 116.350  0.00  0.00    -0.090 HD
ATOM     21  H   LIG d   1      -3.185  87.995 117.723  0.00  0.00    -0.090 HD
ENDBRANCH   5  18
BRANCH   3  22
ATOM     22  C   LIG d   1      -6.537  91.183 118.120  0.00  0.00     0.382 C 
ATOM     23  O   LIG d   1      -7.192  90.198 117.703  0.00  0.00    -0.241 OA
ATOM     24  O   LIG d   1      -7.138  92.215 118.474  0.00  0.00    -0.241 OA
ENDBRANCH   3  22
TORSDOF 7
ENDMDL
MODEL 9
REMARK VINA RESULT:      -4.5     10.582     11.733
REMARK  7 active torsions:
REMARK  status: ('A' for Active; 'I' for Inactive)
REMARK    1  A    between atoms: C_2  and  C_3 
REMARK    2  A    between atoms: C_3  and  O_6 
REMARK    3  A    between atoms: C_3  and  C_4 
REMARK    4  A    between atoms: C_7  and  O_6 
REMARK    5  A    between atoms: C_9  and  C_10 
REMARK    6  A    between atoms: N_15  and  C_14 
REMARK    7  A    between atoms: N_20  and  C_19 
REMARK       I    between atoms: C_22  and  N_20 
ROOT
ATOM      1  C   LIG d   1     -16.071  69.546 118.944  0.00  0.00     0.161 C 
ATOM      2  C   LIG d   1     -16.208  70.758 118.246  0.00  0.00     0.016 C 
ATOM      3  C   LIG d   1     -16.567  71.977 118.865  0.00  0.00     0.038 C 
ATOM      4  C   LIG d   1     -16.667  72.099 120.259  0.00  0.00     0.028 C 
ATOM      5  C   LIG d   1     -17.032  70.793 120.957  0.00  0.00    -0.047 C 
ATOM      6  C   LIG d   1     -16.067  69.683 120.481  0.00  0.00     0.091 C 
ENDROOT
BRANCH   1   7
ATOM      7  O   LIG d   1     -14.885  68.858 118.500  0.00  0.00    -0.368 OA
BRANCH   7   8
ATOM      8  C   LIG d   1     -15.070  67.490 118.059  0.00  0.00     0.119 C 
BRANCH   8   9
ATOM      9  C   LIG d   1     -13.823  66.693 118.487  0.00  0.00     0.028 C 
ATOM     10  C   LIG d   1     -12.930  67.479 119.462  0.00  0.00     0.006 C 
ENDBRANCH   8   9
BRANCH   8  11
ATOM     11  C   LIG d   1     -15.107  67.397 116.531  0.00  0.00     0.028 C 
ATOM     12  C   LIG d   1     -15.875  66.165 116.027  0.00  0.00     0.006 C 
ENDBRANCH   8  11
ENDBRANCH   7   8
ENDBRANCH   1   7
BRANCH   6  13
ATOM     13  N   LIG d   1     -16.407  68.354 121.052  0.00  0.00    -0.311 N 
ATOM     14  C   LIG d   1     -15.654  67.730 121.957  0.00  0.00     0.210 C 
ATOM     15  C   LIG d   1     -16.176  66.359 122.398  0.00  0.00     0.109 C 
ATOM     16  O   LIG d   1     -14.622  68.197 122.461  0.00  0.00    -0.276 OA
ATOM     17  H   LIG d   1     -17.245  67.916 120.722  0.00  0.00     0.149 HD
ENDBRANCH   6  13
BRANCH   5  18
ATOM     18  N   LIG d   1     -16.966  71.031 122.411  0.00  0.00     0.381 N 
ATOM     19  H   LIG d   1     -17.619  71.745 122.667  0.00  0.00    -0.090 HD
ATOM     20  H   LIG d   1     -16.043  71.349 122.648  0.00  0.00    -0.090 HD
ATOM     21  H   LIG d   1     -17.172  70.191 122.904  0.00  0.00    -0.090 HD
ENDBRANCH   5  18
BRANCH   3  22
ATOM     22  C   LIG d   1     -16.870  73.081 118.084  0.00  0.00     0.382 C 
ATOM     23  O   LIG d   1     -16.681  73.043 116.844  0.00  0.00    -0.241 OA
ATOM     24  O   LIG d   1     -17.287  74.131 118.609  0.00  0.00    -0.241 OA
ENDBRANCH   3  22
TORSDOF 7
ENDMDL
