MODEL 1
REMARK VINA RESULT:      -5.0      0.000      0.000
REMARK  7 active torsions:
REMARK  status: ('A' for Active; 'I' for Inactive)
REMARK    1  A    between atoms: C_2  and  C_3 
REMARK    2  A    between atoms: C_3  and  O_6 
REMARK    3  A    between atoms: C_3  and  C_4 
REMARK    4  A    between atoms: C_7  and  O_6 
REMARK    5  A    between atoms: C_9  and  C_10 
REMARK    6  A    between atoms: N_15  and  C_14 
REMARK    7  A    between atoms: N_20  and  C_19 
REMARK       I    between atoms: C_22  and  N_20 
ROOT
ATOM      1  C   LIG d   1      -6.149  77.687 116.761  0.00  0.00     0.161 C 
ATOM      2  C   LIG d   1      -6.530  78.992 117.112  0.00  0.00     0.016 C 
ATOM      3  C   LIG d   1      -7.799  79.316 117.645  0.00  0.00     0.038 C 
ATOM      4  C   LIG d   1      -8.726  78.326 118.006  0.00  0.00     0.028 C 
ATOM      5  C   LIG d   1      -8.581  77.038 117.202  0.00  0.00    -0.047 C 
ATOM      6  C   LIG d   1      -7.106  76.580 117.251  0.00  0.00     0.091 C 
ENDROOT
BRANCH   1   7
ATOM      7  O   LIG d   1      -4.807  77.429 117.221  0.00  0.00    -0.368 OA
BRANCH   7   8
ATOM      8  C   LIG d   1      -3.750  78.144 116.535  0.00  0.00     0.119 C 
BRANCH   8   9
ATOM      9  C   LIG d   1      -2.838  77.095 115.869  0.00  0.00     0.028 C 
ATOM     10  C   LIG d   1      -3.268  75.654 116.193  0.00  0.00     0.006 C 
ENDBRANCH   8   9
BRANCH   8  11
ATOM     11  C   LIG d   1      -2.852  78.894 117.523  0.00  0.00     0.028 C 
ATOM     12  C   LIG d   1      -3.021  78.405 118.971  0.00  0.00     0.006 C 
ENDBRANCH   8  11
ENDBRANCH   7   8
ENDBRANCH   1   7
BRANCH   6  13
ATOM     13  N   LIG d   1      -6.859  75.372 116.420  0.00  0.00    -0.311 N 
ATOM     14  C   LIG d   1      -6.965  74.129 116.885  0.00  0.00     0.210 C 
ATOM     15  C   LIG d   1      -6.648  73.029 115.867  0.00  0.00     0.109 C 
ATOM     16  O   LIG d   1      -7.321  73.831 118.035  0.00  0.00    -0.276 OA
ATOM     17  H   LIG d   1      -6.596  75.521 115.466  0.00  0.00     0.149 HD
ENDBRANCH   6  13
BRANCH   5  18
ATOM     18  N   LIG d   1      -9.514  76.049 117.774  0.00  0.00     0.381 N 
ATOM     19  H   LIG d   1     -10.457  76.344 117.619  0.00  0.00    -0.090 HD
ATOM     20  H   LIG d   1      -9.359  75.991 118.765  0.00  0.00    -0.090 HD
ATOM     21  H   LIG d   1      -9.364  75.157 117.355  0.00  0.00    -0.090 HD
ENDBRANCH   5  18
BRANCH   3  22
ATOM     22  C   LIG d   1      -8.168  80.645 117.784  0.00  0.00     0.382 C 
ATOM     23  O   LIG d   1      -7.775  81.495 116.949  0.00  0.00    -0.241 OA
ATOM     24  O   LIG d   1      -8.851  81.013 118.759  0.00  0.00    -0.241 OA
ENDBRANCH   3  22
TORSDOF 7
ENDMDL
MODEL 2
REMARK VINA RESULT:      -4.7     18.013     21.584
REMARK  7 active torsions:
REMARK  status: ('A' for Active; 'I' for Inactive)
REMARK    1  A    between atoms: C_2  and  C_3 
REMARK    2  A    between atoms: C_3  and  O_6 
REMARK    3  A    between atoms: C_3  and  C_4 
REMARK    4  A    between atoms: C_7  and  O_6 
REMARK    5  A    between atoms: C_9  and  C_10 
REMARK    6  A    between atoms: N_15  and  C_14 
REMARK    7  A    between atoms: N_20  and  C_19 
REMARK       I    between atoms: C_22  and  N_20 
ROOT
ATOM      1  C   LIG d   1      -0.316  57.445 119.456  0.00  0.00     0.161 C 
ATOM      2  C   LIG d   1      -1.207  58.531 119.456  0.00  0.00     0.016 C 
ATOM      3  C   LIG d   1      -0.800  59.872 119.274  0.00  0.00     0.038 C 
ATOM      4  C   LIG d   1       0.517  60.206 118.925  0.00  0.00     0.028 C 
ATOM      5  C   LIG d   1       1.548  59.193 119.411  0.00  0.00    -0.047 C 
ATOM      6  C   LIG d   1       1.109  57.779 118.967  0.00  0.00     0.091 C 
ENDROOT
BRANCH   1   7
ATOM      7  O   LIG d   1      -0.868  56.359 118.686  0.00  0.00    -0.368 OA
BRANCH   7   8
ATOM      8  C   LIG d   1      -1.354  55.223 119.442  0.00  0.00     0.119 C 
BRANCH   8   9
ATOM      9  C   LIG d   1      -0.879  55.400 120.898  0.00  0.00     0.028 C 
ATOM     10  C   LIG d   1       0.061  54.269 121.349  0.00  0.00     0.006 C 
ENDBRANCH   8   9
BRANCH   8  11
ATOM     11  C   LIG d   1      -0.713  53.918 118.962  0.00  0.00     0.028 C 
ATOM     12  C   LIG d   1      -0.626  53.825 117.430  0.00  0.00     0.006 C 
ENDBRANCH   8  11
ENDBRANCH   7   8
ENDBRANCH   1   7
BRANCH   6  13
ATOM     13  N   LIG d   1       2.019  56.718 119.473  0.00  0.00    -0.311 N 
ATOM     14  C   LIG d   1       2.540  55.768 118.699  0.00  0.00     0.210 C 
ATOM     15  C   LIG d   1       3.436  54.760 119.426  0.00  0.00     0.109 C 
ATOM     16  O   LIG d   1       2.370  55.682 117.474  0.00  0.00    -0.276 OA
ATOM     17  H   LIG d   1       2.234  56.730 120.451  0.00  0.00     0.149 HD
ENDBRANCH   6  13
BRANCH   5  18
ATOM     18  N   LIG d   1       2.858  59.591 118.863  0.00  0.00     0.381 N 
ATOM     19  H   LIG d   1       3.079  60.522 119.156  0.00  0.00    -0.090 HD
ATOM     20  H   LIG d   1       2.807  59.580 117.859  0.00  0.00    -0.090 HD
ATOM     21  H   LIG d   1       3.564  58.960 119.173  0.00  0.00    -0.090 HD
ENDBRANCH   5  18
BRANCH   3  22
ATOM     22  C   LIG d   1      -1.708  60.900 119.479  0.00  0.00     0.382 C 
ATOM     23  O   LIG d   1      -2.792  60.671 120.068  0.00  0.00    -0.241 OA
ATOM     24  O   LIG d   1      -1.476  62.044 119.044  0.00  0.00    -0.241 OA
ENDBRANCH   3  22
TORSDOF 7
ENDMDL
MODEL 3
REMARK VINA RESULT:      -4.7      1.771      4.640
REMARK  7 active torsions:
REMARK  status: ('A' for Active; 'I' for Inactive)
REMARK    1  A    between atoms: C_2  and  C_3 
REMARK    2  A    between atoms: C_3  and  O_6 
REMARK    3  A    between atoms: C_3  and  C_4 
REMARK    4  A    between atoms: C_7  and  O_6 
REMARK    5  A    between atoms: C_9  and  C_10 
REMARK    6  A    between atoms: N_15  and  C_14 
REMARK    7  A    between atoms: N_20  and  C_19 
REMARK       I    between atoms: C_22  and  N_20 
ROOT
ATOM      1  C   LIG d   1      -6.785  77.787 117.325  0.00  0.00     0.161 C 
ATOM      2  C   LIG d   1      -7.077  76.466 116.947  0.00  0.00     0.016 C 
ATOM      3  C   LIG d   1      -8.346  75.869 117.121  0.00  0.00     0.038 C 
ATOM      4  C   LIG d   1      -9.460  76.607 117.549  0.00  0.00     0.028 C 
ATOM      5  C   LIG d   1      -9.095  77.806 118.417  0.00  0.00    -0.047 C 
ATOM      6  C   LIG d   1      -8.016  78.642 117.690  0.00  0.00     0.091 C 
ENDROOT
BRANCH   1   7
ATOM      7  O   LIG d   1      -6.016  78.432 116.290  0.00  0.00    -0.368 OA
BRANCH   7   8
ATOM      8  C   LIG d   1      -4.671  78.831 116.651  0.00  0.00     0.119 C 
BRANCH   8   9
ATOM      9  C   LIG d   1      -3.696  77.988 115.805  0.00  0.00     0.028 C 
ATOM     10  C   LIG d   1      -3.268  76.694 116.518  0.00  0.00     0.006 C 
ENDBRANCH   8   9
BRANCH   8  11
ATOM     11  C   LIG d   1      -4.355  78.475 118.107  0.00  0.00     0.028 C 
ATOM     12  C   LIG d   1      -3.921  79.694 118.937  0.00  0.00     0.006 C 
ENDBRANCH   8  11
ENDBRANCH   7   8
ENDBRANCH   1   7
BRANCH   6  13
ATOM     13  N   LIG d   1      -7.541  79.788 118.508  0.00  0.00    -0.311 N 
ATOM     14  C   LIG d   1      -7.493  81.040 118.057  0.00  0.00     0.210 C 
ATOM     15  C   LIG d   1      -6.952  82.067 119.057  0.00  0.00     0.109 C 
ATOM     16  O   LIG d   1      -7.877  81.403 116.935  0.00  0.00    -0.276 OA
ATOM     17  H   LIG d   1      -7.240  79.588 119.442  0.00  0.00     0.149 HD
ENDBRANCH   6  13
BRANCH   5  18
ATOM     18  N   LIG d   1     -10.335  78.562 118.677  0.00  0.00     0.381 N 
ATOM     19  H   LIG d   1     -10.684  78.337 119.587  0.00  0.00    -0.090 HD
ATOM     20  H   LIG d   1     -11.026  78.295 117.999  0.00  0.00    -0.090 HD
ATOM     21  H   LIG d   1     -10.157  79.540 118.614  0.00  0.00    -0.090 HD
ENDBRANCH   5  18
BRANCH   3  22
ATOM     22  C   LIG d   1      -8.502  74.508 116.903  0.00  0.00     0.382 C 
ATOM     23  O   LIG d   1      -7.664  73.699 117.369  0.00  0.00    -0.241 OA
ATOM     24  O   LIG d   1      -9.445  74.083 116.210  0.00  0.00    -0.241 OA
ENDBRANCH   3  22
TORSDOF 7
ENDMDL
MODEL 4
REMARK VINA RESULT:      -4.7      2.345      5.288
REMARK  7 active torsions:
REMARK  status: ('A' for Active; 'I' for Inactive)
REMARK    1  A    between atoms: C_2  and  C_3 
REMARK    2  A    between atoms: C_3  and  O_6 
REMARK    3  A    between atoms: C_3  and  C_4 
REMARK    4  A    between atoms: C_7  and  O_6 
REMARK    5  A    between atoms: C_9  and  C_10 
REMARK    6  A    between atoms: N_15  and  C_14 
REMARK    7  A    between atoms: N_20  and  C_19 
REMARK       I    between atoms: C_22  and  N_20 
ROOT
ATOM      1  C   LIG d   1      -6.252  78.591 116.654  0.00  0.00     0.161 C 
ATOM      2  C   LIG d   1      -4.900  78.215 116.587  0.00  0.00     0.016 C 
ATOM      3  C   LIG d   1      -3.941  78.583 117.559  0.00  0.00     0.038 C 
ATOM      4  C   LIG d   1      -4.304  79.229 118.750  0.00  0.00     0.028 C 
ATOM      5  C   LIG d   1      -5.570  80.070 118.623  0.00  0.00    -0.047 C 
ATOM      6  C   LIG d   1      -6.688  79.201 118.003  0.00  0.00     0.091 C 
ENDROOT
BRANCH   1   7
ATOM      7  O   LIG d   1      -7.089  77.465 116.320  0.00  0.00    -0.368 OA
BRANCH   7   8
ATOM      8  C   LIG d   1      -6.848  76.248 117.067  0.00  0.00     0.119 C 
BRANCH   8   9
ATOM      9  C   LIG d   1      -7.030  75.065 116.097  0.00  0.00     0.028 C 
ATOM     10  C   LIG d   1      -5.723  74.289 115.866  0.00  0.00     0.006 C 
ENDBRANCH   8   9
BRANCH   8  11
ATOM     11  C   LIG d   1      -7.905  76.045 118.157  0.00  0.00     0.028 C 
ATOM     12  C   LIG d   1      -9.331  76.341 117.666  0.00  0.00     0.006 C 
ENDBRANCH   8  11
ENDBRANCH   7   8
ENDBRANCH   1   7
BRANCH   6  13
ATOM     13  N   LIG d   1      -7.937  79.970 117.765  0.00  0.00    -0.311 N 
ATOM     14  C   LIG d   1      -8.964  79.981 118.614  0.00  0.00     0.210 C 
ATOM     15  C   LIG d   1     -10.163  80.824 118.167  0.00  0.00     0.109 C 
ATOM     16  O   LIG d   1      -8.982  79.400 119.709  0.00  0.00    -0.276 OA
ATOM     17  H   LIG d   1      -7.995  80.496 116.915  0.00  0.00     0.149 HD
ENDBRANCH   6  13
BRANCH   5  18
ATOM     18  N   LIG d   1      -5.908  80.573 119.968  0.00  0.00     0.381 N 
ATOM     19  H   LIG d   1      -5.155  81.130 120.320  0.00  0.00    -0.090 HD
ATOM     20  H   LIG d   1      -6.038  79.791 120.585  0.00  0.00    -0.090 HD
ATOM     21  H   LIG d   1      -6.742  81.117 119.928  0.00  0.00    -0.090 HD
ENDBRANCH   5  18
BRANCH   3  22
ATOM     22  C   LIG d   1      -2.597  78.340 117.325  0.00  0.00     0.382 C 
ATOM     23  O   LIG d   1      -2.114  77.206 117.560  0.00  0.00    -0.241 OA
ATOM     24  O   LIG d   1      -1.850  79.252 116.922  0.00  0.00    -0.241 OA
ENDBRANCH   3  22
TORSDOF 7
ENDMDL
MODEL 5
REMARK VINA RESULT:      -4.6      4.354      7.329
REMARK  7 active torsions:
REMARK  status: ('A' for Active; 'I' for Inactive)
REMARK    1  A    between atoms: C_2  and  C_3 
REMARK    2  A    between atoms: C_3  and  O_6 
REMARK    3  A    between atoms: C_3  and  C_4 
REMARK    4  A    between atoms: C_7  and  O_6 
REMARK    5  A    between atoms: C_9  and  C_10 
REMARK    6  A    between atoms: N_15  and  C_14 
REMARK    7  A    between atoms: N_20  and  C_19 
REMARK       I    between atoms: C_22  and  N_20 
ROOT
ATOM      1  C   LIG d   1      -8.176  81.608 120.332  0.00  0.00     0.161 C 
ATOM      2  C   LIG d   1      -7.421  80.820 119.447  0.00  0.00     0.016 C 
ATOM      3  C   LIG d   1      -7.737  80.669 118.077  0.00  0.00     0.038 C 
ATOM      4  C   LIG d   1      -8.749  81.421 117.462  0.00  0.00     0.028 C 
ATOM      5  C   LIG d   1      -9.856  81.846 118.421  0.00  0.00    -0.047 C 
ATOM      6  C   LIG d   1      -9.218  82.524 119.655  0.00  0.00     0.091 C 
ENDROOT
BRANCH   1   7
ATOM      7  O   LIG d   1      -7.295  82.385 121.168  0.00  0.00    -0.368 OA
BRANCH   7   8
ATOM      8  C   LIG d   1      -6.184  83.029 120.498  0.00  0.00     0.119 C 
BRANCH   8   9
ATOM      9  C   LIG d   1      -4.895  82.608 121.229  0.00  0.00     0.028 C 
ATOM     10  C   LIG d   1      -3.907  81.878 120.304  0.00  0.00     0.006 C 
ENDBRANCH   8   9
BRANCH   8  11
ATOM     11  C   LIG d   1      -6.254  84.552 120.643  0.00  0.00     0.028 C 
ATOM     12  C   LIG d   1      -6.596  85.000 122.073  0.00  0.00     0.006 C 
ENDBRANCH   8  11
ENDBRANCH   7   8
ENDBRANCH   1   7
BRANCH   6  13
ATOM     13  N   LIG d   1     -10.225  82.895 120.682  0.00  0.00    -0.311 N 
ATOM     14  C   LIG d   1     -10.405  84.141 121.116  0.00  0.00     0.210 C 
ATOM     15  C   LIG d   1     -11.483  84.302 122.193  0.00  0.00     0.109 C 
ATOM     16  O   LIG d   1      -9.796  85.134 120.688  0.00  0.00    -0.276 OA
ATOM     17  H   LIG d   1     -10.785  82.156 121.061  0.00  0.00     0.149 HD
ENDBRANCH   6  13
BRANCH   5  18
ATOM     18  N   LIG d   1     -10.770  82.736 117.680  0.00  0.00     0.381 N 
ATOM     19  H   LIG d   1     -10.251  83.279 117.019  0.00  0.00    -0.090 HD
ATOM     20  H   LIG d   1     -11.209  83.364 118.330  0.00  0.00    -0.090 HD
ATOM     21  H   LIG d   1     -11.462  82.197 117.208  0.00  0.00    -0.090 HD
ENDBRANCH   5  18
BRANCH   3  22
ATOM     22  C   LIG d   1      -7.062  79.726 117.317  0.00  0.00     0.382 C 
ATOM     23  O   LIG d   1      -7.411  78.522 117.357  0.00  0.00    -0.241 OA
ATOM     24  O   LIG d   1      -6.080  80.058 116.626  0.00  0.00    -0.241 OA
ENDBRANCH   3  22
TORSDOF 7
ENDMDL
MODEL 6
REMARK VINA RESULT:      -4.6     14.318     17.369
REMARK  7 active torsions:
REMARK  status: ('A' for Active; 'I' for Inactive)
REMARK    1  A    between atoms: C_2  and  C_3 
REMARK    2  A    between atoms: C_3  and  O_6 
REMARK    3  A    between atoms: C_3  and  C_4 
REMARK    4  A    between atoms: C_7  and  O_6 
REMARK    5  A    between atoms: C_9  and  C_10 
REMARK    6  A    between atoms: N_15  and  C_14 
REMARK    7  A    between atoms: N_20  and  C_19 
REMARK       I    between atoms: C_22  and  N_20 
ROOT
ATOM      1  C   LIG d   1      -5.653  93.737 119.269  0.00  0.00     0.161 C 
ATOM      2  C   LIG d   1      -4.576  92.912 118.903  0.00  0.00     0.016 C 
ATOM      3  C   LIG d   1      -4.607  92.040 117.791  0.00  0.00     0.038 C 
ATOM      4  C   LIG d   1      -5.668  92.045 116.874  0.00  0.00     0.028 C 
ATOM      5  C   LIG d   1      -6.992  92.495 117.482  0.00  0.00    -0.047 C 
ATOM      6  C   LIG d   1      -6.777  93.838 118.216  0.00  0.00     0.091 C 
ENDROOT
BRANCH   1   7
ATOM      7  O   LIG d   1      -5.168  95.051 119.611  0.00  0.00    -0.368 OA
BRANCH   7   8
ATOM      8  C   LIG d   1      -4.428  95.154 120.852  0.00  0.00     0.119 C 
BRANCH   8   9
ATOM      9  C   LIG d   1      -5.246  96.044 121.807  0.00  0.00     0.028 C 
ATOM     10  C   LIG d   1      -6.159  97.027 121.055  0.00  0.00     0.006 C 
ENDBRANCH   8   9
BRANCH   8  11
ATOM     11  C   LIG d   1      -3.100  95.889 120.650  0.00  0.00     0.028 C 
ATOM     12  C   LIG d   1      -2.881  96.335 119.195  0.00  0.00     0.006 C 
ENDBRANCH   8  11
ENDBRANCH   7   8
ENDBRANCH   1   7
BRANCH   6  13
ATOM     13  N   LIG d   1      -8.004  94.307 118.911  0.00  0.00    -0.311 N 
ATOM     14  C   LIG d   1      -8.552  95.503 118.704  0.00  0.00     0.210 C 
ATOM     15  C   LIG d   1      -9.803  95.795 119.539  0.00  0.00     0.109 C 
ATOM     16  O   LIG d   1      -8.140  96.337 117.883  0.00  0.00    -0.276 OA
ATOM     17  H   LIG d   1      -8.422  93.681 119.571  0.00  0.00     0.149 HD
ENDBRANCH   6  13
BRANCH   5  18
ATOM     18  N   LIG d   1      -7.978  92.585 116.388  0.00  0.00     0.381 N 
ATOM     19  H   LIG d   1      -8.594  93.357 116.550  0.00  0.00    -0.090 HD
ATOM     20  H   LIG d   1      -8.525  91.742 116.373  0.00  0.00    -0.090 HD
ATOM     21  H   LIG d   1      -7.509  92.702 115.516  0.00  0.00    -0.090 HD
ENDBRANCH   5  18
BRANCH   3  22
ATOM     22  C   LIG d   1      -3.584  91.122 117.610  0.00  0.00     0.382 C 
ATOM     23  O   LIG d   1      -3.817  90.028 117.040  0.00  0.00    -0.241 OA
ATOM     24  O   LIG d   1      -2.442  91.353 118.049  0.00  0.00    -0.241 OA
ENDBRANCH   3  22
TORSDOF 7
ENDMDL
MODEL 7
REMARK VINA RESULT:      -4.4      2.153      5.375
REMARK  7 active torsions:
REMARK  status: ('A' for Active; 'I' for Inactive)
REMARK    1  A    between atoms: C_2  and  C_3 
REMARK    2  A    between atoms: C_3  and  O_6 
REMARK    3  A    between atoms: C_3  and  C_4 
REMARK    4  A    between atoms: C_7  and  O_6 
REMARK    5  A    between atoms: C_9  and  C_10 
REMARK    6  A    between atoms: N_15  and  C_14 
REMARK    7  A    between atoms: N_20  and  C_19 
REMARK       I    between atoms: C_22  and  N_20 
ROOT
ATOM      1  C   LIG d   1      -7.224  79.125 117.892  0.00  0.00     0.161 C 
ATOM      2  C   LIG d   1      -6.224  78.434 117.187  0.00  0.00     0.016 C 
ATOM      3  C   LIG d   1      -6.362  77.096 116.751  0.00  0.00     0.038 C 
ATOM      4  C   LIG d   1      -7.576  76.403 116.860  0.00  0.00     0.028 C 
ATOM      5  C   LIG d   1      -8.449  76.886 118.013  0.00  0.00    -0.047 C 
ATOM      6  C   LIG d   1      -8.597  78.422 117.921  0.00  0.00     0.091 C 
ENDROOT
BRANCH   1   7
ATOM      7  O   LIG d   1      -7.356  80.461 117.368  0.00  0.00    -0.368 OA
BRANCH   7   8
ATOM      8  C   LIG d   1      -6.820  81.525 118.192  0.00  0.00     0.119 C 
BRANCH   8   9
ATOM      9  C   LIG d   1      -6.527  80.930 119.583  0.00  0.00     0.028 C 
ATOM     10  C   LIG d   1      -5.028  80.956 119.929  0.00  0.00     0.006 C 
ENDBRANCH   8   9
BRANCH   8  11
ATOM     11  C   LIG d   1      -7.860  82.623 118.431  0.00  0.00     0.028 C 
ATOM     12  C   LIG d   1      -7.659  83.353 119.769  0.00  0.00     0.006 C 
ENDBRANCH   8  11
ENDBRANCH   7   8
ENDBRANCH   1   7
BRANCH   6  13
ATOM     13  N   LIG d   1      -9.366  78.986 119.061  0.00  0.00    -0.311 N 
ATOM     14  C   LIG d   1     -10.250  79.974 118.931  0.00  0.00     0.210 C 
ATOM     15  C   LIG d   1     -10.918  80.420 120.235  0.00  0.00     0.109 C 
ATOM     16  O   LIG d   1     -10.568  80.501 117.854  0.00  0.00    -0.276 OA
ATOM     17  H   LIG d   1      -9.194  78.595 119.966  0.00  0.00     0.149 HD
ENDBRANCH   6  13
BRANCH   5  18
ATOM     18  N   LIG d   1      -9.738  76.174 117.925  0.00  0.00     0.381 N 
ATOM     19  H   LIG d   1      -9.599  75.269 117.521  0.00  0.00    -0.090 HD
ATOM     20  H   LIG d   1     -10.356  76.694 117.328  0.00  0.00    -0.090 HD
ATOM     21  H   LIG d   1     -10.139  76.083 118.832  0.00  0.00    -0.090 HD
ENDBRANCH   5  18
BRANCH   3  22
ATOM     22  C   LIG d   1      -5.264  76.425 116.236  0.00  0.00     0.382 C 
ATOM     23  O   LIG d   1      -4.154  77.004 116.159  0.00  0.00    -0.241 OA
ATOM     24  O   LIG d   1      -5.379  75.261 115.805  0.00  0.00    -0.241 OA
ENDBRANCH   3  22
TORSDOF 7
ENDMDL
MODEL 8
REMARK VINA RESULT:      -4.4     12.159     14.416
REMARK  7 active torsions:
REMARK  status: ('A' for Active; 'I' for Inactive)
REMARK    1  A    between atoms: C_2  and  C_3 
REMARK    2  A    between atoms: C_3  and  O_6 
REMARK    3  A    between atoms: C_3  and  C_4 
REMARK    4  A    between atoms: C_7  and  O_6 
REMARK    5  A    between atoms: C_9  and  C_10 
REMARK    6  A    between atoms: N_15  and  C_14 
REMARK    7  A    between atoms: N_20  and  C_19 
REMARK       I    between atoms: C_22  and  N_20 
ROOT
ATOM      1  C   LIG d   1     -14.910  66.768 120.013  0.00  0.00     0.161 C 
ATOM      2  C   LIG d   1     -14.563  68.047 120.479  0.00  0.00     0.016 C 
ATOM      3  C   LIG d   1     -13.527  68.281 121.412  0.00  0.00     0.038 C 
ATOM      4  C   LIG d   1     -12.662  67.259 121.832  0.00  0.00     0.028 C 
ATOM      5  C   LIG d   1     -13.292  65.872 121.777  0.00  0.00    -0.047 C 
ATOM      6  C   LIG d   1     -13.905  65.654 120.374  0.00  0.00     0.091 C 
ENDROOT
BRANCH   1   7
ATOM      7  O   LIG d   1     -15.122  66.808 118.588  0.00  0.00    -0.368 OA
BRANCH   7   8
ATOM      8  C   LIG d   1     -16.489  67.012 118.153  0.00  0.00     0.119 C 
BRANCH   8   9
ATOM      9  C   LIG d   1     -17.137  65.623 117.996  0.00  0.00     0.028 C 
ATOM     10  C   LIG d   1     -16.629  64.876 116.751  0.00  0.00     0.006 C 
ENDBRANCH   8   9
BRANCH   8  11
ATOM     11  C   LIG d   1     -16.542  67.644 116.760  0.00  0.00     0.028 C 
ATOM     12  C   LIG d   1     -15.451  68.705 116.545  0.00  0.00     0.006 C 
ENDBRANCH   8  11
ENDBRANCH   7   8
ENDBRANCH   1   7
BRANCH   6  13
ATOM     13  N   LIG d   1     -14.616  64.354 120.262  0.00  0.00    -0.311 N 
ATOM     14  C   LIG d   1     -14.338  63.445 119.329  0.00  0.00     0.210 C 
ATOM     15  C   LIG d   1     -15.203  62.181 119.379  0.00  0.00     0.109 C 
ATOM     16  O   LIG d   1     -13.435  63.551 118.485  0.00  0.00    -0.276 OA
ATOM     17  H   LIG d   1     -15.342  64.172 120.927  0.00  0.00     0.149 HD
ENDBRANCH   6  13
BRANCH   5  18
ATOM     18  N   LIG d   1     -12.241  64.891 122.107  0.00  0.00     0.381 N 
ATOM     19  H   LIG d   1     -12.581  64.247 122.793  0.00  0.00    -0.090 HD
ATOM     20  H   LIG d   1     -11.453  65.379 122.496  0.00  0.00    -0.090 HD
ATOM     21  H   LIG d   1     -11.964  64.399 121.286  0.00  0.00    -0.090 HD
ENDBRANCH   5  18
BRANCH   3  22
ATOM     22  C   LIG d   1     -13.374  69.543 121.967  0.00  0.00     0.382 C 
ATOM     23  O   LIG d   1     -12.229  69.964 122.261  0.00  0.00    -0.241 OA
ATOM     24  O   LIG d   1     -14.370  70.247 122.219  0.00  0.00    -0.241 OA
ENDBRANCH   3  22
TORSDOF 7
ENDMDL
MODEL 9
REMARK VINA RESULT:      -4.1     12.587     15.263
REMARK  7 active torsions:
REMARK  status: ('A' for Active; 'I' for Inactive)
REMARK    1  A    between atoms: C_2  and  C_3 
REMARK    2  A    between atoms: C_3  and  O_6 
REMARK    3  A    between atoms: C_3  and  C_4 
REMARK    4  A    between atoms: C_7  and  O_6 
REMARK    5  A    between atoms: C_9  and  C_10 
REMARK    6  A    between atoms: N_15  and  C_14 
REMARK    7  A    between atoms: N_20  and  C_19 
REMARK       I    between atoms: C_22  and  N_20 
ROOT
ATOM      1  C   LIG d   1     -15.991  66.349 118.722  0.00  0.00     0.161 C 
ATOM      2  C   LIG d   1     -16.168  67.741 118.638  0.00  0.00     0.016 C 
ATOM      3  C   LIG d   1     -15.430  68.667 119.410  0.00  0.00     0.038 C 
ATOM      4  C   LIG d   1     -14.352  68.269 120.214  0.00  0.00     0.028 C 
ATOM      5  C   LIG d   1     -14.467  66.834 120.715  0.00  0.00    -0.047 C 
ATOM      6  C   LIG d   1     -14.743  65.903 119.512  0.00  0.00     0.091 C 
ENDROOT
BRANCH   1   7
ATOM      7  O   LIG d   1     -15.977  65.778 117.399  0.00  0.00    -0.368 OA
BRANCH   7   8
ATOM      8  C   LIG d   1     -17.050  64.853 117.093  0.00  0.00     0.119 C 
BRANCH   8   9
ATOM      9  C   LIG d   1     -17.843  65.439 115.910  0.00  0.00     0.028 C 
ATOM     10  C   LIG d   1     -19.027  66.308 116.369  0.00  0.00     0.006 C 
ENDBRANCH   8   9
BRANCH   8  11
ATOM     11  C   LIG d   1     -18.052  64.761 118.248  0.00  0.00     0.028 C 
ATOM     12  C   LIG d   1     -18.227  63.327 118.773  0.00  0.00     0.006 C 
ENDBRANCH   8  11
ENDBRANCH   7   8
ENDBRANCH   1   7
BRANCH   6  13
ATOM     13  N   LIG d   1     -14.954  64.491 119.925  0.00  0.00    -0.311 N 
ATOM     14  C   LIG d   1     -14.336  63.460 119.351  0.00  0.00     0.210 C 
ATOM     15  C   LIG d   1     -14.711  62.086 119.915  0.00  0.00     0.109 C 
ATOM     16  O   LIG d   1     -13.488  63.555 118.450  0.00  0.00    -0.276 OA
ATOM     17  H   LIG d   1     -15.602  64.325 120.670  0.00  0.00     0.149 HD
ENDBRANCH   6  13
BRANCH   5  18
ATOM     18  N   LIG d   1     -13.216  66.507 121.424  0.00  0.00     0.381 N 
ATOM     19  H   LIG d   1     -13.388  65.793 122.104  0.00  0.00    -0.090 HD
ATOM     20  H   LIG d   1     -12.890  67.327 121.904  0.00  0.00    -0.090 HD
ATOM     21  H   LIG d   1     -12.527  66.197 120.774  0.00  0.00    -0.090 HD
ENDBRANCH   5  18
BRANCH   3  22
ATOM     22  C   LIG d   1     -15.795  70.005 119.412  0.00  0.00     0.382 C 
ATOM     23  O   LIG d   1     -16.392  70.490 120.402  0.00  0.00    -0.241 OA
ATOM     24  O   LIG d   1     -15.573  70.721 118.417  0.00  0.00    -0.241 OA
ENDBRANCH   3  22
TORSDOF 7
ENDMDL
