MODEL 1
REMARK VINA RESULT:      -5.1      0.000      0.000
REMARK  7 active torsions:
REMARK  status: ('A' for Active; 'I' for Inactive)
REMARK    1  A    between atoms: C_2  and  C_3 
REMARK    2  A    between atoms: C_3  and  O_6 
REMARK    3  A    between atoms: C_3  and  C_4 
REMARK    4  A    between atoms: C_7  and  O_6 
REMARK    5  A    between atoms: C_9  and  C_10 
REMARK    6  A    between atoms: N_15  and  C_14 
REMARK    7  A    between atoms: N_20  and  C_19 
REMARK       I    between atoms: C_22  and  N_20 
ROOT
ATOM      1  C   LIG d   1      -5.390  92.991 118.889  0.00  0.00     0.161 C 
ATOM      2  C   LIG d   1      -6.227  92.228 118.058  0.00  0.00     0.016 C 
ATOM      3  C   LIG d   1      -5.749  91.234 117.173  0.00  0.00     0.038 C 
ATOM      4  C   LIG d   1      -4.406  90.829 117.169  0.00  0.00     0.028 C 
ATOM      5  C   LIG d   1      -3.443  91.919 117.628  0.00  0.00    -0.047 C 
ATOM      6  C   LIG d   1      -3.934  92.486 118.979  0.00  0.00     0.091 C 
ENDROOT
BRANCH   1   7
ATOM      7  O   LIG d   1      -5.968  93.091 120.205  0.00  0.00    -0.368 OA
BRANCH   7   8
ATOM      8  C   LIG d   1      -6.402  94.412 120.612  0.00  0.00     0.119 C 
BRANCH   8   9
ATOM      9  C   LIG d   1      -7.942  94.404 120.644  0.00  0.00     0.028 C 
ATOM     10  C   LIG d   1      -8.559  94.742 119.276  0.00  0.00     0.006 C 
ENDBRANCH   8   9
BRANCH   8  11
ATOM     11  C   LIG d   1      -6.023  95.468 119.570  0.00  0.00     0.028 C 
ATOM     12  C   LIG d   1      -5.718  96.839 120.194  0.00  0.00     0.006 C 
ENDBRANCH   8  11
ENDBRANCH   7   8
ENDBRANCH   1   7
BRANCH   6  13
ATOM     13  N   LIG d   1      -3.096  93.615 119.459  0.00  0.00    -0.311 N 
ATOM     14  C   LIG d   1      -2.706  93.753 120.725  0.00  0.00     0.210 C 
ATOM     15  C   LIG d   1      -1.863  95.000 121.010  0.00  0.00     0.109 C 
ATOM     16  O   LIG d   1      -2.952  92.945 121.633  0.00  0.00    -0.276 OA
ATOM     17  H   LIG d   1      -2.824  94.301 118.782  0.00  0.00     0.149 HD
ENDBRANCH   6  13
BRANCH   5  18
ATOM     18  N   LIG d   1      -2.097  91.320 117.707  0.00  0.00     0.381 N 
ATOM     19  H   LIG d   1      -1.571  91.764 118.433  0.00  0.00    -0.090 HD
ATOM     20  H   LIG d   1      -1.622  91.472 116.835  0.00  0.00    -0.090 HD
ATOM     21  H   LIG d   1      -2.169  90.343 117.889  0.00  0.00    -0.090 HD
ENDBRANCH   5  18
BRANCH   3  22
ATOM     22  C   LIG d   1      -6.612  90.663 116.250  0.00  0.00     0.382 C 
ATOM     23  O   LIG d   1      -6.383  89.512 115.806  0.00  0.00    -0.241 OA
ATOM     24  O   LIG d   1      -7.593  91.301 115.823  0.00  0.00    -0.241 OA
ENDBRANCH   3  22
TORSDOF 7
ENDMDL
MODEL 2
REMARK VINA RESULT:      -5.0      2.587      5.056
REMARK  7 active torsions:
REMARK  status: ('A' for Active; 'I' for Inactive)
REMARK    1  A    between atoms: C_2  and  C_3 
REMARK    2  A    between atoms: C_3  and  O_6 
REMARK    3  A    between atoms: C_3  and  C_4 
REMARK    4  A    between atoms: C_7  and  O_6 
REMARK    5  A    between atoms: C_9  and  C_10 
REMARK    6  A    between atoms: N_15  and  C_14 
REMARK    7  A    between atoms: N_20  and  C_19 
REMARK       I    between atoms: C_22  and  N_20 
ROOT
ATOM      1  C   LIG d   1      -2.811  91.718 118.474  0.00  0.00     0.161 C 
ATOM      2  C   LIG d   1      -3.685  91.111 117.557  0.00  0.00     0.016 C 
ATOM      3  C   LIG d   1      -5.083  91.323 117.557  0.00  0.00     0.038 C 
ATOM      4  C   LIG d   1      -5.688  92.281 118.385  0.00  0.00     0.028 C 
ATOM      5  C   LIG d   1      -4.912  92.547 119.670  0.00  0.00    -0.047 C 
ATOM      6  C   LIG d   1      -3.439  92.851 119.313  0.00  0.00     0.091 C 
ENDROOT
BRANCH   1   7
ATOM      7  O   LIG d   1      -1.637  92.195 117.788  0.00  0.00    -0.368 OA
BRANCH   7   8
ATOM      8  C   LIG d   1      -0.445  91.381 117.923  0.00  0.00     0.119 C 
BRANCH   8   9
ATOM      9  C   LIG d   1       0.645  92.260 118.566  0.00  0.00     0.028 C 
ATOM     10  C   LIG d   1       1.117  91.710 119.923  0.00  0.00     0.006 C 
ENDBRANCH   8   9
BRANCH   8  11
ATOM     11  C   LIG d   1       0.113  90.978 116.555  0.00  0.00     0.028 C 
ATOM     12  C   LIG d   1       1.034  89.750 116.625  0.00  0.00     0.006 C 
ENDBRANCH   8  11
ENDBRANCH   7   8
ENDBRANCH   1   7
BRANCH   6  13
ATOM     13  N   LIG d   1      -2.591  93.041 120.518  0.00  0.00    -0.311 N 
ATOM     14  C   LIG d   1      -1.739  94.055 120.664  0.00  0.00     0.210 C 
ATOM     15  C   LIG d   1      -0.947  94.051 121.975  0.00  0.00     0.109 C 
ATOM     16  O   LIG d   1      -1.588  94.974 119.845  0.00  0.00    -0.276 OA
ATOM     17  H   LIG d   1      -2.673  92.358 121.246  0.00  0.00     0.149 HD
ENDBRANCH   6  13
BRANCH   5  18
ATOM     18  N   LIG d   1      -5.578  93.661 120.371  0.00  0.00     0.381 N 
ATOM     19  H   LIG d   1      -6.501  93.787 120.005  0.00  0.00    -0.090 HD
ATOM     20  H   LIG d   1      -5.057  94.504 120.210  0.00  0.00    -0.090 HD
ATOM     21  H   LIG d   1      -5.624  93.471 121.348  0.00  0.00    -0.090 HD
ENDBRANCH   5  18
BRANCH   3  22
ATOM     22  C   LIG d   1      -5.896  90.543 116.749  0.00  0.00     0.382 C 
ATOM     23  O   LIG d   1      -5.396  89.885 115.805  0.00  0.00    -0.241 OA
ATOM     24  O   LIG d   1      -7.129  90.524 116.924  0.00  0.00    -0.241 OA
ENDBRANCH   3  22
TORSDOF 7
ENDMDL
MODEL 3
REMARK VINA RESULT:      -4.9      2.857      5.306
REMARK  7 active torsions:
REMARK  status: ('A' for Active; 'I' for Inactive)
REMARK    1  A    between atoms: C_2  and  C_3 
REMARK    2  A    between atoms: C_3  and  O_6 
REMARK    3  A    between atoms: C_3  and  C_4 
REMARK    4  A    between atoms: C_7  and  O_6 
REMARK    5  A    between atoms: C_9  and  C_10 
REMARK    6  A    between atoms: N_15  and  C_14 
REMARK    7  A    between atoms: N_20  and  C_19 
REMARK       I    between atoms: C_22  and  N_20 
ROOT
ATOM      1  C   LIG d   1      -5.722  94.737 120.299  0.00  0.00     0.161 C 
ATOM      2  C   LIG d   1      -6.935  94.041 120.433  0.00  0.00     0.016 C 
ATOM      3  C   LIG d   1      -8.196  94.614 120.147  0.00  0.00     0.038 C 
ATOM      4  C   LIG d   1      -8.318  95.882 119.560  0.00  0.00     0.028 C 
ATOM      5  C   LIG d   1      -7.152  96.812 119.878  0.00  0.00    -0.047 C 
ATOM      6  C   LIG d   1      -5.827  96.084 119.554  0.00  0.00     0.091 C 
ENDROOT
BRANCH   1   7
ATOM      7  O   LIG d   1      -4.741  93.890 119.668  0.00  0.00    -0.368 OA
BRANCH   7   8
ATOM      8  C   LIG d   1      -4.995  92.465 119.728  0.00  0.00     0.119 C 
BRANCH   8   9
ATOM      9  C   LIG d   1      -3.889  91.834 120.596  0.00  0.00     0.028 C 
ATOM     10  C   LIG d   1      -2.672  91.392 119.766  0.00  0.00     0.006 C 
ENDBRANCH   8   9
BRANCH   8  11
ATOM     11  C   LIG d   1      -4.849  91.815 118.349  0.00  0.00     0.028 C 
ATOM     12  C   LIG d   1      -6.184  91.708 117.596  0.00  0.00     0.006 C 
ENDBRANCH   8  11
ENDBRANCH   7   8
ENDBRANCH   1   7
BRANCH   6  13
ATOM     13  N   LIG d   1      -4.633  96.892 119.916  0.00  0.00    -0.311 N 
ATOM     14  C   LIG d   1      -4.040  97.739 119.076  0.00  0.00     0.210 C 
ATOM     15  C   LIG d   1      -2.811  98.457 119.643  0.00  0.00     0.109 C 
ATOM     16  O   LIG d   1      -4.433  97.987 117.927  0.00  0.00    -0.276 OA
ATOM     17  H   LIG d   1      -4.266  96.776 120.840  0.00  0.00     0.149 HD
ENDBRANCH   6  13
BRANCH   5  18
ATOM     18  N   LIG d   1      -7.339  98.047 119.093  0.00  0.00     0.381 N 
ATOM     19  H   LIG d   1      -7.717  97.823 118.194  0.00  0.00    -0.090 HD
ATOM     20  H   LIG d   1      -6.445  98.486 118.959  0.00  0.00    -0.090 HD
ATOM     21  H   LIG d   1      -7.953  98.667 119.574  0.00  0.00    -0.090 HD
ENDBRANCH   5  18
BRANCH   3  22
ATOM     22  C   LIG d   1      -9.354  93.931 120.487  0.00  0.00     0.382 C 
ATOM     23  O   LIG d   1      -9.587  93.651 121.687  0.00  0.00    -0.241 OA
ATOM     24  O   LIG d   1     -10.146  93.553 119.603  0.00  0.00    -0.241 OA
ENDBRANCH   3  22
TORSDOF 7
ENDMDL
MODEL 4
REMARK VINA RESULT:      -4.8     33.087     35.266
REMARK  7 active torsions:
REMARK  status: ('A' for Active; 'I' for Inactive)
REMARK    1  A    between atoms: C_2  and  C_3 
REMARK    2  A    between atoms: C_3  and  O_6 
REMARK    3  A    between atoms: C_3  and  C_4 
REMARK    4  A    between atoms: C_7  and  O_6 
REMARK    5  A    between atoms: C_9  and  C_10 
REMARK    6  A    between atoms: N_15  and  C_14 
REMARK    7  A    between atoms: N_20  and  C_19 
REMARK       I    between atoms: C_22  and  N_20 
ROOT
ATOM      1  C   LIG d   1       0.410  58.729 118.879  0.00  0.00     0.161 C 
ATOM      2  C   LIG d   1      -0.899  59.031 118.470  0.00  0.00     0.016 C 
ATOM      3  C   LIG d   1      -1.547  58.384 117.393  0.00  0.00     0.038 C 
ATOM      4  C   LIG d   1      -0.980  57.277 116.744  0.00  0.00     0.028 C 
ATOM      5  C   LIG d   1       0.544  57.264 116.790  0.00  0.00    -0.047 C 
ATOM      6  C   LIG d   1       1.004  57.449 118.254  0.00  0.00     0.091 C 
ENDROOT
BRANCH   1   7
ATOM      7  O   LIG d   1       0.469  58.658 120.317  0.00  0.00    -0.368 OA
BRANCH   7   8
ATOM      8  C   LIG d   1       1.052  59.802 120.989  0.00  0.00     0.119 C 
BRANCH   8   9
ATOM      9  C   LIG d   1       2.374  59.339 121.631  0.00  0.00     0.028 C 
ATOM     10  C   LIG d   1       2.225  58.005 122.382  0.00  0.00     0.006 C 
ENDBRANCH   8   9
BRANCH   8  11
ATOM     11  C   LIG d   1       0.176  60.269 122.155  0.00  0.00     0.028 C 
ATOM     12  C   LIG d   1      -1.084  61.016 121.692  0.00  0.00     0.006 C 
ENDBRANCH   8  11
ENDBRANCH   7   8
ENDBRANCH   1   7
BRANCH   6  13
ATOM     13  N   LIG d   1       2.483  57.532 118.378  0.00  0.00    -0.311 N 
ATOM     14  C   LIG d   1       3.209  56.666 119.083  0.00  0.00     0.210 C 
ATOM     15  C   LIG d   1       4.715  56.946 119.096  0.00  0.00     0.109 C 
ATOM     16  O   LIG d   1       2.752  55.675 119.673  0.00  0.00    -0.276 OA
ATOM     17  H   LIG d   1       2.938  58.288 117.906  0.00  0.00     0.149 HD
ENDBRANCH   6  13
BRANCH   5  18
ATOM     18  N   LIG d   1       0.997  55.990 116.199  0.00  0.00     0.381 N 
ATOM     19  H   LIG d   1       1.439  56.164 115.318  0.00  0.00    -0.090 HD
ATOM     20  H   LIG d   1       0.197  55.403 116.040  0.00  0.00    -0.090 HD
ATOM     21  H   LIG d   1       1.635  55.536 116.814  0.00  0.00    -0.090 HD
ENDBRANCH   5  18
BRANCH   3  22
ATOM     22  C   LIG d   1      -2.761  58.868 116.930  0.00  0.00     0.382 C 
ATOM     23  O   LIG d   1      -2.826  59.426 115.808  0.00  0.00    -0.241 OA
ATOM     24  O   LIG d   1      -3.783  58.795 117.638  0.00  0.00    -0.241 OA
ENDBRANCH   3  22
TORSDOF 7
ENDMDL
MODEL 5
REMARK VINA RESULT:      -4.7     13.643     16.330
REMARK  7 active torsions:
REMARK  status: ('A' for Active; 'I' for Inactive)
REMARK    1  A    between atoms: C_2  and  C_3 
REMARK    2  A    between atoms: C_3  and  O_6 
REMARK    3  A    between atoms: C_3  and  C_4 
REMARK    4  A    between atoms: C_7  and  O_6 
REMARK    5  A    between atoms: C_9  and  C_10 
REMARK    6  A    between atoms: N_15  and  C_14 
REMARK    7  A    between atoms: N_20  and  C_19 
REMARK       I    between atoms: C_22  and  N_20 
ROOT
ATOM      1  C   LIG d   1      -6.607  77.180 117.453  0.00  0.00     0.161 C 
ATOM      2  C   LIG d   1      -7.242  75.927 117.425  0.00  0.00     0.016 C 
ATOM      3  C   LIG d   1      -8.597  75.733 117.777  0.00  0.00     0.038 C 
ATOM      4  C   LIG d   1      -9.457  76.811 118.038  0.00  0.00     0.028 C 
ATOM      5  C   LIG d   1      -8.736  78.045 118.569  0.00  0.00    -0.047 C 
ATOM      6  C   LIG d   1      -7.557  78.383 117.628  0.00  0.00     0.091 C 
ENDROOT
BRANCH   1   7
ATOM      7  O   LIG d   1      -5.801  77.346 116.270  0.00  0.00    -0.368 OA
BRANCH   7   8
ATOM      8  C   LIG d   1      -4.366  77.330 116.469  0.00  0.00     0.119 C 
BRANCH   8   9
ATOM      9  C   LIG d   1      -3.821  76.048 115.810  0.00  0.00     0.028 C 
ATOM     10  C   LIG d   1      -3.657  74.896 116.816  0.00  0.00     0.006 C 
ENDBRANCH   8   9
BRANCH   8  11
ATOM     11  C   LIG d   1      -4.010  77.206 117.953  0.00  0.00     0.028 C 
ATOM     12  C   LIG d   1      -3.239  78.425 118.485  0.00  0.00     0.006 C 
ENDBRANCH   8  11
ENDBRANCH   7   8
ENDBRANCH   1   7
BRANCH   6  13
ATOM     13  N   LIG d   1      -6.748  79.528 118.120  0.00  0.00    -0.311 N 
ATOM     14  C   LIG d   1      -6.937  80.784 117.722  0.00  0.00     0.210 C 
ATOM     15  C   LIG d   1      -5.980  81.809 118.338  0.00  0.00     0.109 C 
ATOM     16  O   LIG d   1      -7.828  81.152 116.941  0.00  0.00    -0.276 OA
ATOM     17  H   LIG d   1      -6.024  79.324 118.780  0.00  0.00     0.149 HD
ENDBRANCH   6  13
BRANCH   5  18
ATOM     18  N   LIG d   1      -9.728  79.133 118.666  0.00  0.00     0.381 N 
ATOM     19  H   LIG d   1     -10.571  78.866 118.197  0.00  0.00    -0.090 HD
ATOM     20  H   LIG d   1      -9.360  79.950 118.211  0.00  0.00    -0.090 HD
ATOM     21  H   LIG d   1      -9.921  79.335 119.622  0.00  0.00    -0.090 HD
ENDBRANCH   5  18
BRANCH   3  22
ATOM     22  C   LIG d   1      -9.096  74.446 117.910  0.00  0.00     0.382 C 
ATOM     23  O   LIG d   1      -8.322  73.501 118.196  0.00  0.00    -0.241 OA
ATOM     24  O   LIG d   1     -10.301  74.211 117.703  0.00  0.00    -0.241 OA
ENDBRANCH   3  22
TORSDOF 7
ENDMDL
MODEL 6
REMARK VINA RESULT:      -4.7      2.676      4.807
REMARK  7 active torsions:
REMARK  status: ('A' for Active; 'I' for Inactive)
REMARK    1  A    between atoms: C_2  and  C_3 
REMARK    2  A    between atoms: C_3  and  O_6 
REMARK    3  A    between atoms: C_3  and  C_4 
REMARK    4  A    between atoms: C_7  and  O_6 
REMARK    5  A    between atoms: C_9  and  C_10 
REMARK    6  A    between atoms: N_15  and  C_14 
REMARK    7  A    between atoms: N_20  and  C_19 
REMARK       I    between atoms: C_22  and  N_20 
ROOT
ATOM      1  C   LIG d   1      -5.151  94.542 120.565  0.00  0.00     0.161 C 
ATOM      2  C   LIG d   1      -3.808  94.195 120.339  0.00  0.00     0.016 C 
ATOM      3  C   LIG d   1      -3.409  93.152 119.472  0.00  0.00     0.038 C 
ATOM      4  C   LIG d   1      -4.326  92.478 118.651  0.00  0.00     0.028 C 
ATOM      5  C   LIG d   1      -5.741  92.451 119.219  0.00  0.00    -0.047 C 
ATOM      6  C   LIG d   1      -6.159  93.892 119.594  0.00  0.00     0.091 C 
ENDROOT
BRANCH   1   7
ATOM      7  O   LIG d   1      -5.295  95.976 120.550  0.00  0.00    -0.368 OA
BRANCH   7   8
ATOM      8  C   LIG d   1      -5.623  96.570 119.271  0.00  0.00     0.119 C 
BRANCH   8   9
ATOM      9  C   LIG d   1      -4.440  97.467 118.859  0.00  0.00     0.028 C 
ATOM     10  C   LIG d   1      -4.875  98.638 117.962  0.00  0.00     0.006 C 
ENDBRANCH   8   9
BRANCH   8  11
ATOM     11  C   LIG d   1      -6.825  97.513 119.387  0.00  0.00     0.028 C 
ATOM     12  C   LIG d   1      -7.389  97.586 120.814  0.00  0.00     0.006 C 
ENDBRANCH   8  11
ENDBRANCH   7   8
ENDBRANCH   1   7
BRANCH   6  13
ATOM     13  N   LIG d   1      -7.499  93.945 120.235  0.00  0.00    -0.311 N 
ATOM     14  C   LIG d   1      -8.632  94.100 119.552  0.00  0.00     0.210 C 
ATOM     15  C   LIG d   1      -9.901  94.148 120.409  0.00  0.00     0.109 C 
ATOM     16  O   LIG d   1      -8.710  94.170 118.317  0.00  0.00    -0.276 OA
ATOM     17  H   LIG d   1      -7.531  93.865 121.232  0.00  0.00     0.149 HD
ENDBRANCH   6  13
BRANCH   5  18
ATOM     18  N   LIG d   1      -6.618  91.842 118.201  0.00  0.00     0.381 N 
ATOM     19  H   LIG d   1      -7.354  91.333 118.649  0.00  0.00    -0.090 HD
ATOM     20  H   LIG d   1      -6.078  91.197 117.651  0.00  0.00    -0.090 HD
ATOM     21  H   LIG d   1      -7.003  92.549 117.615  0.00  0.00    -0.090 HD
ENDBRANCH   5  18
BRANCH   3  22
ATOM     22  C   LIG d   1      -2.084  92.745 119.450  0.00  0.00     0.382 C 
ATOM     23  O   LIG d   1      -1.191  93.539 119.067  0.00  0.00    -0.241 OA
ATOM     24  O   LIG d   1      -1.775  91.581 119.766  0.00  0.00    -0.241 OA
ENDBRANCH   3  22
TORSDOF 7
ENDMDL
MODEL 7
REMARK VINA RESULT:      -4.6     12.961     15.675
REMARK  7 active torsions:
REMARK  status: ('A' for Active; 'I' for Inactive)
REMARK    1  A    between atoms: C_2  and  C_3 
REMARK    2  A    between atoms: C_3  and  O_6 
REMARK    3  A    between atoms: C_3  and  C_4 
REMARK    4  A    between atoms: C_7  and  O_6 
REMARK    5  A    between atoms: C_9  and  C_10 
REMARK    6  A    between atoms: N_15  and  C_14 
REMARK    7  A    between atoms: N_20  and  C_19 
REMARK       I    between atoms: C_22  and  N_20 
ROOT
ATOM      1  C   LIG d   1      -6.914  77.859 117.786  0.00  0.00     0.161 C 
ATOM      2  C   LIG d   1      -7.638  76.666 117.623  0.00  0.00     0.016 C 
ATOM      3  C   LIG d   1      -9.016  76.546 117.916  0.00  0.00     0.038 C 
ATOM      4  C   LIG d   1      -9.802  77.659 118.249  0.00  0.00     0.028 C 
ATOM      5  C   LIG d   1      -9.013  78.782 118.913  0.00  0.00    -0.047 C 
ATOM      6  C   LIG d   1      -7.779  79.111 118.042  0.00  0.00     0.091 C 
ENDROOT
BRANCH   1   7
ATOM      7  O   LIG d   1      -6.055  78.068 116.647  0.00  0.00    -0.368 OA
BRANCH   7   8
ATOM      8  C   LIG d   1      -4.657  77.736 116.833  0.00  0.00     0.119 C 
BRANCH   8   9
ATOM      9  C   LIG d   1      -3.834  78.996 116.503  0.00  0.00     0.028 C 
ATOM     10  C   LIG d   1      -3.126  79.575 117.740  0.00  0.00     0.006 C 
ENDBRANCH   8   9
BRANCH   8  11
ATOM     11  C   LIG d   1      -4.197  76.677 115.827  0.00  0.00     0.028 C 
ATOM     12  C   LIG d   1      -3.639  75.415 116.504  0.00  0.00     0.006 C 
ENDBRANCH   8  11
ENDBRANCH   7   8
ENDBRANCH   1   7
BRANCH   6  13
ATOM     13  N   LIG d   1      -6.906  80.142 118.662  0.00  0.00    -0.311 N 
ATOM     14  C   LIG d   1      -6.501  81.239 118.025  0.00  0.00     0.210 C 
ATOM     15  C   LIG d   1      -5.590  82.161 118.840  0.00  0.00     0.109 C 
ATOM     16  O   LIG d   1      -6.837  81.552 116.872  0.00  0.00    -0.276 OA
ATOM     17  H   LIG d   1      -6.612  79.983 119.606  0.00  0.00     0.149 HD
ENDBRANCH   6  13
BRANCH   5  18
ATOM     18  N   LIG d   1      -9.925  79.929 119.080  0.00  0.00     0.381 N 
ATOM     19  H   LIG d   1      -9.920  80.489 118.251  0.00  0.00    -0.090 HD
ATOM     20  H   LIG d   1      -9.599  80.495 119.845  0.00  0.00    -0.090 HD
ATOM     21  H   LIG d   1     -10.849  79.606 119.267  0.00  0.00    -0.090 HD
ENDBRANCH   5  18
BRANCH   3  22
ATOM     22  C   LIG d   1      -9.612  75.295 117.915  0.00  0.00     0.382 C 
ATOM     23  O   LIG d   1     -10.746  75.141 117.399  0.00  0.00    -0.241 OA
ATOM     24  O   LIG d   1      -9.050  74.327 118.462  0.00  0.00    -0.241 OA
ENDBRANCH   3  22
TORSDOF 7
ENDMDL
MODEL 8
REMARK VINA RESULT:      -4.5     33.644     36.069
REMARK  7 active torsions:
REMARK  status: ('A' for Active; 'I' for Inactive)
REMARK    1  A    between atoms: C_2  and  C_3 
REMARK    2  A    between atoms: C_3  and  O_6 
REMARK    3  A    between atoms: C_3  and  C_4 
REMARK    4  A    between atoms: C_7  and  O_6 
REMARK    5  A    between atoms: C_9  and  C_10 
REMARK    6  A    between atoms: N_15  and  C_14 
REMARK    7  A    between atoms: N_20  and  C_19 
REMARK       I    between atoms: C_22  and  N_20 
ROOT
ATOM      1  C   LIG d   1       0.465  57.524 118.674  0.00  0.00     0.161 C 
ATOM      2  C   LIG d   1      -0.311  58.606 118.223  0.00  0.00     0.016 C 
ATOM      3  C   LIG d   1      -1.522  58.451 117.511  0.00  0.00     0.038 C 
ATOM      4  C   LIG d   1      -2.122  57.195 117.332  0.00  0.00     0.028 C 
ATOM      5  C   LIG d   1      -1.124  56.042 117.329  0.00  0.00    -0.047 C 
ATOM      6  C   LIG d   1      -0.229  56.149 118.585  0.00  0.00     0.091 C 
ENDROOT
BRANCH   1   7
ATOM      7  O   LIG d   1       0.914  57.773 120.021  0.00  0.00    -0.368 OA
BRANCH   7   8
ATOM      8  C   LIG d   1       1.907  58.816 120.179  0.00  0.00     0.119 C 
BRANCH   8   9
ATOM      9  C   LIG d   1       3.278  58.130 120.335  0.00  0.00     0.028 C 
ATOM     10  C   LIG d   1       3.957  57.860 118.982  0.00  0.00     0.006 C 
ENDBRANCH   8   9
BRANCH   8  11
ATOM     11  C   LIG d   1       1.694  59.596 121.479  0.00  0.00     0.028 C 
ATOM     12  C   LIG d   1       0.417  60.451 121.459  0.00  0.00     0.006 C 
ENDBRANCH   8  11
ENDBRANCH   7   8
ENDBRANCH   1   7
BRANCH   6  13
ATOM     13  N   LIG d   1       0.830  55.108 118.617  0.00  0.00    -0.311 N 
ATOM     14  C   LIG d   1       1.764  54.983 117.676  0.00  0.00     0.210 C 
ATOM     15  C   LIG d   1       2.750  53.830 117.891  0.00  0.00     0.109 C 
ATOM     16  O   LIG d   1       1.891  55.738 116.701  0.00  0.00    -0.276 OA
ATOM     17  H   LIG d   1       0.821  54.472 119.390  0.00  0.00     0.149 HD
ENDBRANCH   6  13
BRANCH   5  18
ATOM     18  N   LIG d   1      -1.895  54.786 117.274  0.00  0.00     0.381 N 
ATOM     19  H   LIG d   1      -1.878  54.419 116.343  0.00  0.00    -0.090 HD
ATOM     20  H   LIG d   1      -2.850  54.979 117.519  0.00  0.00    -0.090 HD
ATOM     21  H   LIG d   1      -1.509  54.121 117.907  0.00  0.00    -0.090 HD
ENDBRANCH   5  18
BRANCH   3  22
ATOM     22  C   LIG d   1      -2.127  59.557 116.935  0.00  0.00     0.382 C 
ATOM     23  O   LIG d   1      -3.018  59.403 116.065  0.00  0.00    -0.241 OA
ATOM     24  O   LIG d   1      -1.761  60.708 117.240  0.00  0.00    -0.241 OA
ENDBRANCH   3  22
TORSDOF 7
ENDMDL
MODEL 9
REMARK VINA RESULT:      -4.4     11.598     13.978
REMARK  7 active torsions:
REMARK  status: ('A' for Active; 'I' for Inactive)
REMARK    1  A    between atoms: C_2  and  C_3 
REMARK    2  A    between atoms: C_3  and  O_6 
REMARK    3  A    between atoms: C_3  and  C_4 
REMARK    4  A    between atoms: C_7  and  O_6 
REMARK    5  A    between atoms: C_9  and  C_10 
REMARK    6  A    between atoms: N_15  and  C_14 
REMARK    7  A    between atoms: N_20  and  C_19 
REMARK       I    between atoms: C_22  and  N_20 
ROOT
ATOM      1  C   LIG d   1      -7.203  79.473 118.425  0.00  0.00     0.161 C 
ATOM      2  C   LIG d   1      -7.706  78.269 117.905  0.00  0.00     0.016 C 
ATOM      3  C   LIG d   1      -8.985  77.757 118.223  0.00  0.00     0.038 C 
ATOM      4  C   LIG d   1      -9.914  78.495 118.971  0.00  0.00     0.028 C 
ATOM      5  C   LIG d   1      -9.266  79.486 119.933  0.00  0.00    -0.047 C 
ATOM      6  C   LIG d   1      -8.245  80.347 119.155  0.00  0.00     0.091 C 
ENDROOT
BRANCH   1   7
ATOM      7  O   LIG d   1      -6.561  80.228 117.379  0.00  0.00    -0.368 OA
BRANCH   7   8
ATOM      8  C   LIG d   1      -5.122  80.363 117.481  0.00  0.00     0.119 C 
BRANCH   8   9
ATOM      9  C   LIG d   1      -4.680  79.643 118.770  0.00  0.00     0.028 C 
ATOM     10  C   LIG d   1      -3.755  78.448 118.486  0.00  0.00     0.006 C 
ENDBRANCH   8   9
BRANCH   8  11
ATOM     11  C   LIG d   1      -4.712  81.826 117.673  0.00  0.00     0.028 C 
ATOM     12  C   LIG d   1      -3.910  82.056 118.964  0.00  0.00     0.006 C 
ENDBRANCH   8  11
ENDBRANCH   7   8
ENDBRANCH   1   7
BRANCH   6  13
ATOM     13  N   LIG d   1      -7.506  81.286 120.038  0.00  0.00    -0.311 N 
ATOM     14  C   LIG d   1      -7.602  82.611 119.943  0.00  0.00     0.210 C 
ATOM     15  C   LIG d   1      -6.740  83.395 120.938  0.00  0.00     0.109 C 
ATOM     16  O   LIG d   1      -8.345  83.212 119.152  0.00  0.00    -0.276 OA
ATOM     17  H   LIG d   1      -6.904  80.884 120.729  0.00  0.00     0.149 HD
ENDBRANCH   6  13
BRANCH   5  18
ATOM     18  N   LIG d   1     -10.346  80.283 120.546  0.00  0.00     0.381 N 
ATOM     19  H   LIG d   1      -9.954  80.985 121.141  0.00  0.00    -0.090 HD
ATOM     20  H   LIG d   1     -10.919  79.677 121.107  0.00  0.00    -0.090 HD
ATOM     21  H   LIG d   1     -10.899  80.711 119.836  0.00  0.00    -0.090 HD
ENDBRANCH   5  18
BRANCH   3  22
ATOM     22  C   LIG d   1      -9.330  76.475 117.825  0.00  0.00     0.382 C 
ATOM     23  O   LIG d   1     -10.535  76.127 117.808  0.00  0.00    -0.241 OA
ATOM     24  O   LIG d   1      -8.449  75.647 117.525  0.00  0.00    -0.241 OA
ENDBRANCH   3  22
TORSDOF 7
ENDMDL
