MODEL 1
REMARK VINA RESULT:      -5.0      0.000      0.000
REMARK  7 active torsions:
REMARK  status: ('A' for Active; 'I' for Inactive)
REMARK    1  A    between atoms: C_2  and  C_3 
REMARK    2  A    between atoms: C_3  and  O_6 
REMARK    3  A    between atoms: C_3  and  C_4 
REMARK    4  A    between atoms: C_7  and  O_6 
REMARK    5  A    between atoms: C_9  and  C_10 
REMARK    6  A    between atoms: N_15  and  C_14 
REMARK    7  A    between atoms: N_20  and  C_19 
REMARK       I    between atoms: C_22  and  N_20 
ROOT
ATOM      1  C   LIG d   1      -2.849  90.247 117.310  0.00  0.00     0.161 C 
ATOM      2  C   LIG d   1      -4.098  90.079 116.690  0.00  0.00     0.016 C 
ATOM      3  C   LIG d   1      -5.048  91.119 116.559  0.00  0.00     0.038 C 
ATOM      4  C   LIG d   1      -4.749  92.444 116.908  0.00  0.00     0.028 C 
ATOM      5  C   LIG d   1      -3.690  92.559 117.999  0.00  0.00    -0.047 C 
ATOM      6  C   LIG d   1      -2.461  91.713 117.597  0.00  0.00     0.091 C 
ENDROOT
BRANCH   1   7
ATOM      7  O   LIG d   1      -1.825  89.602 116.527  0.00  0.00    -0.368 OA
BRANCH   7   8
ATOM      8  C   LIG d   1      -1.528  88.227 116.876  0.00  0.00     0.119 C 
BRANCH   8   9
ATOM      9  C   LIG d   1      -1.497  88.136 118.414  0.00  0.00     0.028 C 
ATOM     10  C   LIG d   1      -1.239  86.704 118.911  0.00  0.00     0.006 C 
ENDBRANCH   8   9
BRANCH   8  11
ATOM     11  C   LIG d   1      -0.122  87.827 116.418  0.00  0.00     0.028 C 
ATOM     12  C   LIG d   1       0.899  88.966 116.566  0.00  0.00     0.006 C 
ENDBRANCH   8  11
ENDBRANCH   7   8
ENDBRANCH   1   7
BRANCH   6  13
ATOM     13  N   LIG d   1      -1.410  91.702 118.648  0.00  0.00    -0.311 N 
ATOM     14  C   LIG d   1      -0.133  91.994 118.411  0.00  0.00     0.210 C 
ATOM     15  C   LIG d   1       0.788  91.903 119.632  0.00  0.00     0.109 C 
ATOM     16  O   LIG d   1       0.319  92.351 117.313  0.00  0.00    -0.276 OA
ATOM     17  H   LIG d   1      -1.696  91.454 119.575  0.00  0.00     0.149 HD
ENDBRANCH   6  13
BRANCH   5  18
ATOM     18  N   LIG d   1      -3.376  93.991 118.167  0.00  0.00     0.381 N 
ATOM     19  H   LIG d   1      -3.574  94.483 117.318  0.00  0.00    -0.090 HD
ATOM     20  H   LIG d   1      -2.395  94.088 118.365  0.00  0.00    -0.090 HD
ATOM     21  H   LIG d   1      -3.913  94.373 118.914  0.00  0.00    -0.090 HD
ENDBRANCH   5  18
BRANCH   3  22
ATOM     22  C   LIG d   1      -6.328  90.828 116.112  0.00  0.00     0.382 C 
ATOM     23  O   LIG d   1      -6.634  89.650 115.810  0.00  0.00    -0.241 OA
ATOM     24  O   LIG d   1      -7.166  91.737 115.963  0.00  0.00    -0.241 OA
ENDBRANCH   3  22
TORSDOF 7
ENDMDL
MODEL 2
REMARK VINA RESULT:      -4.9      2.142      5.267
REMARK  7 active torsions:
REMARK  status: ('A' for Active; 'I' for Inactive)
REMARK    1  A    between atoms: C_2  and  C_3 
REMARK    2  A    between atoms: C_3  and  O_6 
REMARK    3  A    between atoms: C_3  and  C_4 
REMARK    4  A    between atoms: C_7  and  O_6 
REMARK    5  A    between atoms: C_9  and  C_10 
REMARK    6  A    between atoms: N_15  and  C_14 
REMARK    7  A    between atoms: N_20  and  C_19 
REMARK       I    between atoms: C_22  and  N_20 
ROOT
ATOM      1  C   LIG d   1      -1.759  91.804 117.875  0.00  0.00     0.161 C 
ATOM      2  C   LIG d   1      -0.372  91.779 118.094  0.00  0.00     0.016 C 
ATOM      3  C   LIG d   1       0.415  92.946 118.234  0.00  0.00     0.038 C 
ATOM      4  C   LIG d   1      -0.160  94.223 118.314  0.00  0.00     0.028 C 
ATOM      5  C   LIG d   1      -1.499  94.331 117.593  0.00  0.00    -0.047 C 
ATOM      6  C   LIG d   1      -2.420  93.185 118.070  0.00  0.00     0.091 C 
ENDROOT
BRANCH   1   7
ATOM      7  O   LIG d   1      -2.403  90.818 118.705  0.00  0.00    -0.368 OA
BRANCH   7   8
ATOM      8  C   LIG d   1      -3.015  89.703 118.013  0.00  0.00     0.119 C 
BRANCH   8   9
ATOM      9  C   LIG d   1      -2.177  88.448 118.326  0.00  0.00     0.028 C 
ATOM     10  C   LIG d   1      -1.263  88.045 117.156  0.00  0.00     0.006 C 
ENDBRANCH   8   9
BRANCH   8  11
ATOM     11  C   LIG d   1      -2.932  89.877 116.493  0.00  0.00     0.028 C 
ATOM     12  C   LIG d   1      -4.314  89.937 115.824  0.00  0.00     0.006 C 
ENDBRANCH   8  11
ENDBRANCH   7   8
ENDBRANCH   1   7
BRANCH   6  13
ATOM     13  N   LIG d   1      -3.721  93.167 117.352  0.00  0.00    -0.311 N 
ATOM     14  C   LIG d   1      -4.895  93.022 117.965  0.00  0.00     0.210 C 
ATOM     15  C   LIG d   1      -6.112  93.011 117.035  0.00  0.00     0.109 C 
ATOM     16  O   LIG d   1      -5.046  92.935 119.193  0.00  0.00    -0.276 OA
ATOM     17  H   LIG d   1      -3.693  93.263 116.356  0.00  0.00     0.149 HD
ENDBRANCH   6  13
BRANCH   5  18
ATOM     18  N   LIG d   1      -2.049  95.670 117.873  0.00  0.00     0.381 N 
ATOM     19  H   LIG d   1      -1.799  95.953 118.799  0.00  0.00    -0.090 HD
ATOM     20  H   LIG d   1      -3.052  95.628 117.816  0.00  0.00    -0.090 HD
ATOM     21  H   LIG d   1      -1.700  96.328 117.211  0.00  0.00    -0.090 HD
ENDBRANCH   5  18
BRANCH   3  22
ATOM     22  C   LIG d   1       1.798  92.843 118.254  0.00  0.00     0.382 C 
ATOM     23  O   LIG d   1       2.427  93.063 119.317  0.00  0.00    -0.241 OA
ATOM     24  O   LIG d   1       2.427  92.578 117.213  0.00  0.00    -0.241 OA
ENDBRANCH   3  22
TORSDOF 7
ENDMDL
MODEL 3
REMARK VINA RESULT:      -4.8      2.220      4.435
REMARK  7 active torsions:
REMARK  status: ('A' for Active; 'I' for Inactive)
REMARK    1  A    between atoms: C_2  and  C_3 
REMARK    2  A    between atoms: C_3  and  O_6 
REMARK    3  A    between atoms: C_3  and  C_4 
REMARK    4  A    between atoms: C_7  and  O_6 
REMARK    5  A    between atoms: C_9  and  C_10 
REMARK    6  A    between atoms: N_15  and  C_14 
REMARK    7  A    between atoms: N_20  and  C_19 
REMARK       I    between atoms: C_22  and  N_20 
ROOT
ATOM      1  C   LIG d   1      -2.751  92.614 117.312  0.00  0.00     0.161 C 
ATOM      2  C   LIG d   1      -4.155  92.631 117.307  0.00  0.00     0.016 C 
ATOM      3  C   LIG d   1      -4.947  91.482 117.078  0.00  0.00     0.038 C 
ATOM      4  C   LIG d   1      -4.384  90.201 116.986  0.00  0.00     0.028 C 
ATOM      5  C   LIG d   1      -2.945  90.205 116.482  0.00  0.00    -0.047 C 
ATOM      6  C   LIG d   1      -2.121  91.205 117.324  0.00  0.00     0.091 C 
ENDROOT
BRANCH   1   7
ATOM      7  O   LIG d   1      -2.256  93.394 118.419  0.00  0.00    -0.368 OA
BRANCH   7   8
ATOM      8  C   LIG d   1      -1.608  94.644 118.078  0.00  0.00     0.119 C 
BRANCH   8   9
ATOM      9  C   LIG d   1      -0.108  94.490 118.398  0.00  0.00     0.028 C 
ATOM     10  C   LIG d   1       0.141  93.615 119.638  0.00  0.00     0.006 C 
ENDBRANCH   8   9
BRANCH   8  11
ATOM     11  C   LIG d   1      -2.098  95.787 118.972  0.00  0.00     0.028 C 
ATOM     12  C   LIG d   1      -3.441  95.478 119.652  0.00  0.00     0.006 C 
ENDBRANCH   8  11
ENDBRANCH   7   8
ENDBRANCH   1   7
BRANCH   6  13
ATOM     13  N   LIG d   1      -0.721  91.334 116.842  0.00  0.00    -0.311 N 
ATOM     14  C   LIG d   1       0.297  90.646 117.356  0.00  0.00     0.210 C 
ATOM     15  C   LIG d   1       1.662  90.944 116.726  0.00  0.00     0.109 C 
ATOM     16  O   LIG d   1       0.195  89.794 118.251  0.00  0.00    -0.276 OA
ATOM     17  H   LIG d   1      -0.553  91.981 116.097  0.00  0.00     0.149 HD
ENDBRANCH   6  13
BRANCH   5  18
ATOM     18  N   LIG d   1      -2.439  88.822 116.566  0.00  0.00     0.381 N 
ATOM     19  H   LIG d   1      -2.232  88.481 115.649  0.00  0.00    -0.090 HD
ATOM     20  H   LIG d   1      -3.152  88.239 116.967  0.00  0.00    -0.090 HD
ATOM     21  H   LIG d   1      -1.619  88.794 117.132  0.00  0.00    -0.090 HD
ENDBRANCH   5  18
BRANCH   3  22
ATOM     22  C   LIG d   1      -6.315  91.615 116.898  0.00  0.00     0.382 C 
ATOM     23  O   LIG d   1      -6.804  92.735 116.611  0.00  0.00    -0.241 OA
ATOM     24  O   LIG d   1      -7.072  90.640 117.061  0.00  0.00    -0.241 OA
ENDBRANCH   3  22
TORSDOF 7
ENDMDL
MODEL 4
REMARK VINA RESULT:      -4.8      2.178      4.730
REMARK  7 active torsions:
REMARK  status: ('A' for Active; 'I' for Inactive)
REMARK    1  A    between atoms: C_2  and  C_3 
REMARK    2  A    between atoms: C_3  and  O_6 
REMARK    3  A    between atoms: C_3  and  C_4 
REMARK    4  A    between atoms: C_7  and  O_6 
REMARK    5  A    between atoms: C_9  and  C_10 
REMARK    6  A    between atoms: N_15  and  C_14 
REMARK    7  A    between atoms: N_20  and  C_19 
REMARK       I    between atoms: C_22  and  N_20 
ROOT
ATOM      1  C   LIG d   1      -3.566  92.642 117.277  0.00  0.00     0.161 C 
ATOM      2  C   LIG d   1      -4.882  92.267 116.960  0.00  0.00     0.016 C 
ATOM      3  C   LIG d   1      -5.242  90.961 116.554  0.00  0.00     0.038 C 
ATOM      4  C   LIG d   1      -4.328  89.897 116.583  0.00  0.00     0.028 C 
ATOM      5  C   LIG d   1      -2.879  90.338 116.412  0.00  0.00    -0.047 C 
ATOM      6  C   LIG d   1      -2.575  91.468 117.423  0.00  0.00     0.091 C 
ENDROOT
BRANCH   1   7
ATOM      7  O   LIG d   1      -3.563  93.451 118.470  0.00  0.00    -0.368 OA
BRANCH   7   8
ATOM      8  C   LIG d   1      -4.831  93.574 119.160  0.00  0.00     0.119 C 
BRANCH   8   9
ATOM      9  C   LIG d   1      -5.044  95.068 119.475  0.00  0.00     0.028 C 
ATOM     10  C   LIG d   1      -6.334  95.622 118.847  0.00  0.00     0.006 C 
ENDBRANCH   8   9
BRANCH   8  11
ATOM     11  C   LIG d   1      -4.796  92.874 120.521  0.00  0.00     0.028 C 
ATOM     12  C   LIG d   1      -6.197  92.523 121.047  0.00  0.00     0.006 C 
ENDBRANCH   8  11
ENDBRANCH   7   8
ENDBRANCH   1   7
BRANCH   6  13
ATOM     13  N   LIG d   1      -1.203  92.016 117.266  0.00  0.00    -0.311 N 
ATOM     14  C   LIG d   1      -0.155  91.580 117.963  0.00  0.00     0.210 C 
ATOM     15  C   LIG d   1       1.166  92.295 117.661  0.00  0.00     0.109 C 
ATOM     16  O   LIG d   1      -0.188  90.647 118.780  0.00  0.00    -0.276 OA
ATOM     17  H   LIG d   1      -1.080  92.754 116.601  0.00  0.00     0.149 HD
ENDBRANCH   6  13
BRANCH   5  18
ATOM     18  N   LIG d   1      -2.026  89.150 116.601  0.00  0.00     0.381 N 
ATOM     19  H   LIG d   1      -1.514  88.963 115.762  0.00  0.00    -0.090 HD
ATOM     20  H   LIG d   1      -2.611  88.357 116.796  0.00  0.00    -0.090 HD
ATOM     21  H   LIG d   1      -1.395  89.300 117.357  0.00  0.00    -0.090 HD
ENDBRANCH   5  18
BRANCH   3  22
ATOM     22  C   LIG d   1      -6.520  90.719 116.074  0.00  0.00     0.382 C 
ATOM     23  O   LIG d   1      -6.890  89.542 115.842  0.00  0.00    -0.241 OA
ATOM     24  O   LIG d   1      -7.292  91.664 115.827  0.00  0.00    -0.241 OA
ENDBRANCH   3  22
TORSDOF 7
ENDMDL
MODEL 5
REMARK VINA RESULT:      -4.8     29.911     32.586
REMARK  7 active torsions:
REMARK  status: ('A' for Active; 'I' for Inactive)
REMARK    1  A    between atoms: C_2  and  C_3 
REMARK    2  A    between atoms: C_3  and  O_6 
REMARK    3  A    between atoms: C_3  and  C_4 
REMARK    4  A    between atoms: C_7  and  O_6 
REMARK    5  A    between atoms: C_9  and  C_10 
REMARK    6  A    between atoms: N_15  and  C_14 
REMARK    7  A    between atoms: N_20  and  C_19 
REMARK       I    between atoms: C_22  and  N_20 
ROOT
ATOM      1  C   LIG d   1       1.155  58.349 119.297  0.00  0.00     0.161 C 
ATOM      2  C   LIG d   1       1.721  57.329 118.515  0.00  0.00     0.016 C 
ATOM      3  C   LIG d   1       0.984  56.564 117.582  0.00  0.00     0.038 C 
ATOM      4  C   LIG d   1      -0.346  56.871 117.257  0.00  0.00     0.028 C 
ATOM      5  C   LIG d   1      -1.100  57.566 118.385  0.00  0.00    -0.047 C 
ATOM      6  C   LIG d   1      -0.268  58.773 118.876  0.00  0.00     0.091 C 
ENDROOT
BRANCH   1   7
ATOM      7  O   LIG d   1       2.032  59.493 119.318  0.00  0.00    -0.368 OA
BRANCH   7   8
ATOM      8  C   LIG d   1       3.232  59.361 120.119  0.00  0.00     0.119 C 
BRANCH   8   9
ATOM      9  C   LIG d   1       2.805  59.376 121.599  0.00  0.00     0.028 C 
ATOM     10  C   LIG d   1       2.111  60.690 121.996  0.00  0.00     0.006 C 
ENDBRANCH   8   9
BRANCH   8  11
ATOM     11  C   LIG d   1       4.152  60.574 119.949  0.00  0.00     0.028 C 
ATOM     12  C   LIG d   1       5.601  60.287 120.372  0.00  0.00     0.006 C 
ENDBRANCH   8  11
ENDBRANCH   7   8
ENDBRANCH   1   7
BRANCH   6  13
ATOM     13  N   LIG d   1      -0.895  59.459 120.036  0.00  0.00    -0.311 N 
ATOM     14  C   LIG d   1      -1.374  60.701 119.982  0.00  0.00     0.210 C 
ATOM     15  C   LIG d   1      -1.960  61.225 121.297  0.00  0.00     0.109 C 
ATOM     16  O   LIG d   1      -1.397  61.406 118.962  0.00  0.00    -0.276 OA
ATOM     17  H   LIG d   1      -0.945  58.948 120.896  0.00  0.00     0.149 HD
ENDBRANCH   6  13
BRANCH   5  18
ATOM     18  N   LIG d   1      -2.426  57.951 117.864  0.00  0.00     0.381 N 
ATOM     19  H   LIG d   1      -3.028  57.152 117.847  0.00  0.00    -0.090 HD
ATOM     20  H   LIG d   1      -2.320  58.287 116.923  0.00  0.00    -0.090 HD
ATOM     21  H   LIG d   1      -2.823  58.663 118.437  0.00  0.00    -0.090 HD
ENDBRANCH   5  18
BRANCH   3  22
ATOM     22  C   LIG d   1       1.566  55.452 116.993  0.00  0.00     0.382 C 
ATOM     23  O   LIG d   1       0.846  54.507 116.589  0.00  0.00    -0.241 OA
ATOM     24  O   LIG d   1       2.805  55.363 116.900  0.00  0.00    -0.241 OA
ENDBRANCH   3  22
TORSDOF 7
ENDMDL
MODEL 6
REMARK VINA RESULT:      -4.7     26.143     28.590
REMARK  7 active torsions:
REMARK  status: ('A' for Active; 'I' for Inactive)
REMARK    1  A    between atoms: C_2  and  C_3 
REMARK    2  A    between atoms: C_3  and  O_6 
REMARK    3  A    between atoms: C_3  and  C_4 
REMARK    4  A    between atoms: C_7  and  O_6 
REMARK    5  A    between atoms: C_9  and  C_10 
REMARK    6  A    between atoms: N_15  and  C_14 
REMARK    7  A    between atoms: N_20  and  C_19 
REMARK       I    between atoms: C_22  and  N_20 
ROOT
ATOM      1  C   LIG d   1     -15.057  65.514 119.122  0.00  0.00     0.161 C 
ATOM      2  C   LIG d   1     -14.770  66.739 119.748  0.00  0.00     0.016 C 
ATOM      3  C   LIG d   1     -14.069  66.843 120.971  0.00  0.00     0.038 C 
ATOM      4  C   LIG d   1     -13.471  65.729 121.579  0.00  0.00     0.028 C 
ATOM      5  C   LIG d   1     -14.165  64.412 121.248  0.00  0.00    -0.047 C 
ATOM      6  C   LIG d   1     -14.316  64.297 119.714  0.00  0.00     0.091 C 
ENDROOT
BRANCH   1   7
ATOM      7  O   LIG d   1     -14.802  65.617 117.707  0.00  0.00    -0.368 OA
BRANCH   7   8
ATOM      8  C   LIG d   1     -15.939  65.957 116.877  0.00  0.00     0.119 C 
BRANCH   8   9
ATOM      9  C   LIG d   1     -16.298  64.708 116.049  0.00  0.00     0.028 C 
ATOM     10  C   LIG d   1     -17.544  63.985 116.588  0.00  0.00     0.006 C 
ENDBRANCH   8   9
BRANCH   8  11
ATOM     11  C   LIG d   1     -15.578  67.035 115.851  0.00  0.00     0.028 C 
ATOM     12  C   LIG d   1     -15.573  68.450 116.449  0.00  0.00     0.006 C 
ENDBRANCH   8  11
ENDBRANCH   7   8
ENDBRANCH   1   7
BRANCH   6  13
ATOM     13  N   LIG d   1     -15.060  63.076 119.308  0.00  0.00    -0.311 N 
ATOM     14  C   LIG d   1     -14.620  62.222 118.386  0.00  0.00     0.210 C 
ATOM     15  C   LIG d   1     -15.552  61.039 118.103  0.00  0.00     0.109 C 
ATOM     16  O   LIG d   1     -13.532  62.314 117.798  0.00  0.00    -0.276 OA
ATOM     17  H   LIG d   1     -15.939  62.908 119.757  0.00  0.00     0.149 HD
ENDBRANCH   6  13
BRANCH   5  18
ATOM     18  N   LIG d   1     -13.359  63.324 121.833  0.00  0.00     0.381 N 
ATOM     19  H   LIG d   1     -13.358  63.402 122.830  0.00  0.00    -0.090 HD
ATOM     20  H   LIG d   1     -12.411  63.411 121.509  0.00  0.00    -0.090 HD
ATOM     21  H   LIG d   1     -13.730  62.441 121.561  0.00  0.00    -0.090 HD
ENDBRANCH   5  18
BRANCH   3  22
ATOM     22  C   LIG d   1     -13.995  68.066 121.619  0.00  0.00     0.382 C 
ATOM     23  O   LIG d   1     -12.911  68.697 121.645  0.00  0.00    -0.241 OA
ATOM     24  O   LIG d   1     -14.987  68.526 122.216  0.00  0.00    -0.241 OA
ENDBRANCH   3  22
TORSDOF 7
ENDMDL
MODEL 7
REMARK VINA RESULT:      -4.7     30.725     33.153
REMARK  7 active torsions:
REMARK  status: ('A' for Active; 'I' for Inactive)
REMARK    1  A    between atoms: C_2  and  C_3 
REMARK    2  A    between atoms: C_3  and  O_6 
REMARK    3  A    between atoms: C_3  and  C_4 
REMARK    4  A    between atoms: C_7  and  O_6 
REMARK    5  A    between atoms: C_9  and  C_10 
REMARK    6  A    between atoms: N_15  and  C_14 
REMARK    7  A    between atoms: N_20  and  C_19 
REMARK       I    between atoms: C_22  and  N_20 
ROOT
ATOM      1  C   LIG d   1       1.254  58.359 118.945  0.00  0.00     0.161 C 
ATOM      2  C   LIG d   1       0.247  59.334 119.047  0.00  0.00     0.016 C 
ATOM      3  C   LIG d   1      -0.991  59.248 118.369  0.00  0.00     0.038 C 
ATOM      4  C   LIG d   1      -1.368  58.100 117.656  0.00  0.00     0.028 C 
ATOM      5  C   LIG d   1      -0.183  57.309 117.111  0.00  0.00    -0.047 C 
ATOM      6  C   LIG d   1       0.816  57.047 118.261  0.00  0.00     0.091 C 
ENDROOT
BRANCH   1   7
ATOM      7  O   LIG d   1       1.803  58.085 120.249  0.00  0.00    -0.368 OA
BRANCH   7   8
ATOM      8  C   LIG d   1       3.214  58.364 120.418  0.00  0.00     0.119 C 
BRANCH   8   9
ATOM      9  C   LIG d   1       3.744  57.425 121.519  0.00  0.00     0.028 C 
ATOM     10  C   LIG d   1       4.768  56.411 120.983  0.00  0.00     0.006 C 
ENDBRANCH   8   9
BRANCH   8  11
ATOM     11  C   LIG d   1       3.443  59.782 120.950  0.00  0.00     0.028 C 
ATOM     12  C   LIG d   1       4.321  60.634 120.019  0.00  0.00     0.006 C 
ENDBRANCH   8  11
ENDBRANCH   7   8
ENDBRANCH   1   7
BRANCH   6  13
ATOM     13  N   LIG d   1       2.045  56.351 117.797  0.00  0.00    -0.311 N 
ATOM     14  C   LIG d   1       2.207  55.030 117.859  0.00  0.00     0.210 C 
ATOM     15  C   LIG d   1       3.557  54.520 117.346  0.00  0.00     0.109 C 
ATOM     16  O   LIG d   1       1.349  54.230 118.261  0.00  0.00    -0.276 OA
ATOM     17  H   LIG d   1       2.780  56.921 117.427  0.00  0.00     0.149 HD
ENDBRANCH   6  13
BRANCH   5  18
ATOM     18  N   LIG d   1      -0.713  56.070 116.512  0.00  0.00     0.381 N 
ATOM     19  H   LIG d   1      -0.664  55.324 117.177  0.00  0.00    -0.090 HD
ATOM     20  H   LIG d   1      -0.145  55.823 115.720  0.00  0.00    -0.090 HD
ATOM     21  H   LIG d   1      -1.656  56.206 116.224  0.00  0.00    -0.090 HD
ENDBRANCH   5  18
BRANCH   3  22
ATOM     22  C   LIG d   1      -1.850  60.336 118.366  0.00  0.00     0.382 C 
ATOM     23  O   LIG d   1      -1.534  61.386 118.977  0.00  0.00    -0.241 OA
ATOM     24  O   LIG d   1      -2.956  60.267 117.799  0.00  0.00    -0.241 OA
ENDBRANCH   3  22
TORSDOF 7
ENDMDL
MODEL 8
REMARK VINA RESULT:      -4.5      9.461     11.438
REMARK  7 active torsions:
REMARK  status: ('A' for Active; 'I' for Inactive)
REMARK    1  A    between atoms: C_2  and  C_3 
REMARK    2  A    between atoms: C_3  and  O_6 
REMARK    3  A    between atoms: C_3  and  C_4 
REMARK    4  A    between atoms: C_7  and  O_6 
REMARK    5  A    between atoms: C_9  and  C_10 
REMARK    6  A    between atoms: N_15  and  C_14 
REMARK    7  A    between atoms: N_20  and  C_19 
REMARK       I    between atoms: C_22  and  N_20 
ROOT
ATOM      1  C   LIG d   1      -8.446  81.890 120.863  0.00  0.00     0.161 C 
ATOM      2  C   LIG d   1      -8.547  80.516 120.590  0.00  0.00     0.016 C 
ATOM      3  C   LIG d   1      -9.050  79.999 119.374  0.00  0.00     0.038 C 
ATOM      4  C   LIG d   1      -9.347  80.828 118.282  0.00  0.00     0.028 C 
ATOM      5  C   LIG d   1      -9.738  82.246 118.687  0.00  0.00    -0.047 C 
ATOM      6  C   LIG d   1      -8.661  82.809 119.642  0.00  0.00     0.091 C 
ENDROOT
BRANCH   1   7
ATOM      7  O   LIG d   1      -7.177  82.173 121.486  0.00  0.00    -0.368 OA
BRANCH   7   8
ATOM      8  C   LIG d   1      -6.072  82.437 120.587  0.00  0.00     0.119 C 
BRANCH   8   9
ATOM      9  C   LIG d   1      -5.094  81.251 120.696  0.00  0.00     0.028 C 
ATOM     10  C   LIG d   1      -5.152  80.329 119.466  0.00  0.00     0.006 C 
ENDBRANCH   8   9
BRANCH   8  11
ATOM     11  C   LIG d   1      -5.271  83.664 121.035  0.00  0.00     0.028 C 
ATOM     12  C   LIG d   1      -5.998  84.490 122.108  0.00  0.00     0.006 C 
ENDBRANCH   8  11
ENDBRANCH   7   8
ENDBRANCH   1   7
BRANCH   6  13
ATOM     13  N   LIG d   1      -9.008  84.161 120.153  0.00  0.00    -0.311 N 
ATOM     14  C   LIG d   1      -9.873  84.371 121.144  0.00  0.00     0.210 C 
ATOM     15  C   LIG d   1     -10.102  85.843 121.501  0.00  0.00     0.109 C 
ATOM     16  O   LIG d   1     -10.448  83.476 121.782  0.00  0.00    -0.276 OA
ATOM     17  H   LIG d   1      -8.564  84.943 119.712  0.00  0.00     0.149 HD
ENDBRANCH   6  13
BRANCH   5  18
ATOM     18  N   LIG d   1      -9.886  83.037 117.451  0.00  0.00     0.381 N 
ATOM     19  H   LIG d   1     -10.200  82.447 116.707  0.00  0.00    -0.090 HD
ATOM     20  H   LIG d   1      -8.989  83.414 117.197  0.00  0.00    -0.090 HD
ATOM     21  H   LIG d   1     -10.536  83.777 117.596  0.00  0.00    -0.090 HD
ENDBRANCH   5  18
BRANCH   3  22
ATOM     22  C   LIG d   1      -9.298  78.640 119.256  0.00  0.00     0.382 C 
ATOM     23  O   LIG d   1     -10.437  78.238 118.916  0.00  0.00    -0.241 OA
ATOM     24  O   LIG d   1      -8.410  77.810 119.528  0.00  0.00    -0.241 OA
ENDBRANCH   3  22
TORSDOF 7
ENDMDL
MODEL 9
REMARK VINA RESULT:      -4.5      2.755      5.729
REMARK  7 active torsions:
REMARK  status: ('A' for Active; 'I' for Inactive)
REMARK    1  A    between atoms: C_2  and  C_3 
REMARK    2  A    between atoms: C_3  and  O_6 
REMARK    3  A    between atoms: C_3  and  C_4 
REMARK    4  A    between atoms: C_7  and  O_6 
REMARK    5  A    between atoms: C_9  and  C_10 
REMARK    6  A    between atoms: N_15  and  C_14 
REMARK    7  A    between atoms: N_20  and  C_19 
REMARK       I    between atoms: C_22  and  N_20 
ROOT
ATOM      1  C   LIG d   1      -3.262  92.790 118.273  0.00  0.00     0.161 C 
ATOM      2  C   LIG d   1      -2.510  91.768 117.671  0.00  0.00     0.016 C 
ATOM      3  C   LIG d   1      -3.090  90.647 117.034  0.00  0.00     0.038 C 
ATOM      4  C   LIG d   1      -4.473  90.548 116.822  0.00  0.00     0.028 C 
ATOM      5  C   LIG d   1      -5.300  91.306 117.854  0.00  0.00    -0.047 C 
ATOM      6  C   LIG d   1      -4.772  92.756 117.954  0.00  0.00     0.091 C 
ENDROOT
BRANCH   1   7
ATOM      7  O   LIG d   1      -2.706  94.074 117.927  0.00  0.00    -0.368 OA
BRANCH   7   8
ATOM      8  C   LIG d   1      -2.027  94.782 118.992  0.00  0.00     0.119 C 
BRANCH   8   9
ATOM      9  C   LIG d   1      -2.804  96.088 119.250  0.00  0.00     0.028 C 
ATOM     10  C   LIG d   1      -2.366  96.785 120.549  0.00  0.00     0.006 C 
ENDBRANCH   8   9
BRANCH   8  11
ATOM     11  C   LIG d   1      -0.624  95.223 118.562  0.00  0.00     0.028 C 
ATOM     12  C   LIG d   1       0.364  94.051 118.461  0.00  0.00     0.006 C 
ENDBRANCH   8  11
ENDBRANCH   7   8
ENDBRANCH   1   7
BRANCH   6  13
ATOM     13  N   LIG d   1      -5.471  93.543 119.003  0.00  0.00    -0.311 N 
ATOM     14  C   LIG d   1      -6.523  94.322 118.756  0.00  0.00     0.210 C 
ATOM     15  C   LIG d   1      -7.080  95.061 119.976  0.00  0.00     0.109 C 
ATOM     16  O   LIG d   1      -7.067  94.445 117.649  0.00  0.00    -0.276 OA
ATOM     17  H   LIG d   1      -5.115  93.477 119.936  0.00  0.00     0.149 HD
ENDBRANCH   6  13
BRANCH   5  18
ATOM     18  N   LIG d   1      -6.713  91.234 117.435  0.00  0.00     0.381 N 
ATOM     19  H   LIG d   1      -7.294  91.664 118.127  0.00  0.00    -0.090 HD
ATOM     20  H   LIG d   1      -6.979  90.268 117.356  0.00  0.00    -0.090 HD
ATOM     21  H   LIG d   1      -6.832  91.692 116.559  0.00  0.00    -0.090 HD
ENDBRANCH   5  18
BRANCH   3  22
ATOM     22  C   LIG d   1      -2.286  89.590 116.636  0.00  0.00     0.382 C 
ATOM     23  O   LIG d   1      -2.727  88.416 116.678  0.00  0.00    -0.241 OA
ATOM     24  O   LIG d   1      -1.110  89.790 116.279  0.00  0.00    -0.241 OA
ENDBRANCH   3  22
TORSDOF 7
ENDMDL
