MODEL 1
REMARK VINA RESULT:      -5.4      0.000      0.000
REMARK  7 active torsions:
REMARK  status: ('A' for Active; 'I' for Inactive)
REMARK    1  A    between atoms: C_2  and  C_3 
REMARK    2  A    between atoms: C_3  and  O_6 
REMARK    3  A    between atoms: C_3  and  C_4 
REMARK    4  A    between atoms: C_7  and  O_6 
REMARK    5  A    between atoms: C_9  and  C_10 
REMARK    6  A    between atoms: N_15  and  C_14 
REMARK    7  A    between atoms: N_20  and  C_19 
REMARK       I    between atoms: C_22  and  N_20 
ROOT
ATOM      1  C   LIG d   1      -7.469  76.860 117.024  0.00  0.00     0.161 C 
ATOM      2  C   LIG d   1      -8.505  77.766 117.303  0.00  0.00     0.016 C 
ATOM      3  C   LIG d   1      -8.282  79.093 117.736  0.00  0.00     0.038 C 
ATOM      4  C   LIG d   1      -6.998  79.655 117.775  0.00  0.00     0.028 C 
ATOM      5  C   LIG d   1      -5.893  78.625 117.987  0.00  0.00    -0.047 C 
ATOM      6  C   LIG d   1      -6.061  77.488 116.954  0.00  0.00     0.091 C 
ENDROOT
BRANCH   1   7
ATOM      7  O   LIG d   1      -7.759  76.144 115.807  0.00  0.00    -0.368 OA
BRANCH   7   8
ATOM      8  C   LIG d   1      -8.196  74.772 115.963  0.00  0.00     0.119 C 
BRANCH   8   9
ATOM      9  C   LIG d   1      -9.659  74.803 116.445  0.00  0.00     0.028 C 
ATOM     10  C   LIG d   1     -10.183  73.407 116.820  0.00  0.00     0.006 C 
ENDBRANCH   8   9
BRANCH   8  11
ATOM     11  C   LIG d   1      -7.418  74.063 117.076  0.00  0.00     0.028 C 
ATOM     12  C   LIG d   1      -6.492  72.957 116.544  0.00  0.00     0.006 C 
ENDBRANCH   8  11
ENDBRANCH   7   8
ENDBRANCH   1   7
BRANCH   6  13
ATOM     13  N   LIG d   1      -5.071  76.397 117.146  0.00  0.00    -0.311 N 
ATOM     14  C   LIG d   1      -3.882  76.372 116.546  0.00  0.00     0.210 C 
ATOM     15  C   LIG d   1      -3.022  75.145 116.866  0.00  0.00     0.109 C 
ATOM     16  O   LIG d   1      -3.445  77.265 115.805  0.00  0.00    -0.276 OA
ATOM     17  H   LIG d   1      -5.331  75.647 117.756  0.00  0.00     0.149 HD
ENDBRANCH   6  13
BRANCH   5  18
ATOM     18  N   LIG d   1      -4.601  79.327 117.869  0.00  0.00     0.381 N 
ATOM     19  H   LIG d   1      -4.582  80.109 118.492  0.00  0.00    -0.090 HD
ATOM     20  H   LIG d   1      -4.502  79.671 116.929  0.00  0.00    -0.090 HD
ATOM     21  H   LIG d   1      -3.853  78.704 118.082  0.00  0.00    -0.090 HD
ENDBRANCH   5  18
BRANCH   3  22
ATOM     22  C   LIG d   1      -9.350  79.861 118.174  0.00  0.00     0.382 C 
ATOM     23  O   LIG d   1     -10.446  79.314 118.446  0.00  0.00    -0.241 OA
ATOM     24  O   LIG d   1      -9.245  81.100 118.259  0.00  0.00    -0.241 OA
ENDBRANCH   3  22
TORSDOF 7
ENDMDL
MODEL 2
REMARK VINA RESULT:      -5.4     13.440     16.302
REMARK  7 active torsions:
REMARK  status: ('A' for Active; 'I' for Inactive)
REMARK    1  A    between atoms: C_2  and  C_3 
REMARK    2  A    between atoms: C_3  and  O_6 
REMARK    3  A    between atoms: C_3  and  C_4 
REMARK    4  A    between atoms: C_7  and  O_6 
REMARK    5  A    between atoms: C_9  and  C_10 
REMARK    6  A    between atoms: N_15  and  C_14 
REMARK    7  A    between atoms: N_20  and  C_19 
REMARK       I    between atoms: C_22  and  N_20 
ROOT
ATOM      1  C   LIG d   1      -5.775  92.030 118.900  0.00  0.00     0.161 C 
ATOM      2  C   LIG d   1      -5.821  90.932 118.026  0.00  0.00     0.016 C 
ATOM      3  C   LIG d   1      -6.661  90.876 116.890  0.00  0.00     0.038 C 
ATOM      4  C   LIG d   1      -7.406  91.985 116.464  0.00  0.00     0.028 C 
ATOM      5  C   LIG d   1      -7.776  92.938 117.596  0.00  0.00    -0.047 C 
ATOM      6  C   LIG d   1      -6.498  93.294 118.390  0.00  0.00     0.091 C 
ENDROOT
BRANCH   1   7
ATOM      7  O   LIG d   1      -4.405  92.336 119.229  0.00  0.00    -0.368 OA
BRANCH   7   8
ATOM      8  C   LIG d   1      -3.397  91.743 118.375  0.00  0.00     0.119 C 
BRANCH   8   9
ATOM      9  C   LIG d   1      -2.397  91.001 119.283  0.00  0.00     0.028 C 
ATOM     10  C   LIG d   1      -2.461  89.475 119.102  0.00  0.00     0.006 C 
ENDBRANCH   8   9
BRANCH   8  11
ATOM     11  C   LIG d   1      -2.573  92.816 117.658  0.00  0.00     0.028 C 
ATOM     12  C   LIG d   1      -1.117  92.877 118.148  0.00  0.00     0.006 C 
ENDBRANCH   8  11
ENDBRANCH   7   8
ENDBRANCH   1   7
BRANCH   6  13
ATOM     13  N   LIG d   1      -6.784  94.155 119.567  0.00  0.00    -0.311 N 
ATOM     14  C   LIG d   1      -6.798  95.486 119.515  0.00  0.00     0.210 C 
ATOM     15  C   LIG d   1      -7.095  96.182 120.848  0.00  0.00     0.109 C 
ATOM     16  O   LIG d   1      -6.625  96.156 118.486  0.00  0.00    -0.276 OA
ATOM     17  H   LIG d   1      -6.966  93.694 120.436  0.00  0.00     0.149 HD
ENDBRANCH   6  13
BRANCH   5  18
ATOM     18  N   LIG d   1      -8.429  94.115 116.993  0.00  0.00     0.381 N 
ATOM     19  H   LIG d   1      -9.333  93.860 116.648  0.00  0.00    -0.090 HD
ATOM     20  H   LIG d   1      -7.874  94.433 116.219  0.00  0.00    -0.090 HD
ATOM     21  H   LIG d   1      -8.516  94.840 117.670  0.00  0.00    -0.090 HD
ENDBRANCH   5  18
BRANCH   3  22
ATOM     22  C   LIG d   1      -6.791  89.686 116.190  0.00  0.00     0.382 C 
ATOM     23  O   LIG d   1      -7.930  89.205 115.978  0.00  0.00    -0.241 OA
ATOM     24  O   LIG d   1      -5.782  89.066 115.805  0.00  0.00    -0.241 OA
ENDBRANCH   3  22
TORSDOF 7
ENDMDL
MODEL 3
REMARK VINA RESULT:      -5.3      1.413      2.124
REMARK  7 active torsions:
REMARK  status: ('A' for Active; 'I' for Inactive)
REMARK    1  A    between atoms: C_2  and  C_3 
REMARK    2  A    between atoms: C_3  and  O_6 
REMARK    3  A    between atoms: C_3  and  C_4 
REMARK    4  A    between atoms: C_7  and  O_6 
REMARK    5  A    between atoms: C_9  and  C_10 
REMARK    6  A    between atoms: N_15  and  C_14 
REMARK    7  A    between atoms: N_20  and  C_19 
REMARK       I    between atoms: C_22  and  N_20 
ROOT
ATOM      1  C   LIG d   1      -6.837  75.814 117.160  0.00  0.00     0.161 C 
ATOM      2  C   LIG d   1      -7.685  76.731 117.804  0.00  0.00     0.016 C 
ATOM      3  C   LIG d   1      -7.443  78.124 117.838  0.00  0.00     0.038 C 
ATOM      4  C   LIG d   1      -6.410  78.715 117.095  0.00  0.00     0.028 C 
ATOM      5  C   LIG d   1      -5.234  77.778 116.841  0.00  0.00    -0.047 C 
ATOM      6  C   LIG d   1      -5.766  76.453 116.251  0.00  0.00     0.091 C 
ENDROOT
BRANCH   1   7
ATOM      7  O   LIG d   1      -7.623  74.862 116.416  0.00  0.00    -0.368 OA
BRANCH   7   8
ATOM      8  C   LIG d   1      -8.140  73.737 117.168  0.00  0.00     0.119 C 
BRANCH   8   9
ATOM      9  C   LIG d   1      -7.290  72.505 116.801  0.00  0.00     0.028 C 
ATOM     10  C   LIG d   1      -8.006  71.571 115.811  0.00  0.00     0.006 C 
ENDBRANCH   8   9
BRANCH   8  11
ATOM     11  C   LIG d   1      -9.568  73.387 116.737  0.00  0.00     0.028 C 
ATOM     12  C   LIG d   1     -10.463  74.627 116.580  0.00  0.00     0.006 C 
ENDBRANCH   8  11
ENDBRANCH   7   8
ENDBRANCH   1   7
BRANCH   6  13
ATOM     13  N   LIG d   1      -4.689  75.448 116.051  0.00  0.00    -0.311 N 
ATOM     14  C   LIG d   1      -3.648  75.317 116.871  0.00  0.00     0.210 C 
ATOM     15  C   LIG d   1      -2.642  74.233 116.470  0.00  0.00     0.109 C 
ATOM     16  O   LIG d   1      -3.478  75.974 117.909  0.00  0.00    -0.276 OA
ATOM     17  H   LIG d   1      -4.764  74.853 115.250  0.00  0.00     0.149 HD
ENDBRANCH   6  13
BRANCH   5  18
ATOM     18  N   LIG d   1      -4.295  78.476 115.943  0.00  0.00     0.381 N 
ATOM     19  H   LIG d   1      -4.141  79.408 116.271  0.00  0.00    -0.090 HD
ATOM     20  H   LIG d   1      -4.701  78.528 115.025  0.00  0.00    -0.090 HD
ATOM     21  H   LIG d   1      -3.430  77.983 115.904  0.00  0.00    -0.090 HD
ENDBRANCH   5  18
BRANCH   3  22
ATOM     22  C   LIG d   1      -8.216  78.936 118.653  0.00  0.00     0.382 C 
ATOM     23  O   LIG d   1      -7.703  79.489 119.656  0.00  0.00    -0.241 OA
ATOM     24  O   LIG d   1      -9.431  79.087 118.425  0.00  0.00    -0.241 OA
ENDBRANCH   3  22
TORSDOF 7
ENDMDL
MODEL 4
REMARK VINA RESULT:      -5.2      1.883      5.064
REMARK  7 active torsions:
REMARK  status: ('A' for Active; 'I' for Inactive)
REMARK    1  A    between atoms: C_2  and  C_3 
REMARK    2  A    between atoms: C_3  and  O_6 
REMARK    3  A    between atoms: C_3  and  C_4 
REMARK    4  A    between atoms: C_7  and  O_6 
REMARK    5  A    between atoms: C_9  and  C_10 
REMARK    6  A    between atoms: N_15  and  C_14 
REMARK    7  A    between atoms: N_20  and  C_19 
REMARK       I    between atoms: C_22  and  N_20 
ROOT
ATOM      1  C   LIG d   1      -7.749  77.054 116.880  0.00  0.00     0.161 C 
ATOM      2  C   LIG d   1      -8.746  76.071 116.995  0.00  0.00     0.016 C 
ATOM      3  C   LIG d   1      -8.499  74.689 116.824  0.00  0.00     0.038 C 
ATOM      4  C   LIG d   1      -7.200  74.180 116.675  0.00  0.00     0.028 C 
ATOM      5  C   LIG d   1      -6.228  75.175 116.051  0.00  0.00    -0.047 C 
ATOM      6  C   LIG d   1      -6.306  76.509 116.829  0.00  0.00     0.091 C 
ENDROOT
BRANCH   1   7
ATOM      7  O   LIG d   1      -7.884  78.013 117.947  0.00  0.00    -0.368 OA
BRANCH   7   8
ATOM      8  C   LIG d   1      -8.352  79.330 117.565  0.00  0.00     0.119 C 
BRANCH   8   9
ATOM      9  C   LIG d   1      -7.214  80.328 117.854  0.00  0.00     0.028 C 
ATOM     10  C   LIG d   1      -6.317  79.875 119.019  0.00  0.00     0.006 C 
ENDBRANCH   8   9
BRANCH   8  11
ATOM     11  C   LIG d   1      -9.521  79.783 118.444  0.00  0.00     0.028 C 
ATOM     12  C   LIG d   1     -10.236  81.026 117.891  0.00  0.00     0.006 C 
ENDBRANCH   8  11
ENDBRANCH   7   8
ENDBRANCH   1   7
BRANCH   6  13
ATOM     13  N   LIG d   1      -5.448  77.565 116.231  0.00  0.00    -0.311 N 
ATOM     14  C   LIG d   1      -4.217  77.839 116.660  0.00  0.00     0.210 C 
ATOM     15  C   LIG d   1      -3.512  78.978 115.917  0.00  0.00     0.109 C 
ATOM     16  O   LIG d   1      -3.630  77.225 117.563  0.00  0.00    -0.276 OA
ATOM     17  H   LIG d   1      -5.834  78.091 115.472  0.00  0.00     0.149 HD
ENDBRANCH   6  13
BRANCH   5  18
ATOM     18  N   LIG d   1      -4.885  74.565 116.082  0.00  0.00     0.381 N 
ATOM     19  H   LIG d   1      -4.194  75.276 116.217  0.00  0.00    -0.090 HD
ATOM     20  H   LIG d   1      -4.710  74.120 115.198  0.00  0.00    -0.090 HD
ATOM     21  H   LIG d   1      -4.832  73.895 116.817  0.00  0.00    -0.090 HD
ENDBRANCH   5  18
BRANCH   3  22
ATOM     22  C   LIG d   1      -9.565  73.804 116.761  0.00  0.00     0.382 C 
ATOM     23  O   LIG d   1      -9.375  72.579 116.959  0.00  0.00    -0.241 OA
ATOM     24  O   LIG d   1     -10.705  74.207 116.466  0.00  0.00    -0.241 OA
ENDBRANCH   3  22
TORSDOF 7
ENDMDL
MODEL 5
REMARK VINA RESULT:      -5.0     13.473     15.262
REMARK  7 active torsions:
REMARK  status: ('A' for Active; 'I' for Inactive)
REMARK    1  A    between atoms: C_2  and  C_3 
REMARK    2  A    between atoms: C_3  and  O_6 
REMARK    3  A    between atoms: C_3  and  C_4 
REMARK    4  A    between atoms: C_7  and  O_6 
REMARK    5  A    between atoms: C_9  and  C_10 
REMARK    6  A    between atoms: N_15  and  C_14 
REMARK    7  A    between atoms: N_20  and  C_19 
REMARK       I    between atoms: C_22  and  N_20 
ROOT
ATOM      1  C   LIG d   1      -3.413  90.617 117.869  0.00  0.00     0.161 C 
ATOM      2  C   LIG d   1      -4.530  90.159 117.152  0.00  0.00     0.016 C 
ATOM      3  C   LIG d   1      -5.662  90.961 116.879  0.00  0.00     0.038 C 
ATOM      4  C   LIG d   1      -5.689  92.332 117.177  0.00  0.00     0.028 C 
ATOM      5  C   LIG d   1      -4.791  92.714 118.349  0.00  0.00    -0.047 C 
ATOM      6  C   LIG d   1      -3.376  92.141 118.105  0.00  0.00     0.091 C 
ENDROOT
BRANCH   1   7
ATOM      7  O   LIG d   1      -2.202  90.182 117.218  0.00  0.00    -0.368 OA
BRANCH   7   8
ATOM      8  C   LIG d   1      -1.485  89.101 117.862  0.00  0.00     0.119 C 
BRANCH   8   9
ATOM      9  C   LIG d   1      -2.095  88.912 119.265  0.00  0.00     0.028 C 
ATOM     10  C   LIG d   1      -1.086  89.203 120.388  0.00  0.00     0.006 C 
ENDBRANCH   8   9
BRANCH   8  11
ATOM     11  C   LIG d   1      -0.019  89.471 118.104  0.00  0.00     0.028 C 
ATOM     12  C   LIG d   1       0.380  90.795 117.434  0.00  0.00     0.006 C 
ENDBRANCH   8  11
ENDBRANCH   7   8
ENDBRANCH   1   7
BRANCH   6  13
ATOM     13  N   LIG d   1      -2.457  92.398 119.245  0.00  0.00    -0.311 N 
ATOM     14  C   LIG d   1      -1.610  93.425 119.286  0.00  0.00     0.210 C 
ATOM     15  C   LIG d   1      -0.738  93.493 120.544  0.00  0.00     0.109 C 
ATOM     16  O   LIG d   1      -1.520  94.303 118.415  0.00  0.00    -0.276 OA
ATOM     17  H   LIG d   1      -2.486  91.751 120.009  0.00  0.00     0.149 HD
ENDBRANCH   6  13
BRANCH   5  18
ATOM     18  N   LIG d   1      -4.808  94.185 118.462  0.00  0.00     0.381 N 
ATOM     19  H   LIG d   1      -5.511  94.466 119.116  0.00  0.00    -0.090 HD
ATOM     20  H   LIG d   1      -5.036  94.577 117.565  0.00  0.00    -0.090 HD
ATOM     21  H   LIG d   1      -3.917  94.514 118.760  0.00  0.00    -0.090 HD
ENDBRANCH   5  18
BRANCH   3  22
ATOM     22  C   LIG d   1      -6.800  90.383 116.337  0.00  0.00     0.382 C 
ATOM     23  O   LIG d   1      -7.678  91.104 115.805  0.00  0.00    -0.241 OA
ATOM     24  O   LIG d   1      -6.980  89.152 116.413  0.00  0.00    -0.241 OA
ENDBRANCH   3  22
TORSDOF 7
ENDMDL
MODEL 6
REMARK VINA RESULT:      -5.0      0.876      1.750
REMARK  7 active torsions:
REMARK  status: ('A' for Active; 'I' for Inactive)
REMARK    1  A    between atoms: C_2  and  C_3 
REMARK    2  A    between atoms: C_3  and  O_6 
REMARK    3  A    between atoms: C_3  and  C_4 
REMARK    4  A    between atoms: C_7  and  O_6 
REMARK    5  A    between atoms: C_9  and  C_10 
REMARK    6  A    between atoms: N_15  and  C_14 
REMARK    7  A    between atoms: N_20  and  C_19 
REMARK       I    between atoms: C_22  and  N_20 
ROOT
ATOM      1  C   LIG d   1      -7.844  77.376 117.479  0.00  0.00     0.161 C 
ATOM      2  C   LIG d   1      -8.955  78.211 117.680  0.00  0.00     0.016 C 
ATOM      3  C   LIG d   1      -8.853  79.603 117.904  0.00  0.00     0.038 C 
ATOM      4  C   LIG d   1      -7.632  80.284 117.792  0.00  0.00     0.028 C 
ATOM      5  C   LIG d   1      -6.420  79.408 118.091  0.00  0.00    -0.047 C 
ATOM      6  C   LIG d   1      -6.512  78.118 117.243  0.00  0.00     0.091 C 
ENDROOT
BRANCH   1   7
ATOM      7  O   LIG d   1      -8.107  76.463 116.395  0.00  0.00    -0.368 OA
BRANCH   7   8
ATOM      8  C   LIG d   1      -8.351  75.084 116.768  0.00  0.00     0.119 C 
BRANCH   8   9
ATOM      9  C   LIG d   1      -7.542  74.194 115.805  0.00  0.00     0.028 C 
ATOM     10  C   LIG d   1      -6.149  73.846 116.358  0.00  0.00     0.006 C 
ENDBRANCH   8   9
BRANCH   8  11
ATOM     11  C   LIG d   1      -9.816  74.697 116.544  0.00  0.00     0.028 C 
ATOM     12  C   LIG d   1     -10.113  73.240 116.933  0.00  0.00     0.006 C 
ENDBRANCH   8  11
ENDBRANCH   7   8
ENDBRANCH   1   7
BRANCH   6  13
ATOM     13  N   LIG d   1      -5.408  77.167 117.536  0.00  0.00    -0.311 N 
ATOM     14  C   LIG d   1      -4.309  77.066 116.791  0.00  0.00     0.210 C 
ATOM     15  C   LIG d   1      -3.305  76.008 117.258  0.00  0.00     0.109 C 
ATOM     16  O   LIG d   1      -4.056  77.775 115.805  0.00  0.00    -0.276 OA
ATOM     17  H   LIG d   1      -5.517  76.575 118.337  0.00  0.00     0.149 HD
ENDBRANCH   6  13
BRANCH   5  18
ATOM     18  N   LIG d   1      -5.212  80.204 117.803  0.00  0.00     0.381 N 
ATOM     19  H   LIG d   1      -4.794  79.890 116.950  0.00  0.00    -0.090 HD
ATOM     20  H   LIG d   1      -4.550  80.071 118.546  0.00  0.00    -0.090 HD
ATOM     21  H   LIG d   1      -5.450  81.169 117.729  0.00  0.00    -0.090 HD
ENDBRANCH   5  18
BRANCH   3  22
ATOM     22  C   LIG d   1      -9.976  80.322 118.284  0.00  0.00     0.382 C 
ATOM     23  O   LIG d   1     -10.306  81.352 117.648  0.00  0.00    -0.241 OA
ATOM     24  O   LIG d   1     -10.638  79.979 119.282  0.00  0.00    -0.241 OA
ENDBRANCH   3  22
TORSDOF 7
ENDMDL
MODEL 7
REMARK VINA RESULT:      -4.7     13.912     15.922
REMARK  7 active torsions:
REMARK  status: ('A' for Active; 'I' for Inactive)
REMARK    1  A    between atoms: C_2  and  C_3 
REMARK    2  A    between atoms: C_3  and  O_6 
REMARK    3  A    between atoms: C_3  and  C_4 
REMARK    4  A    between atoms: C_7  and  O_6 
REMARK    5  A    between atoms: C_9  and  C_10 
REMARK    6  A    between atoms: N_15  and  C_14 
REMARK    7  A    between atoms: N_20  and  C_19 
REMARK       I    between atoms: C_22  and  N_20 
ROOT
ATOM      1  C   LIG d   1      -5.125  91.963 119.480  0.00  0.00     0.161 C 
ATOM      2  C   LIG d   1      -6.480  92.329 119.545  0.00  0.00     0.016 C 
ATOM      3  C   LIG d   1      -6.932  93.662 119.412  0.00  0.00     0.038 C 
ATOM      4  C   LIG d   1      -6.067  94.707 119.053  0.00  0.00     0.028 C 
ATOM      5  C   LIG d   1      -4.621  94.468 119.475  0.00  0.00    -0.047 C 
ATOM      6  C   LIG d   1      -4.178  93.072 118.979  0.00  0.00     0.091 C 
ENDROOT
BRANCH   1   7
ATOM      7  O   LIG d   1      -4.978  90.776 118.675  0.00  0.00    -0.368 OA
BRANCH   7   8
ATOM      8  C   LIG d   1      -4.881  90.985 117.245  0.00  0.00     0.119 C 
BRANCH   8   9
ATOM      9  C   LIG d   1      -6.106  90.313 116.595  0.00  0.00     0.028 C 
ATOM     10  C   LIG d   1      -7.034  91.326 115.904  0.00  0.00     0.006 C 
ENDBRANCH   8   9
BRANCH   8  11
ATOM     11  C   LIG d   1      -3.664  90.264 116.657  0.00  0.00     0.028 C 
ATOM     12  C   LIG d   1      -2.899  89.438 117.703  0.00  0.00     0.006 C 
ENDBRANCH   8  11
ENDBRANCH   7   8
ENDBRANCH   1   7
BRANCH   6  13
ATOM     13  N   LIG d   1      -2.803  92.724 119.421  0.00  0.00    -0.311 N 
ATOM     14  C   LIG d   1      -1.723  92.894 118.661  0.00  0.00     0.210 C 
ATOM     15  C   LIG d   1      -0.404  92.451 119.302  0.00  0.00     0.109 C 
ATOM     16  O   LIG d   1      -1.728  93.401 117.528  0.00  0.00    -0.276 OA
ATOM     17  H   LIG d   1      -2.704  92.336 120.339  0.00  0.00     0.149 HD
ENDBRANCH   6  13
BRANCH   5  18
ATOM     18  N   LIG d   1      -3.808  95.565 118.918  0.00  0.00     0.381 N 
ATOM     19  H   LIG d   1      -3.818  95.521 117.919  0.00  0.00    -0.090 HD
ATOM     20  H   LIG d   1      -2.858  95.456 119.229  0.00  0.00    -0.090 HD
ATOM     21  H   LIG d   1      -4.166  96.443 119.223  0.00  0.00    -0.090 HD
ENDBRANCH   5  18
BRANCH   3  22
ATOM     22  C   LIG d   1      -8.258  93.968 119.680  0.00  0.00     0.382 C 
ATOM     23  O   LIG d   1      -8.549  94.690 120.663  0.00  0.00    -0.241 OA
ATOM     24  O   LIG d   1      -9.170  93.494 118.976  0.00  0.00    -0.241 OA
ENDBRANCH   3  22
TORSDOF 7
ENDMDL
MODEL 8
REMARK VINA RESULT:      -4.7     13.819     17.134
REMARK  7 active torsions:
REMARK  status: ('A' for Active; 'I' for Inactive)
REMARK    1  A    between atoms: C_2  and  C_3 
REMARK    2  A    between atoms: C_3  and  O_6 
REMARK    3  A    between atoms: C_3  and  C_4 
REMARK    4  A    between atoms: C_7  and  O_6 
REMARK    5  A    between atoms: C_9  and  C_10 
REMARK    6  A    between atoms: N_15  and  C_14 
REMARK    7  A    between atoms: N_20  and  C_19 
REMARK       I    between atoms: C_22  and  N_20 
ROOT
ATOM      1  C   LIG d   1      -6.050  92.272 119.465  0.00  0.00     0.161 C 
ATOM      2  C   LIG d   1      -5.757  91.260 118.536  0.00  0.00     0.016 C 
ATOM      3  C   LIG d   1      -6.310  91.214 117.235  0.00  0.00     0.038 C 
ATOM      4  C   LIG d   1      -7.082  92.266 116.720  0.00  0.00     0.028 C 
ATOM      5  C   LIG d   1      -7.815  93.062 117.794  0.00  0.00    -0.047 C 
ATOM      6  C   LIG d   1      -6.802  93.487 118.882  0.00  0.00     0.091 C 
ENDROOT
BRANCH   1   7
ATOM      7  O   LIG d   1      -4.840  92.700 120.120  0.00  0.00    -0.368 OA
BRANCH   7   8
ATOM      8  C   LIG d   1      -4.110  93.772 119.474  0.00  0.00     0.119 C 
BRANCH   8   9
ATOM      9  C   LIG d   1      -2.723  93.222 119.089  0.00  0.00     0.028 C 
ATOM     10  C   LIG d   1      -2.614  92.903 117.589  0.00  0.00     0.006 C 
ENDBRANCH   8   9
BRANCH   8  11
ATOM     11  C   LIG d   1      -3.834  94.923 120.446  0.00  0.00     0.028 C 
ATOM     12  C   LIG d   1      -4.315  94.624 121.875  0.00  0.00     0.006 C 
ENDBRANCH   8  11
ENDBRANCH   7   8
ENDBRANCH   1   7
BRANCH   6  13
ATOM     13  N   LIG d   1      -7.452  94.199 120.014  0.00  0.00    -0.311 N 
ATOM     14  C   LIG d   1      -7.500  95.526 120.114  0.00  0.00     0.210 C 
ATOM     15  C   LIG d   1      -8.200  96.055 121.370  0.00  0.00     0.109 C 
ATOM     16  O   LIG d   1      -7.059  96.316 119.265  0.00  0.00    -0.276 OA
ATOM     17  H   LIG d   1      -7.863  93.635 120.731  0.00  0.00     0.149 HD
ENDBRANCH   6  13
BRANCH   5  18
ATOM     18  N   LIG d   1      -8.467  94.208 117.132  0.00  0.00     0.381 N 
ATOM     19  H   LIG d   1      -7.833  94.631 116.485  0.00  0.00    -0.090 HD
ATOM     20  H   LIG d   1      -8.709  94.890 117.829  0.00  0.00    -0.090 HD
ATOM     21  H   LIG d   1      -9.287  93.904 116.655  0.00  0.00    -0.090 HD
ENDBRANCH   5  18
BRANCH   3  22
ATOM     22  C   LIG d   1      -6.125  90.086 116.449  0.00  0.00     0.382 C 
ATOM     23  O   LIG d   1      -7.005  89.193 116.418  0.00  0.00    -0.241 OA
ATOM     24  O   LIG d   1      -5.070  89.931 115.806  0.00  0.00    -0.241 OA
ENDBRANCH   3  22
TORSDOF 7
ENDMDL
MODEL 9
REMARK VINA RESULT:      -4.7      2.014      5.147
REMARK  7 active torsions:
REMARK  status: ('A' for Active; 'I' for Inactive)
REMARK    1  A    between atoms: C_2  and  C_3 
REMARK    2  A    between atoms: C_3  and  O_6 
REMARK    3  A    between atoms: C_3  and  C_4 
REMARK    4  A    between atoms: C_7  and  O_6 
REMARK    5  A    between atoms: C_9  and  C_10 
REMARK    6  A    between atoms: N_15  and  C_14 
REMARK    7  A    between atoms: N_20  and  C_19 
REMARK       I    between atoms: C_22  and  N_20 
ROOT
ATOM      1  C   LIG d   1      -5.877  76.559 116.898  0.00  0.00     0.161 C 
ATOM      2  C   LIG d   1      -6.603  75.402 116.571  0.00  0.00     0.016 C 
ATOM      3  C   LIG d   1      -8.013  75.323 116.638  0.00  0.00     0.038 C 
ATOM      4  C   LIG d   1      -8.808  76.450 116.892  0.00  0.00     0.028 C 
ATOM      5  C   LIG d   1      -8.099  77.516 117.721  0.00  0.00    -0.047 C 
ATOM      6  C   LIG d   1      -6.733  77.832 117.070  0.00  0.00     0.091 C 
ENDROOT
BRANCH   1   7
ATOM      7  O   LIG d   1      -4.843  76.780 115.918  0.00  0.00    -0.368 OA
BRANCH   7   8
ATOM      8  C   LIG d   1      -3.480  76.641 116.389  0.00  0.00     0.119 C 
BRANCH   8   9
ATOM      9  C   LIG d   1      -2.675  77.831 115.832  0.00  0.00     0.028 C 
ATOM     10  C   LIG d   1      -2.353  78.879 116.911  0.00  0.00     0.006 C 
ENDBRANCH   8   9
BRANCH   8  11
ATOM     11  C   LIG d   1      -2.813  75.392 115.805  0.00  0.00     0.028 C 
ATOM     12  C   LIG d   1      -2.466  74.346 116.876  0.00  0.00     0.006 C 
ENDBRANCH   8  11
ENDBRANCH   7   8
ENDBRANCH   1   7
BRANCH   6  13
ATOM     13  N   LIG d   1      -5.938  78.804 117.864  0.00  0.00    -0.311 N 
ATOM     14  C   LIG d   1      -6.065  80.125 117.746  0.00  0.00     0.210 C 
ATOM     15  C   LIG d   1      -5.135  80.947 118.644  0.00  0.00     0.109 C 
ATOM     16  O   LIG d   1      -6.883  80.694 117.007  0.00  0.00    -0.276 OA
ATOM     17  H   LIG d   1      -5.272  78.429 118.511  0.00  0.00     0.149 HD
ENDBRANCH   6  13
BRANCH   5  18
ATOM     18  N   LIG d   1      -8.990  78.690 117.793  0.00  0.00     0.381 N 
ATOM     19  H   LIG d   1      -9.074  79.108 116.888  0.00  0.00    -0.090 HD
ATOM     20  H   LIG d   1      -8.586  79.367 118.417  0.00  0.00    -0.090 HD
ATOM     21  H   LIG d   1      -9.888  78.416 118.126  0.00  0.00    -0.090 HD
ENDBRANCH   5  18
BRANCH   3  22
ATOM     22  C   LIG d   1      -8.641  74.095 116.488  0.00  0.00     0.382 C 
ATOM     23  O   LIG d   1      -8.057  73.163 115.885  0.00  0.00    -0.241 OA
ATOM     24  O   LIG d   1      -9.800  73.923 116.910  0.00  0.00    -0.241 OA
ENDBRANCH   3  22
TORSDOF 7
ENDMDL
