MODEL 1
REMARK VINA RESULT:      -5.5      0.000      0.000
REMARK  7 active torsions:
REMARK  status: ('A' for Active; 'I' for Inactive)
REMARK    1  A    between atoms: C_2  and  C_3 
REMARK    2  A    between atoms: C_3  and  O_6 
REMARK    3  A    between atoms: C_3  and  C_4 
REMARK    4  A    between atoms: C_7  and  O_6 
REMARK    5  A    between atoms: C_9  and  C_10 
REMARK    6  A    between atoms: N_15  and  C_14 
REMARK    7  A    between atoms: N_20  and  C_19 
REMARK       I    between atoms: C_22  and  N_20 
ROOT
ATOM      1  C   LIG d   1      -6.706  79.176 117.990  0.00  0.00     0.161 C 
ATOM      2  C   LIG d   1      -7.061  77.932 117.442  0.00  0.00     0.016 C 
ATOM      3  C   LIG d   1      -8.362  77.385 117.531  0.00  0.00     0.038 C 
ATOM      4  C   LIG d   1      -9.441  78.119 118.046  0.00  0.00     0.028 C 
ATOM      5  C   LIG d   1      -9.024  79.175 119.065  0.00  0.00    -0.047 C 
ATOM      6  C   LIG d   1      -7.896  80.040 118.458  0.00  0.00     0.091 C 
ENDROOT
BRANCH   1   7
ATOM      7  O   LIG d   1      -5.894  79.909 117.052  0.00  0.00    -0.368 OA
BRANCH   7   8
ATOM      8  C   LIG d   1      -4.634  80.415 117.559  0.00  0.00     0.119 C 
BRANCH   8   9
ATOM      9  C   LIG d   1      -3.557  80.126 116.495  0.00  0.00     0.028 C 
ATOM     10  C   LIG d   1      -3.475  78.633 116.133  0.00  0.00     0.006 C 
ENDBRANCH   8   9
BRANCH   8  11
ATOM     11  C   LIG d   1      -4.187  79.647 118.806  0.00  0.00     0.028 C 
ATOM     12  C   LIG d   1      -3.791  80.575 119.966  0.00  0.00     0.006 C 
ENDBRANCH   8  11
ENDBRANCH   7   8
ENDBRANCH   1   7
BRANCH   6  13
ATOM     13  N   LIG d   1      -7.372  81.044 119.420  0.00  0.00    -0.311 N 
ATOM     14  C   LIG d   1      -7.836  82.289 119.506  0.00  0.00     0.210 C 
ATOM     15  C   LIG d   1      -7.142  83.167 120.552  0.00  0.00     0.109 C 
ATOM     16  O   LIG d   1      -8.779  82.740 118.838  0.00  0.00    -0.276 OA
ATOM     17  H   LIG d   1      -6.627  80.753 120.022  0.00  0.00     0.149 HD
ENDBRANCH   6  13
BRANCH   5  18
ATOM     18  N   LIG d   1     -10.226  79.955 119.415  0.00  0.00     0.381 N 
ATOM     19  H   LIG d   1     -11.018  79.346 119.481  0.00  0.00    -0.090 HD
ATOM     20  H   LIG d   1     -10.403  80.625 118.687  0.00  0.00    -0.090 HD
ATOM     21  H   LIG d   1     -10.087  80.425 120.283  0.00  0.00    -0.090 HD
ENDBRANCH   5  18
BRANCH   3  22
ATOM     22  C   LIG d   1      -8.585  76.074 117.137  0.00  0.00     0.382 C 
ATOM     23  O   LIG d   1      -9.759  75.655 116.992  0.00  0.00    -0.241 OA
ATOM     24  O   LIG d   1      -7.629  75.294 116.969  0.00  0.00    -0.241 OA
ENDBRANCH   3  22
TORSDOF 7
ENDMDL
MODEL 2
REMARK VINA RESULT:      -5.4     21.077     23.149
REMARK  7 active torsions:
REMARK  status: ('A' for Active; 'I' for Inactive)
REMARK    1  A    between atoms: C_2  and  C_3 
REMARK    2  A    between atoms: C_3  and  O_6 
REMARK    3  A    between atoms: C_3  and  C_4 
REMARK    4  A    between atoms: C_7  and  O_6 
REMARK    5  A    between atoms: C_9  and  C_10 
REMARK    6  A    between atoms: N_15  and  C_14 
REMARK    7  A    between atoms: N_20  and  C_19 
REMARK       I    between atoms: C_22  and  N_20 
ROOT
ATOM      1  C   LIG d   1       0.801  58.074 119.520  0.00  0.00     0.161 C 
ATOM      2  C   LIG d   1       0.349  59.064 118.631  0.00  0.00     0.016 C 
ATOM      3  C   LIG d   1      -0.507  58.796 117.539  0.00  0.00     0.038 C 
ATOM      4  C   LIG d   1      -1.095  57.537 117.349  0.00  0.00     0.028 C 
ATOM      5  C   LIG d   1      -0.271  56.390 117.925  0.00  0.00    -0.047 C 
ATOM      6  C   LIG d   1       0.082  56.715 119.395  0.00  0.00     0.091 C 
ENDROOT
BRANCH   1   7
ATOM      7  O   LIG d   1       0.721  58.561 120.874  0.00  0.00    -0.368 OA
BRANCH   7   8
ATOM      8  C   LIG d   1      -0.234  59.623 121.115  0.00  0.00     0.119 C 
BRANCH   8   9
ATOM      9  C   LIG d   1       0.414  60.615 122.100  0.00  0.00     0.028 C 
ATOM     10  C   LIG d   1       1.938  60.435 122.197  0.00  0.00     0.006 C 
ENDBRANCH   8   9
BRANCH   8  11
ATOM     11  C   LIG d   1      -1.483  59.098 121.829  0.00  0.00     0.028 C 
ATOM     12  C   LIG d   1      -2.684  58.932 120.885  0.00  0.00     0.006 C 
ENDBRANCH   8  11
ENDBRANCH   7   8
ENDBRANCH   1   7
BRANCH   6  13
ATOM     13  N   LIG d   1       0.959  55.684 120.008  0.00  0.00    -0.311 N 
ATOM     14  C   LIG d   1       0.495  54.649 120.707  0.00  0.00     0.210 C 
ATOM     15  C   LIG d   1       1.571  53.715 121.270  0.00  0.00     0.109 C 
ATOM     16  O   LIG d   1      -0.706  54.398 120.887  0.00  0.00    -0.276 OA
ATOM     17  H   LIG d   1       1.946  55.793 119.885  0.00  0.00     0.149 HD
ENDBRANCH   6  13
BRANCH   5  18
ATOM     18  N   LIG d   1      -1.064  55.155 117.781  0.00  0.00     0.381 N 
ATOM     19  H   LIG d   1      -1.967  55.373 117.411  0.00  0.00    -0.090 HD
ATOM     20  H   LIG d   1      -1.186  54.739 118.687  0.00  0.00    -0.090 HD
ATOM     21  H   LIG d   1      -0.595  54.518 117.175  0.00  0.00    -0.090 HD
ENDBRANCH   5  18
BRANCH   3  22
ATOM     22  C   LIG d   1      -0.752  59.785 116.598  0.00  0.00     0.382 C 
ATOM     23  O   LIG d   1      -1.922  60.201 116.416  0.00  0.00    -0.241 OA
ATOM     24  O   LIG d   1       0.175  60.236 115.899  0.00  0.00    -0.241 OA
ENDBRANCH   3  22
TORSDOF 7
ENDMDL
MODEL 3
REMARK VINA RESULT:      -5.1     21.144     23.366
REMARK  7 active torsions:
REMARK  status: ('A' for Active; 'I' for Inactive)
REMARK    1  A    between atoms: C_2  and  C_3 
REMARK    2  A    between atoms: C_3  and  O_6 
REMARK    3  A    between atoms: C_3  and  C_4 
REMARK    4  A    between atoms: C_7  and  O_6 
REMARK    5  A    between atoms: C_9  and  C_10 
REMARK    6  A    between atoms: N_15  and  C_14 
REMARK    7  A    between atoms: N_20  and  C_19 
REMARK       I    between atoms: C_22  and  N_20 
ROOT
ATOM      1  C   LIG d   1       1.116  58.040 119.238  0.00  0.00     0.161 C 
ATOM      2  C   LIG d   1       0.617  59.054 118.403  0.00  0.00     0.016 C 
ATOM      3  C   LIG d   1      -0.390  58.839 117.434  0.00  0.00     0.038 C 
ATOM      4  C   LIG d   1      -1.079  57.621 117.339  0.00  0.00     0.028 C 
ATOM      5  C   LIG d   1      -0.263  56.425 117.817  0.00  0.00    -0.047 C 
ATOM      6  C   LIG d   1       0.299  56.731 119.224  0.00  0.00     0.091 C 
ENDROOT
BRANCH   1   7
ATOM      7  O   LIG d   1       1.245  58.537 120.585  0.00  0.00    -0.368 OA
BRANCH   7   8
ATOM      8  C   LIG d   1       2.598  58.719 121.070  0.00  0.00     0.119 C 
BRANCH   8   9
ATOM      9  C   LIG d   1       2.690  60.137 121.664  0.00  0.00     0.028 C 
ATOM     10  C   LIG d   1       1.384  60.573 122.349  0.00  0.00     0.006 C 
ENDBRANCH   8   9
BRANCH   8  11
ATOM     11  C   LIG d   1       3.610  58.694 119.921  0.00  0.00     0.028 C 
ATOM     12  C   LIG d   1       4.240  60.070 119.651  0.00  0.00     0.006 C 
ENDBRANCH   8  11
ENDBRANCH   7   8
ENDBRANCH   1   7
BRANCH   6  13
ATOM     13  N   LIG d   1       1.180  55.647 119.732  0.00  0.00    -0.311 N 
ATOM     14  C   LIG d   1       0.739  54.631 120.472  0.00  0.00     0.210 C 
ATOM     15  C   LIG d   1       1.817  53.633 120.907  0.00  0.00     0.109 C 
ATOM     16  O   LIG d   1      -0.447  54.444 120.782  0.00  0.00    -0.276 OA
ATOM     17  H   LIG d   1       2.152  55.703 119.500  0.00  0.00     0.149 HD
ENDBRANCH   6  13
BRANCH   5  18
ATOM     18  N   LIG d   1      -1.146  55.244 117.792  0.00  0.00     0.381 N 
ATOM     19  H   LIG d   1      -0.595  54.409 117.787  0.00  0.00    -0.090 HD
ATOM     20  H   LIG d   1      -1.694  55.265 116.950  0.00  0.00    -0.090 HD
ATOM     21  H   LIG d   1      -1.746  55.250 118.588  0.00  0.00    -0.090 HD
ENDBRANCH   5  18
BRANCH   3  22
ATOM     22  C   LIG d   1      -0.690  59.839 116.522  0.00  0.00     0.382 C 
ATOM     23  O   LIG d   1      -1.876  60.224 116.381  0.00  0.00    -0.241 OA
ATOM     24  O   LIG d   1       0.203  60.329 115.805  0.00  0.00    -0.241 OA
ENDBRANCH   3  22
TORSDOF 7
ENDMDL
MODEL 4
REMARK VINA RESULT:      -5.1     10.627     12.946
REMARK  7 active torsions:
REMARK  status: ('A' for Active; 'I' for Inactive)
REMARK    1  A    between atoms: C_2  and  C_3 
REMARK    2  A    between atoms: C_3  and  O_6 
REMARK    3  A    between atoms: C_3  and  C_4 
REMARK    4  A    between atoms: C_7  and  O_6 
REMARK    5  A    between atoms: C_9  and  C_10 
REMARK    6  A    between atoms: N_15  and  C_14 
REMARK    7  A    between atoms: N_20  and  C_19 
REMARK       I    between atoms: C_22  and  N_20 
ROOT
ATOM      1  C   LIG d   1      -2.688  90.779 117.959  0.00  0.00     0.161 C 
ATOM      2  C   LIG d   1      -3.673  90.192 117.147  0.00  0.00     0.016 C 
ATOM      3  C   LIG d   1      -4.887  90.832 116.810  0.00  0.00     0.038 C 
ATOM      4  C   LIG d   1      -5.135  92.173 117.142  0.00  0.00     0.028 C 
ATOM      5  C   LIG d   1      -4.390  92.636 118.389  0.00  0.00    -0.047 C 
ATOM      6  C   LIG d   1      -2.893  92.282 118.239  0.00  0.00     0.091 C 
ENDROOT
BRANCH   1   7
ATOM      7  O   LIG d   1      -1.384  90.547 117.391  0.00  0.00    -0.368 OA
BRANCH   7   8
ATOM      8  C   LIG d   1      -0.527  89.630 118.115  0.00  0.00     0.119 C 
BRANCH   8   9
ATOM      9  C   LIG d   1       0.885  90.246 118.150  0.00  0.00     0.028 C 
ATOM     10  C   LIG d   1       0.981  91.541 117.326  0.00  0.00     0.006 C 
ENDBRANCH   8   9
BRANCH   8  11
ATOM     11  C   LIG d   1      -0.373  88.303 117.366  0.00  0.00     0.028 C 
ATOM     12  C   LIG d   1      -1.428  87.263 117.774  0.00  0.00     0.006 C 
ENDBRANCH   8  11
ENDBRANCH   7   8
ENDBRANCH   1   7
BRANCH   6  13
ATOM     13  N   LIG d   1      -2.105  92.626 119.451  0.00  0.00    -0.311 N 
ATOM     14  C   LIG d   1      -1.184  93.587 119.479  0.00  0.00     0.210 C 
ATOM     15  C   LIG d   1      -0.474  93.763 120.825  0.00  0.00     0.109 C 
ATOM     16  O   LIG d   1      -0.910  94.332 118.526  0.00  0.00    -0.276 OA
ATOM     17  H   LIG d   1      -2.285  92.091 120.279  0.00  0.00     0.149 HD
ENDBRANCH   6  13
BRANCH   5  18
ATOM     18  N   LIG d   1      -4.630  94.084 118.539  0.00  0.00     0.381 N 
ATOM     19  H   LIG d   1      -3.837  94.595 118.207  0.00  0.00    -0.090 HD
ATOM     20  H   LIG d   1      -4.754  94.293 119.514  0.00  0.00    -0.090 HD
ATOM     21  H   LIG d   1      -5.443  94.349 118.029  0.00  0.00    -0.090 HD
ENDBRANCH   5  18
BRANCH   3  22
ATOM     22  C   LIG d   1      -5.886  90.117 116.167  0.00  0.00     0.382 C 
ATOM     23  O   LIG d   1      -5.682  88.929 115.819  0.00  0.00    -0.241 OA
ATOM     24  O   LIG d   1      -6.974  90.659 115.891  0.00  0.00    -0.241 OA
ENDBRANCH   3  22
TORSDOF 7
ENDMDL
MODEL 5
REMARK VINA RESULT:      -5.0     10.565     12.590
REMARK  7 active torsions:
REMARK  status: ('A' for Active; 'I' for Inactive)
REMARK    1  A    between atoms: C_2  and  C_3 
REMARK    2  A    between atoms: C_3  and  O_6 
REMARK    3  A    between atoms: C_3  and  C_4 
REMARK    4  A    between atoms: C_7  and  O_6 
REMARK    5  A    between atoms: C_9  and  C_10 
REMARK    6  A    between atoms: N_15  and  C_14 
REMARK    7  A    between atoms: N_20  and  C_19 
REMARK       I    between atoms: C_22  and  N_20 
ROOT
ATOM      1  C   LIG d   1      -2.737  90.565 118.022  0.00  0.00     0.161 C 
ATOM      2  C   LIG d   1      -3.747  90.052 117.190  0.00  0.00     0.016 C 
ATOM      3  C   LIG d   1      -4.898  90.785 116.822  0.00  0.00     0.038 C 
ATOM      4  C   LIG d   1      -5.046  92.144 117.140  0.00  0.00     0.028 C 
ATOM      5  C   LIG d   1      -4.294  92.556 118.401  0.00  0.00    -0.047 C 
ATOM      6  C   LIG d   1      -2.827  92.082 118.287  0.00  0.00     0.091 C 
ENDROOT
BRANCH   1   7
ATOM      7  O   LIG d   1      -1.443  90.225 117.485  0.00  0.00    -0.368 OA
BRANCH   7   8
ATOM      8  C   LIG d   1      -0.615  89.372 118.312  0.00  0.00     0.119 C 
BRANCH   8   9
ATOM      9  C   LIG d   1      -0.266  88.121 117.483  0.00  0.00     0.028 C 
ATOM     10  C   LIG d   1      -1.468  87.178 117.310  0.00  0.00     0.006 C 
ENDBRANCH   8   9
BRANCH   8  11
ATOM     11  C   LIG d   1      -1.389  88.850 119.526  0.00  0.00     0.028 C 
ATOM     12  C   LIG d   1      -0.731  89.232 120.862  0.00  0.00     0.006 C 
ENDBRANCH   8  11
ENDBRANCH   7   8
ENDBRANCH   1   7
BRANCH   6  13
ATOM     13  N   LIG d   1      -2.041  92.371 119.516  0.00  0.00    -0.311 N 
ATOM     14  C   LIG d   1      -0.884  93.029 119.508  0.00  0.00     0.210 C 
ATOM     15  C   LIG d   1      -0.229  93.202 120.882  0.00  0.00     0.109 C 
ATOM     16  O   LIG d   1      -0.353  93.515 118.498  0.00  0.00    -0.276 OA
ATOM     17  H   LIG d   1      -2.414  92.040 120.384  0.00  0.00     0.149 HD
ENDBRANCH   6  13
BRANCH   5  18
ATOM     18  N   LIG d   1      -4.420  94.019 118.537  0.00  0.00     0.381 N 
ATOM     19  H   LIG d   1      -4.560  94.432 117.637  0.00  0.00    -0.090 HD
ATOM     20  H   LIG d   1      -3.568  94.384 118.923  0.00  0.00    -0.090 HD
ATOM     21  H   LIG d   1      -5.186  94.241 119.135  0.00  0.00    -0.090 HD
ENDBRANCH   5  18
BRANCH   3  22
ATOM     22  C   LIG d   1      -5.937  90.147 116.161  0.00  0.00     0.382 C 
ATOM     23  O   LIG d   1      -5.812  88.950 115.805  0.00  0.00    -0.241 OA
ATOM     24  O   LIG d   1      -6.979  90.766 115.876  0.00  0.00    -0.241 OA
ENDBRANCH   3  22
TORSDOF 7
ENDMDL
MODEL 6
REMARK VINA RESULT:      -4.9     21.313     23.527
REMARK  7 active torsions:
REMARK  status: ('A' for Active; 'I' for Inactive)
REMARK    1  A    between atoms: C_2  and  C_3 
REMARK    2  A    between atoms: C_3  and  O_6 
REMARK    3  A    between atoms: C_3  and  C_4 
REMARK    4  A    between atoms: C_7  and  O_6 
REMARK    5  A    between atoms: C_9  and  C_10 
REMARK    6  A    between atoms: N_15  and  C_14 
REMARK    7  A    between atoms: N_20  and  C_19 
REMARK       I    between atoms: C_22  and  N_20 
ROOT
ATOM      1  C   LIG d   1       1.420  58.273 118.473  0.00  0.00     0.161 C 
ATOM      2  C   LIG d   1       0.495  59.312 118.280  0.00  0.00     0.016 C 
ATOM      3  C   LIG d   1      -0.850  59.096 117.901  0.00  0.00     0.038 C 
ATOM      4  C   LIG d   1      -1.404  57.809 117.835  0.00  0.00     0.028 C 
ATOM      5  C   LIG d   1      -0.379  56.723 117.529  0.00  0.00    -0.047 C 
ATOM      6  C   LIG d   1       0.805  56.858 118.514  0.00  0.00     0.091 C 
ENDROOT
BRANCH   1   7
ATOM      7  O   LIG d   1       2.190  58.519 119.667  0.00  0.00    -0.368 OA
BRANCH   7   8
ATOM      8  C   LIG d   1       3.612  58.719 119.478  0.00  0.00     0.119 C 
BRANCH   8   9
ATOM      9  C   LIG d   1       4.340  57.548 120.168  0.00  0.00     0.028 C 
ATOM     10  C   LIG d   1       5.852  57.795 120.302  0.00  0.00     0.006 C 
ENDBRANCH   8   9
BRANCH   8  11
ATOM     11  C   LIG d   1       4.099  59.980 120.199  0.00  0.00     0.028 C 
ATOM     12  C   LIG d   1       3.276  60.301 121.457  0.00  0.00     0.006 C 
ENDBRANCH   8  11
ENDBRANCH   7   8
ENDBRANCH   1   7
BRANCH   6  13
ATOM     13  N   LIG d   1       1.893  55.886 118.230  0.00  0.00    -0.311 N 
ATOM     14  C   LIG d   1       2.006  54.712 118.848  0.00  0.00     0.210 C 
ATOM     15  C   LIG d   1       3.212  53.870 118.421  0.00  0.00     0.109 C 
ATOM     16  O   LIG d   1       1.204  54.273 119.687  0.00  0.00    -0.276 OA
ATOM     17  H   LIG d   1       2.570  56.148 117.541  0.00  0.00     0.149 HD
ENDBRANCH   6  13
BRANCH   5  18
ATOM     18  N   LIG d   1      -1.066  55.421 117.626  0.00  0.00     0.381 N 
ATOM     19  H   LIG d   1      -2.054  55.564 117.689  0.00  0.00    -0.090 HD
ATOM     20  H   LIG d   1      -0.761  54.954 118.462  0.00  0.00    -0.090 HD
ATOM     21  H   LIG d   1      -0.853  54.863 116.828  0.00  0.00    -0.090 HD
ENDBRANCH   5  18
BRANCH   3  22
ATOM     22  C   LIG d   1      -1.645  60.175 117.543  0.00  0.00     0.382 C 
ATOM     23  O   LIG d   1      -1.671  61.200 118.266  0.00  0.00    -0.241 OA
ATOM     24  O   LIG d   1      -2.369  60.118 116.532  0.00  0.00    -0.241 OA
ENDBRANCH   3  22
TORSDOF 7
ENDMDL
MODEL 7
REMARK VINA RESULT:      -4.8     11.361     14.110
REMARK  7 active torsions:
REMARK  status: ('A' for Active; 'I' for Inactive)
REMARK    1  A    between atoms: C_2  and  C_3 
REMARK    2  A    between atoms: C_3  and  O_6 
REMARK    3  A    between atoms: C_3  and  C_4 
REMARK    4  A    between atoms: C_7  and  O_6 
REMARK    5  A    between atoms: C_9  and  C_10 
REMARK    6  A    between atoms: N_15  and  C_14 
REMARK    7  A    between atoms: N_20  and  C_19 
REMARK       I    between atoms: C_22  and  N_20 
ROOT
ATOM      1  C   LIG d   1       0.274  90.404 116.811  0.00  0.00     0.161 C 
ATOM      2  C   LIG d   1       1.556  90.945 117.007  0.00  0.00     0.016 C 
ATOM      3  C   LIG d   1       1.795  92.142 117.719  0.00  0.00     0.038 C 
ATOM      4  C   LIG d   1       0.775  92.805 118.418  0.00  0.00     0.028 C 
ATOM      5  C   LIG d   1      -0.613  92.574 117.829  0.00  0.00    -0.047 C 
ATOM      6  C   LIG d   1      -0.839  91.054 117.660  0.00  0.00     0.091 C 
ENDROOT
BRANCH   1   7
ATOM      7  O   LIG d   1       0.305  88.980 117.031  0.00  0.00    -0.368 OA
BRANCH   7   8
ATOM      8  C   LIG d   1       0.163  88.545 118.405  0.00  0.00     0.119 C 
BRANCH   8   9
ATOM      9  C   LIG d   1       1.453  87.793 118.788  0.00  0.00     0.028 C 
ATOM     10  C   LIG d   1       2.127  87.128 117.577  0.00  0.00     0.006 C 
ENDBRANCH   8   9
BRANCH   8  11
ATOM     11  C   LIG d   1      -0.963  87.517 118.550  0.00  0.00     0.028 C 
ATOM     12  C   LIG d   1      -1.624  87.163 117.208  0.00  0.00     0.006 C 
ENDBRANCH   8  11
ENDBRANCH   7   8
ENDBRANCH   1   7
BRANCH   6  13
ATOM     13  N   LIG d   1      -2.139  90.743 117.011  0.00  0.00    -0.311 N 
ATOM     14  C   LIG d   1      -3.257  90.497 117.691  0.00  0.00     0.210 C 
ATOM     15  C   LIG d   1      -4.482  90.179 116.828  0.00  0.00     0.109 C 
ATOM     16  O   LIG d   1      -3.359  90.543 118.926  0.00  0.00    -0.276 OA
ATOM     17  H   LIG d   1      -2.154  90.715 116.010  0.00  0.00     0.149 HD
ENDBRANCH   6  13
BRANCH   5  18
ATOM     18  N   LIG d   1      -1.592  93.207 118.732  0.00  0.00     0.381 N 
ATOM     19  H   LIG d   1      -1.952  94.040 118.311  0.00  0.00    -0.090 HD
ATOM     20  H   LIG d   1      -1.129  93.460 119.587  0.00  0.00    -0.090 HD
ATOM     21  H   LIG d   1      -2.338  92.575 118.924  0.00  0.00    -0.090 HD
ENDBRANCH   5  18
BRANCH   3  22
ATOM     22  C   LIG d   1       3.059  92.710 117.704  0.00  0.00     0.382 C 
ATOM     23  O   LIG d   1       3.379  93.552 118.578  0.00  0.00    -0.241 OA
ATOM     24  O   LIG d   1       3.869  92.425 116.802  0.00  0.00    -0.241 OA
ENDBRANCH   3  22
TORSDOF 7
ENDMDL
MODEL 8
REMARK VINA RESULT:      -4.8      1.803      2.612
REMARK  7 active torsions:
REMARK  status: ('A' for Active; 'I' for Inactive)
REMARK    1  A    between atoms: C_2  and  C_3 
REMARK    2  A    between atoms: C_3  and  O_6 
REMARK    3  A    between atoms: C_3  and  C_4 
REMARK    4  A    between atoms: C_7  and  O_6 
REMARK    5  A    between atoms: C_9  and  C_10 
REMARK    6  A    between atoms: N_15  and  C_14 
REMARK    7  A    between atoms: N_20  and  C_19 
REMARK       I    between atoms: C_22  and  N_20 
ROOT
ATOM      1  C   LIG d   1      -8.028  79.361 120.279  0.00  0.00     0.161 C 
ATOM      2  C   LIG d   1      -7.708  78.218 119.528  0.00  0.00     0.016 C 
ATOM      3  C   LIG d   1      -8.176  77.995 118.213  0.00  0.00     0.038 C 
ATOM      4  C   LIG d   1      -8.878  78.977 117.499  0.00  0.00     0.028 C 
ATOM      5  C   LIG d   1      -9.654  79.938 118.394  0.00  0.00    -0.047 C 
ATOM      6  C   LIG d   1      -8.702  80.494 119.477  0.00  0.00     0.091 C 
ENDROOT
BRANCH   1   7
ATOM      7  O   LIG d   1      -6.850  79.852 120.948  0.00  0.00    -0.368 OA
BRANCH   7   8
ATOM      8  C   LIG d   1      -5.595  79.664 120.249  0.00  0.00     0.119 C 
BRANCH   8   9
ATOM      9  C   LIG d   1      -4.481  79.585 121.311  0.00  0.00     0.028 C 
ATOM     10  C   LIG d   1      -3.712  80.909 121.454  0.00  0.00     0.006 C 
ENDBRANCH   8   9
BRANCH   8  11
ATOM     11  C   LIG d   1      -5.249  80.882 119.388  0.00  0.00     0.028 C 
ATOM     12  C   LIG d   1      -5.034  80.524 117.909  0.00  0.00     0.006 C 
ENDBRANCH   8  11
ENDBRANCH   7   8
ENDBRANCH   1   7
BRANCH   6  13
ATOM     13  N   LIG d   1      -9.401  81.377 120.447  0.00  0.00    -0.311 N 
ATOM     14  C   LIG d   1      -9.170  82.685 120.545  0.00  0.00     0.210 C 
ATOM     15  C   LIG d   1      -9.984  83.406 121.624  0.00  0.00     0.109 C 
ATOM     16  O   LIG d   1      -8.393  83.323 119.819  0.00  0.00    -0.276 OA
ATOM     17  H   LIG d   1     -10.071  80.948 121.054  0.00  0.00     0.149 HD
ENDBRANCH   6  13
BRANCH   5  18
ATOM     18  N   LIG d   1     -10.225  80.989 117.531  0.00  0.00     0.381 N 
ATOM     19  H   LIG d   1      -9.551  81.268 116.846  0.00  0.00    -0.090 HD
ATOM     20  H   LIG d   1     -10.449  81.788 118.097  0.00  0.00    -0.090 HD
ATOM     21  H   LIG d   1     -11.046  80.651 117.080  0.00  0.00    -0.090 HD
ENDBRANCH   5  18
BRANCH   3  22
ATOM     22  C   LIG d   1      -7.976  76.761 117.612  0.00  0.00     0.382 C 
ATOM     23  O   LIG d   1      -8.961  76.064 117.268  0.00  0.00    -0.241 OA
ATOM     24  O   LIG d   1      -6.824  76.316 117.451  0.00  0.00    -0.241 OA
ENDBRANCH   3  22
TORSDOF 7
ENDMDL
MODEL 9
REMARK VINA RESULT:      -4.8      1.388      2.152
REMARK  7 active torsions:
REMARK  status: ('A' for Active; 'I' for Inactive)
REMARK    1  A    between atoms: C_2  and  C_3 
REMARK    2  A    between atoms: C_3  and  O_6 
REMARK    3  A    between atoms: C_3  and  C_4 
REMARK    4  A    between atoms: C_7  and  O_6 
REMARK    5  A    between atoms: C_9  and  C_10 
REMARK    6  A    between atoms: N_15  and  C_14 
REMARK    7  A    between atoms: N_20  and  C_19 
REMARK       I    between atoms: C_22  and  N_20 
ROOT
ATOM      1  C   LIG d   1      -6.405  78.737 117.747  0.00  0.00     0.161 C 
ATOM      2  C   LIG d   1      -6.900  77.488 117.337  0.00  0.00     0.016 C 
ATOM      3  C   LIG d   1      -8.268  77.137 117.391  0.00  0.00     0.038 C 
ATOM      4  C   LIG d   1      -9.261  78.072 117.721  0.00  0.00     0.028 C 
ATOM      5  C   LIG d   1      -8.761  79.193 118.625  0.00  0.00    -0.047 C 
ATOM      6  C   LIG d   1      -7.486  79.808 118.005  0.00  0.00     0.091 C 
ENDROOT
BRANCH   1   7
ATOM      7  O   LIG d   1      -5.440  79.218 116.791  0.00  0.00    -0.368 OA
BRANCH   7   8
ATOM      8  C   LIG d   1      -4.057  78.873 117.052  0.00  0.00     0.119 C 
BRANCH   8   9
ATOM      9  C   LIG d   1      -3.302  80.183 117.350  0.00  0.00     0.028 C 
ATOM     10  C   LIG d   1      -2.956  80.335 118.841  0.00  0.00     0.006 C 
ENDBRANCH   8   9
BRANCH   8  11
ATOM     11  C   LIG d   1      -3.384  78.291 115.805  0.00  0.00     0.028 C 
ATOM     12  C   LIG d   1      -1.921  77.889 116.051  0.00  0.00     0.006 C 
ENDBRANCH   8  11
ENDBRANCH   7   8
ENDBRANCH   1   7
BRANCH   6  13
ATOM     13  N   LIG d   1      -6.883  80.856 118.869  0.00  0.00    -0.311 N 
ATOM     14  C   LIG d   1      -6.426  80.620 120.097  0.00  0.00     0.210 C 
ATOM     15  C   LIG d   1      -5.863  81.845 120.824  0.00  0.00     0.109 C 
ATOM     16  O   LIG d   1      -6.404  79.506 120.642  0.00  0.00    -0.276 OA
ATOM     17  H   LIG d   1      -6.832  81.783 118.494  0.00  0.00     0.149 HD
ENDBRANCH   6  13
BRANCH   5  18
ATOM     18  N   LIG d   1      -9.858  80.167 118.776  0.00  0.00     0.381 N 
ATOM     19  H   LIG d   1      -9.533  81.083 118.536  0.00  0.00    -0.090 HD
ATOM     20  H   LIG d   1     -10.153  80.179 119.736  0.00  0.00    -0.090 HD
ATOM     21  H   LIG d   1     -10.622  79.914 118.189  0.00  0.00    -0.090 HD
ENDBRANCH   5  18
BRANCH   3  22
ATOM     22  C   LIG d   1      -8.652  75.826 117.153  0.00  0.00     0.382 C 
ATOM     23  O   LIG d   1      -7.781  74.932 117.021  0.00  0.00    -0.241 OA
ATOM     24  O   LIG d   1      -9.856  75.534 117.023  0.00  0.00    -0.241 OA
ENDBRANCH   3  22
TORSDOF 7
ENDMDL
