MODEL 1
REMARK VINA RESULT:      -5.3      0.000      0.000
REMARK  7 active torsions:
REMARK  status: ('A' for Active; 'I' for Inactive)
REMARK    1  A    between atoms: C_2  and  C_3 
REMARK    2  A    between atoms: C_3  and  O_6 
REMARK    3  A    between atoms: C_3  and  C_4 
REMARK    4  A    between atoms: C_7  and  O_6 
REMARK    5  A    between atoms: C_9  and  C_10 
REMARK    6  A    between atoms: N_15  and  C_14 
REMARK    7  A    between atoms: N_20  and  C_19 
REMARK       I    between atoms: C_22  and  N_20 
ROOT
ATOM      1  C   LIG d   1      -8.430  76.181 117.191  0.00  0.00     0.161 C 
ATOM      2  C   LIG d   1      -8.811  74.842 117.003  0.00  0.00     0.016 C 
ATOM      3  C   LIG d   1      -7.899  73.812 116.677  0.00  0.00     0.038 C 
ATOM      4  C   LIG d   1      -6.513  74.026 116.665  0.00  0.00     0.028 C 
ATOM      5  C   LIG d   1      -6.125  75.467 116.352  0.00  0.00    -0.047 C 
ATOM      6  C   LIG d   1      -6.908  76.412 117.291  0.00  0.00     0.091 C 
ENDROOT
BRANCH   1   7
ATOM      7  O   LIG d   1      -9.096  76.721 118.350  0.00  0.00    -0.368 OA
BRANCH   7   8
ATOM      8  C   LIG d   1     -10.163  77.666 118.089  0.00  0.00     0.119 C 
BRANCH   8   9
ATOM      9  C   LIG d   1     -10.000  78.833 119.082  0.00  0.00     0.028 C 
ATOM     10  C   LIG d   1      -9.863  80.191 118.374  0.00  0.00     0.006 C 
ENDBRANCH   8   9
BRANCH   8  11
ATOM     11  C   LIG d   1     -11.534  77.058 118.399  0.00  0.00     0.028 C 
ATOM     12  C   LIG d   1     -11.831  76.995 119.906  0.00  0.00     0.006 C 
ENDBRANCH   8  11
ENDBRANCH   7   8
ENDBRANCH   1   7
BRANCH   6  13
ATOM     13  N   LIG d   1      -6.650  77.846 116.995  0.00  0.00    -0.311 N 
ATOM     14  C   LIG d   1      -6.355  78.746 117.931  0.00  0.00     0.210 C 
ATOM     15  C   LIG d   1      -6.147  80.173 117.414  0.00  0.00     0.109 C 
ATOM     16  O   LIG d   1      -6.215  78.492 119.137  0.00  0.00    -0.276 OA
ATOM     17  H   LIG d   1      -6.713  78.132 116.038  0.00  0.00     0.149 HD
ENDBRANCH   6  13
BRANCH   5  18
ATOM     18  N   LIG d   1      -4.662  75.578 116.507  0.00  0.00     0.381 N 
ATOM     19  H   LIG d   1      -4.238  74.681 116.377  0.00  0.00    -0.090 HD
ATOM     20  H   LIG d   1      -4.458  75.891 117.440  0.00  0.00    -0.090 HD
ATOM     21  H   LIG d   1      -4.297  76.226 115.844  0.00  0.00    -0.090 HD
ENDBRANCH   5  18
BRANCH   3  22
ATOM     22  C   LIG d   1      -8.376  72.560 116.319  0.00  0.00     0.382 C 
ATOM     23  O   LIG d   1      -7.571  71.637 116.047  0.00  0.00    -0.241 OA
ATOM     24  O   LIG d   1      -9.601  72.354 116.223  0.00  0.00    -0.241 OA
ENDBRANCH   3  22
TORSDOF 7
ENDMDL
MODEL 2
REMARK VINA RESULT:      -5.2      2.652      4.378
REMARK  7 active torsions:
REMARK  status: ('A' for Active; 'I' for Inactive)
REMARK    1  A    between atoms: C_2  and  C_3 
REMARK    2  A    between atoms: C_3  and  O_6 
REMARK    3  A    between atoms: C_3  and  C_4 
REMARK    4  A    between atoms: C_7  and  O_6 
REMARK    5  A    between atoms: C_9  and  C_10 
REMARK    6  A    between atoms: N_15  and  C_14 
REMARK    7  A    between atoms: N_20  and  C_19 
REMARK       I    between atoms: C_22  and  N_20 
ROOT
ATOM      1  C   LIG d   1      -6.044  76.399 116.668  0.00  0.00     0.161 C 
ATOM      2  C   LIG d   1      -4.919  75.581 116.472  0.00  0.00     0.016 C 
ATOM      3  C   LIG d   1      -3.612  75.950 116.864  0.00  0.00     0.038 C 
ATOM      4  C   LIG d   1      -3.362  77.105 117.621  0.00  0.00     0.028 C 
ATOM      5  C   LIG d   1      -4.394  78.206 117.402  0.00  0.00    -0.047 C 
ATOM      6  C   LIG d   1      -5.809  77.613 117.591  0.00  0.00     0.091 C 
ENDROOT
BRANCH   1   7
ATOM      7  O   LIG d   1      -7.146  75.607 117.154  0.00  0.00    -0.368 OA
BRANCH   7   8
ATOM      8  C   LIG d   1      -7.939  74.932 116.147  0.00  0.00     0.119 C 
BRANCH   8   9
ATOM      9  C   LIG d   1      -9.419  75.258 116.428  0.00  0.00     0.028 C 
ATOM     10  C   LIG d   1      -9.591  76.235 117.604  0.00  0.00     0.006 C 
ENDBRANCH   8   9
BRANCH   8  11
ATOM     11  C   LIG d   1      -7.827  73.410 116.276  0.00  0.00     0.028 C 
ATOM     12  C   LIG d   1      -9.192  72.726 116.454  0.00  0.00     0.006 C 
ENDBRANCH   8  11
ENDBRANCH   7   8
ENDBRANCH   1   7
BRANCH   6  13
ATOM     13  N   LIG d   1      -6.881  78.605 117.312  0.00  0.00    -0.311 N 
ATOM     14  C   LIG d   1      -7.457  79.345 118.257  0.00  0.00     0.210 C 
ATOM     15  C   LIG d   1      -8.554  80.291 117.757  0.00  0.00     0.109 C 
ATOM     16  O   LIG d   1      -7.142  79.333 119.456  0.00  0.00    -0.276 OA
ATOM     17  H   LIG d   1      -7.176  78.702 116.360  0.00  0.00     0.149 HD
ENDBRANCH   6  13
BRANCH   5  18
ATOM     18  N   LIG d   1      -4.092  79.294 118.351  0.00  0.00     0.381 N 
ATOM     19  H   LIG d   1      -4.925  79.810 118.552  0.00  0.00    -0.090 HD
ATOM     20  H   LIG d   1      -3.428  79.919 117.929  0.00  0.00    -0.090 HD
ATOM     21  H   LIG d   1      -3.715  78.918 119.193  0.00  0.00    -0.090 HD
ENDBRANCH   5  18
BRANCH   3  22
ATOM     22  C   LIG d   1      -2.531  75.178 116.465  0.00  0.00     0.382 C 
ATOM     23  O   LIG d   1      -2.462  73.973 116.805  0.00  0.00    -0.241 OA
ATOM     24  O   LIG d   1      -1.603  75.684 115.806  0.00  0.00    -0.241 OA
ENDBRANCH   3  22
TORSDOF 7
ENDMDL
MODEL 3
REMARK VINA RESULT:      -5.2      2.158      4.583
REMARK  7 active torsions:
REMARK  status: ('A' for Active; 'I' for Inactive)
REMARK    1  A    between atoms: C_2  and  C_3 
REMARK    2  A    between atoms: C_3  and  O_6 
REMARK    3  A    between atoms: C_3  and  C_4 
REMARK    4  A    between atoms: C_7  and  O_6 
REMARK    5  A    between atoms: C_9  and  C_10 
REMARK    6  A    between atoms: N_15  and  C_14 
REMARK    7  A    between atoms: N_20  and  C_19 
REMARK       I    between atoms: C_22  and  N_20 
ROOT
ATOM      1  C   LIG d   1      -6.504  75.558 117.275  0.00  0.00     0.161 C 
ATOM      2  C   LIG d   1      -6.848  74.291 116.777  0.00  0.00     0.016 C 
ATOM      3  C   LIG d   1      -8.181  73.828 116.682  0.00  0.00     0.038 C 
ATOM      4  C   LIG d   1      -9.276  74.665 116.940  0.00  0.00     0.028 C 
ATOM      5  C   LIG d   1      -8.964  75.785 117.927  0.00  0.00    -0.047 C 
ATOM      6  C   LIG d   1      -7.691  76.526 117.457  0.00  0.00     0.091 C 
ENDROOT
BRANCH   1   7
ATOM      7  O   LIG d   1      -5.495  76.155 116.436  0.00  0.00    -0.368 OA
BRANCH   7   8
ATOM      8  C   LIG d   1      -4.152  76.189 116.980  0.00  0.00     0.119 C 
BRANCH   8   9
ATOM      9  C   LIG d   1      -3.658  77.646 116.902  0.00  0.00     0.028 C 
ATOM     10  C   LIG d   1      -3.198  78.183 118.268  0.00  0.00     0.006 C 
ENDBRANCH   8   9
BRANCH   8  11
ATOM     11  C   LIG d   1      -3.180  75.384 116.113  0.00  0.00     0.028 C 
ATOM     12  C   LIG d   1      -2.173  74.572 116.943  0.00  0.00     0.006 C 
ENDBRANCH   8  11
ENDBRANCH   7   8
ENDBRANCH   1   7
BRANCH   6  13
ATOM     13  N   LIG d   1      -7.267  77.584 118.411  0.00  0.00    -0.311 N 
ATOM     14  C   LIG d   1      -6.932  78.818 118.036  0.00  0.00     0.210 C 
ATOM     15  C   LIG d   1      -6.506  79.746 119.177  0.00  0.00     0.109 C 
ATOM     16  O   LIG d   1      -6.979  79.240 116.871  0.00  0.00    -0.276 OA
ATOM     17  H   LIG d   1      -7.231  77.336 119.381  0.00  0.00     0.149 HD
ENDBRANCH   6  13
BRANCH   5  18
ATOM     18  N   LIG d   1     -10.149  76.660 117.998  0.00  0.00     0.381 N 
ATOM     19  H   LIG d   1     -10.774  76.327 118.706  0.00  0.00    -0.090 HD
ATOM     20  H   LIG d   1     -10.629  76.630 117.115  0.00  0.00    -0.090 HD
ATOM     21  H   LIG d   1      -9.872  77.595 118.202  0.00  0.00    -0.090 HD
ENDBRANCH   5  18
BRANCH   3  22
ATOM     22  C   LIG d   1      -8.426  72.501 116.364  0.00  0.00     0.382 C 
ATOM     23  O   LIG d   1      -9.571  72.016 116.535  0.00  0.00    -0.241 OA
ATOM     24  O   LIG d   1      -7.507  71.770 115.949  0.00  0.00    -0.241 OA
ENDBRANCH   3  22
TORSDOF 7
ENDMDL
MODEL 4
REMARK VINA RESULT:      -5.0     15.322     18.183
REMARK  7 active torsions:
REMARK  status: ('A' for Active; 'I' for Inactive)
REMARK    1  A    between atoms: C_2  and  C_3 
REMARK    2  A    between atoms: C_3  and  O_6 
REMARK    3  A    between atoms: C_3  and  C_4 
REMARK    4  A    between atoms: C_7  and  O_6 
REMARK    5  A    between atoms: C_9  and  C_10 
REMARK    6  A    between atoms: N_15  and  C_14 
REMARK    7  A    between atoms: N_20  and  C_19 
REMARK       I    between atoms: C_22  and  N_20 
ROOT
ATOM      1  C   LIG d   1      -6.473  93.086 119.563  0.00  0.00     0.161 C 
ATOM      2  C   LIG d   1      -7.733  93.662 119.329  0.00  0.00     0.016 C 
ATOM      3  C   LIG d   1      -7.930  95.047 119.126  0.00  0.00     0.038 C 
ATOM      4  C   LIG d   1      -6.854  95.938 118.992  0.00  0.00     0.028 C 
ATOM      5  C   LIG d   1      -5.596  95.481 119.723  0.00  0.00    -0.047 C 
ATOM      6  C   LIG d   1      -5.275  94.026 119.310  0.00  0.00     0.091 C 
ENDROOT
BRANCH   1   7
ATOM      7  O   LIG d   1      -6.335  91.880 118.787  0.00  0.00    -0.368 OA
BRANCH   7   8
ATOM      8  C   LIG d   1      -5.748  92.032 117.471  0.00  0.00     0.119 C 
BRANCH   8   9
ATOM      9  C   LIG d   1      -6.902  92.058 116.449  0.00  0.00     0.028 C 
ATOM     10  C   LIG d   1      -7.595  90.692 116.312  0.00  0.00     0.006 C 
ENDBRANCH   8   9
BRANCH   8  11
ATOM     11  C   LIG d   1      -4.900  90.813 117.094  0.00  0.00     0.028 C 
ATOM     12  C   LIG d   1      -4.318  90.091 118.320  0.00  0.00     0.006 C 
ENDBRANCH   8  11
ENDBRANCH   7   8
ENDBRANCH   1   7
BRANCH   6  13
ATOM     13  N   LIG d   1      -4.107  93.473 120.044  0.00  0.00    -0.311 N 
ATOM     14  C   LIG d   1      -2.929  93.233 119.471  0.00  0.00     0.210 C 
ATOM     15  C   LIG d   1      -1.865  92.643 120.403  0.00  0.00     0.109 C 
ATOM     16  O   LIG d   1      -2.654  93.482 118.288  0.00  0.00    -0.276 OA
ATOM     17  H   LIG d   1      -4.233  93.271 121.016  0.00  0.00     0.149 HD
ENDBRANCH   6  13
BRANCH   5  18
ATOM     18  N   LIG d   1      -4.516  96.429 119.387  0.00  0.00     0.381 N 
ATOM     19  H   LIG d   1      -4.868  97.365 119.411  0.00  0.00    -0.090 HD
ATOM     20  H   LIG d   1      -4.193  96.236 118.455  0.00  0.00    -0.090 HD
ATOM     21  H   LIG d   1      -3.765  96.332 120.034  0.00  0.00    -0.090 HD
ENDBRANCH   5  18
BRANCH   3  22
ATOM     22  C   LIG d   1      -9.217  95.561 119.094  0.00  0.00     0.382 C 
ATOM     23  O   LIG d   1      -9.400  96.781 118.867  0.00  0.00    -0.241 OA
ATOM     24  O   LIG d   1     -10.196  94.828 119.334  0.00  0.00    -0.241 OA
ENDBRANCH   3  22
TORSDOF 7
ENDMDL
MODEL 5
REMARK VINA RESULT:      -5.0      2.601      5.778
REMARK  7 active torsions:
REMARK  status: ('A' for Active; 'I' for Inactive)
REMARK    1  A    between atoms: C_2  and  C_3 
REMARK    2  A    between atoms: C_3  and  O_6 
REMARK    3  A    between atoms: C_3  and  C_4 
REMARK    4  A    between atoms: C_7  and  O_6 
REMARK    5  A    between atoms: C_9  and  C_10 
REMARK    6  A    between atoms: N_15  and  C_14 
REMARK    7  A    between atoms: N_20  and  C_19 
REMARK       I    between atoms: C_22  and  N_20 
ROOT
ATOM      1  C   LIG d   1      -7.588  78.804 117.922  0.00  0.00     0.161 C 
ATOM      2  C   LIG d   1      -8.561  79.817 117.960  0.00  0.00     0.016 C 
ATOM      3  C   LIG d   1      -8.265  81.187 117.774  0.00  0.00     0.038 C 
ATOM      4  C   LIG d   1      -6.990  81.625 117.385  0.00  0.00     0.028 C 
ATOM      5  C   LIG d   1      -5.868  80.692 117.830  0.00  0.00    -0.047 C 
ATOM      6  C   LIG d   1      -6.210  79.250 117.390  0.00  0.00     0.091 C 
ENDROOT
BRANCH   1   7
ATOM      7  O   LIG d   1      -8.080  77.683 117.163  0.00  0.00    -0.368 OA
BRANCH   7   8
ATOM      8  C   LIG d   1      -8.665  76.601 117.929  0.00  0.00     0.119 C 
BRANCH   8   9
ATOM      9  C   LIG d   1      -8.003  75.291 117.460  0.00  0.00     0.028 C 
ATOM     10  C   LIG d   1      -9.029  74.263 116.954  0.00  0.00     0.006 C 
ENDBRANCH   8   9
BRANCH   8  11
ATOM     11  C   LIG d   1     -10.155  76.438 117.615  0.00  0.00     0.028 C 
ATOM     12  C   LIG d   1     -11.058  77.197 118.599  0.00  0.00     0.006 C 
ENDBRANCH   8  11
ENDBRANCH   7   8
ENDBRANCH   1   7
BRANCH   6  13
ATOM     13  N   LIG d   1      -5.205  78.261 117.858  0.00  0.00    -0.311 N 
ATOM     14  C   LIG d   1      -4.190  77.835 117.108  0.00  0.00     0.210 C 
ATOM     15  C   LIG d   1      -3.282  76.799 117.777  0.00  0.00     0.109 C 
ATOM     16  O   LIG d   1      -3.937  78.241 115.964  0.00  0.00    -0.276 OA
ATOM     17  H   LIG d   1      -5.316  77.903 118.787  0.00  0.00     0.149 HD
ENDBRANCH   6  13
BRANCH   5  18
ATOM     18  N   LIG d   1      -4.612  81.194 117.241  0.00  0.00     0.381 N 
ATOM     19  H   LIG d   1      -4.292  81.990 117.755  0.00  0.00    -0.090 HD
ATOM     20  H   LIG d   1      -4.788  81.479 116.294  0.00  0.00    -0.090 HD
ATOM     21  H   LIG d   1      -3.918  80.479 117.257  0.00  0.00    -0.090 HD
ENDBRANCH   5  18
BRANCH   3  22
ATOM     22  C   LIG d   1      -9.242  82.140 118.016  0.00  0.00     0.382 C 
ATOM     23  O   LIG d   1     -10.348  82.068 117.428  0.00  0.00    -0.241 OA
ATOM     24  O   LIG d   1      -9.017  83.096 118.782  0.00  0.00    -0.241 OA
ENDBRANCH   3  22
TORSDOF 7
ENDMDL
MODEL 6
REMARK VINA RESULT:      -4.7     17.739     20.688
REMARK  7 active torsions:
REMARK  status: ('A' for Active; 'I' for Inactive)
REMARK    1  A    between atoms: C_2  and  C_3 
REMARK    2  A    between atoms: C_3  and  O_6 
REMARK    3  A    between atoms: C_3  and  C_4 
REMARK    4  A    between atoms: C_7  and  O_6 
REMARK    5  A    between atoms: C_9  and  C_10 
REMARK    6  A    between atoms: N_15  and  C_14 
REMARK    7  A    between atoms: N_20  and  C_19 
REMARK       I    between atoms: C_22  and  N_20 
ROOT
ATOM      1  C   LIG d   1       1.954  59.656 118.791  0.00  0.00     0.161 C 
ATOM      2  C   LIG d   1       3.208  60.114 118.354  0.00  0.00     0.016 C 
ATOM      3  C   LIG d   1       4.166  60.698 119.215  0.00  0.00     0.038 C 
ATOM      4  C   LIG d   1       3.993  60.726 120.607  0.00  0.00     0.028 C 
ATOM      5  C   LIG d   1       2.529  60.734 121.035  0.00  0.00    -0.047 C 
ATOM      6  C   LIG d   1       1.791  59.577 120.323  0.00  0.00     0.091 C 
ENDROOT
BRANCH   1   7
ATOM      7  O   LIG d   1       1.663  58.379 118.190  0.00  0.00    -0.368 OA
BRANCH   7   8
ATOM      8  C   LIG d   1       2.195  57.217 118.873  0.00  0.00     0.119 C 
BRANCH   8   9
ATOM      9  C   LIG d   1       3.347  56.661 118.014  0.00  0.00     0.028 C 
ATOM     10  C   LIG d   1       4.687  56.647 118.768  0.00  0.00     0.006 C 
ENDBRANCH   8   9
BRANCH   8  11
ATOM     11  C   LIG d   1       1.160  56.090 118.943  0.00  0.00     0.028 C 
ATOM     12  C   LIG d   1       1.228  55.143 117.734  0.00  0.00     0.006 C 
ENDBRANCH   8  11
ENDBRANCH   7   8
ENDBRANCH   1   7
BRANCH   6  13
ATOM     13  N   LIG d   1       0.336  59.565 120.622  0.00  0.00    -0.311 N 
ATOM     14  C   LIG d   1      -0.477  60.586 120.352  0.00  0.00     0.210 C 
ATOM     15  C   LIG d   1      -1.938  60.374 120.759  0.00  0.00     0.109 C 
ATOM     16  O   LIG d   1      -0.131  61.634 119.786  0.00  0.00    -0.276 OA
ATOM     17  H   LIG d   1      -0.035  58.741 121.053  0.00  0.00     0.149 HD
ENDBRANCH   6  13
BRANCH   5  18
ATOM     18  N   LIG d   1       2.495  60.625 122.505  0.00  0.00     0.381 N 
ATOM     19  H   LIG d   1       1.605  60.274 122.798  0.00  0.00    -0.090 HD
ATOM     20  H   LIG d   1       2.619  61.539 122.903  0.00  0.00    -0.090 HD
ATOM     21  H   LIG d   1       3.219  60.017 122.819  0.00  0.00    -0.090 HD
ENDBRANCH   5  18
BRANCH   3  22
ATOM     22  C   LIG d   1       5.296  61.297 118.679  0.00  0.00     0.382 C 
ATOM     23  O   LIG d   1       5.188  62.075 117.701  0.00  0.00    -0.241 OA
ATOM     24  O   LIG d   1       6.425  61.036 119.134  0.00  0.00    -0.241 OA
ENDBRANCH   3  22
TORSDOF 7
ENDMDL
MODEL 7
REMARK VINA RESULT:      -4.6      8.448     11.535
REMARK  7 active torsions:
REMARK  status: ('A' for Active; 'I' for Inactive)
REMARK    1  A    between atoms: C_2  and  C_3 
REMARK    2  A    between atoms: C_3  and  O_6 
REMARK    3  A    between atoms: C_3  and  C_4 
REMARK    4  A    between atoms: C_7  and  O_6 
REMARK    5  A    between atoms: C_9  and  C_10 
REMARK    6  A    between atoms: N_15  and  C_14 
REMARK    7  A    between atoms: N_20  and  C_19 
REMARK       I    between atoms: C_22  and  N_20 
ROOT
ATOM      1  C   LIG d   1     -18.475  75.201 120.188  0.00  0.00     0.161 C 
ATOM      2  C   LIG d   1     -19.845  75.377 119.930  0.00  0.00     0.016 C 
ATOM      3  C   LIG d   1     -20.497  76.629 120.010  0.00  0.00     0.038 C 
ATOM      4  C   LIG d   1     -19.788  77.823 120.209  0.00  0.00     0.028 C 
ATOM      5  C   LIG d   1     -18.483  77.632 120.974  0.00  0.00    -0.047 C 
ATOM      6  C   LIG d   1     -17.664  76.509 120.297  0.00  0.00     0.091 C 
ENDROOT
BRANCH   1   7
ATOM      7  O   LIG d   1     -17.897  74.335 119.191  0.00  0.00    -0.368 OA
BRANCH   7   8
ATOM      8  C   LIG d   1     -17.774  72.938 119.555  0.00  0.00     0.119 C 
BRANCH   8   9
ATOM      9  C   LIG d   1     -17.446  72.878 121.059  0.00  0.00     0.028 C 
ATOM     10  C   LIG d   1     -16.033  72.335 121.331  0.00  0.00     0.006 C 
ENDBRANCH   8   9
BRANCH   8  11
ATOM     11  C   LIG d   1     -16.580  72.283 118.853  0.00  0.00     0.028 C 
ATOM     12  C   LIG d   1     -16.258  72.930 117.497  0.00  0.00     0.006 C 
ENDBRANCH   8  11
ENDBRANCH   7   8
ENDBRANCH   1   7
BRANCH   6  13
ATOM     13  N   LIG d   1     -16.410  76.200 121.032  0.00  0.00    -0.311 N 
ATOM     14  C   LIG d   1     -15.256  75.920 120.428  0.00  0.00     0.210 C 
ATOM     15  C   LIG d   1     -14.090  75.612 121.373  0.00  0.00     0.109 C 
ATOM     16  O   LIG d   1     -15.080  75.930 119.201  0.00  0.00    -0.276 OA
ATOM     17  H   LIG d   1     -16.455  76.201 122.033  0.00  0.00     0.149 HD
ENDBRANCH   6  13
BRANCH   5  18
ATOM     18  N   LIG d   1     -17.781  78.930 120.989  0.00  0.00     0.381 N 
ATOM     19  H   LIG d   1     -18.429  79.663 121.199  0.00  0.00    -0.090 HD
ATOM     20  H   LIG d   1     -17.396  79.102 120.077  0.00  0.00    -0.090 HD
ATOM     21  H   LIG d   1     -17.053  78.916 121.668  0.00  0.00    -0.090 HD
ENDBRANCH   5  18
BRANCH   3  22
ATOM     22  C   LIG d   1     -21.880  76.689 119.931  0.00  0.00     0.382 C 
ATOM     23  O   LIG d   1     -22.468  77.791 120.055  0.00  0.00    -0.241 OA
ATOM     24  O   LIG d   1     -22.550  75.650 119.781  0.00  0.00    -0.241 OA
ENDBRANCH   3  22
TORSDOF 7
ENDMDL
MODEL 8
REMARK VINA RESULT:      -4.4      2.498      4.172
REMARK  7 active torsions:
REMARK  status: ('A' for Active; 'I' for Inactive)
REMARK    1  A    between atoms: C_2  and  C_3 
REMARK    2  A    between atoms: C_3  and  O_6 
REMARK    3  A    between atoms: C_3  and  C_4 
REMARK    4  A    between atoms: C_7  and  O_6 
REMARK    5  A    between atoms: C_9  and  C_10 
REMARK    6  A    between atoms: N_15  and  C_14 
REMARK    7  A    between atoms: N_20  and  C_19 
REMARK       I    between atoms: C_22  and  N_20 
ROOT
ATOM      1  C   LIG d   1      -8.265  79.876 118.104  0.00  0.00     0.161 C 
ATOM      2  C   LIG d   1      -9.194  78.823 118.153  0.00  0.00     0.016 C 
ATOM      3  C   LIG d   1      -8.869  77.482 117.845  0.00  0.00     0.038 C 
ATOM      4  C   LIG d   1      -7.547  77.076 117.611  0.00  0.00     0.028 C 
ATOM      5  C   LIG d   1      -6.661  78.186 117.056  0.00  0.00    -0.047 C 
ATOM      6  C   LIG d   1      -6.794  79.433 117.959  0.00  0.00     0.091 C 
ENDROOT
BRANCH   1   7
ATOM      7  O   LIG d   1      -8.422  80.721 119.261  0.00  0.00    -0.368 OA
BRANCH   7   8
ATOM      8  C   LIG d   1      -9.288  81.871 119.098  0.00  0.00     0.119 C 
BRANCH   8   9
ATOM      9  C   LIG d   1      -9.339  82.202 117.594  0.00  0.00     0.028 C 
ATOM     10  C   LIG d   1     -10.765  82.123 117.023  0.00  0.00     0.006 C 
ENDBRANCH   8   9
BRANCH   8  11
ATOM     11  C   LIG d   1      -8.696  83.114 119.767  0.00  0.00     0.028 C 
ATOM     12  C   LIG d   1      -7.166  83.048 119.899  0.00  0.00     0.006 C 
ENDBRANCH   8  11
ENDBRANCH   7   8
ENDBRANCH   1   7
BRANCH   6  13
ATOM     13  N   LIG d   1      -6.024  80.594 117.440  0.00  0.00    -0.311 N 
ATOM     14  C   LIG d   1      -4.790  80.892 117.840  0.00  0.00     0.210 C 
ATOM     15  C   LIG d   1      -4.185  82.143 117.193  0.00  0.00     0.109 C 
ATOM     16  O   LIG d   1      -4.125  80.222 118.645  0.00  0.00    -0.276 OA
ATOM     17  H   LIG d   1      -6.476  81.173 116.760  0.00  0.00     0.149 HD
ENDBRANCH   6  13
BRANCH   5  18
ATOM     18  N   LIG d   1      -5.282  77.665 116.990  0.00  0.00     0.381 N 
ATOM     19  H   LIG d   1      -5.189  77.051 116.205  0.00  0.00    -0.090 HD
ATOM     20  H   LIG d   1      -5.093  77.140 117.825  0.00  0.00    -0.090 HD
ATOM     21  H   LIG d   1      -4.636  78.419 116.909  0.00  0.00    -0.090 HD
ENDBRANCH   5  18
BRANCH   3  22
ATOM     22  C   LIG d   1      -9.878  76.539 117.729  0.00  0.00     0.382 C 
ATOM     23  O   LIG d   1     -11.075  76.908 117.651  0.00  0.00    -0.241 OA
ATOM     24  O   LIG d   1      -9.611  75.323 117.745  0.00  0.00    -0.241 OA
ENDBRANCH   3  22
TORSDOF 7
ENDMDL
MODEL 9
REMARK VINA RESULT:      -4.3      2.695      5.132
REMARK  7 active torsions:
REMARK  status: ('A' for Active; 'I' for Inactive)
REMARK    1  A    between atoms: C_2  and  C_3 
REMARK    2  A    between atoms: C_3  and  O_6 
REMARK    3  A    between atoms: C_3  and  C_4 
REMARK    4  A    between atoms: C_7  and  O_6 
REMARK    5  A    between atoms: C_9  and  C_10 
REMARK    6  A    between atoms: N_15  and  C_14 
REMARK    7  A    between atoms: N_20  and  C_19 
REMARK       I    between atoms: C_22  and  N_20 
ROOT
ATOM      1  C   LIG d   1      -7.411  79.152 117.961  0.00  0.00     0.161 C 
ATOM      2  C   LIG d   1      -6.960  78.002 117.291  0.00  0.00     0.016 C 
ATOM      3  C   LIG d   1      -7.773  76.869 117.057  0.00  0.00     0.038 C 
ATOM      4  C   LIG d   1      -9.145  76.869 117.347  0.00  0.00     0.028 C 
ATOM      5  C   LIG d   1      -9.526  77.815 118.480  0.00  0.00    -0.047 C 
ATOM      6  C   LIG d   1      -8.936  79.214 118.185  0.00  0.00     0.091 C 
ENDROOT
BRANCH   1   7
ATOM      7  O   LIG d   1      -6.959  80.331 117.266  0.00  0.00    -0.368 OA
BRANCH   7   8
ATOM      8  C   LIG d   1      -5.659  80.841 117.654  0.00  0.00     0.119 C 
BRANCH   8   9
ATOM      9  C   LIG d   1      -5.675  81.031 119.183  0.00  0.00     0.028 C 
ATOM     10  C   LIG d   1      -6.269  82.387 119.600  0.00  0.00     0.006 C 
ENDBRANCH   8   9
BRANCH   8  11
ATOM     11  C   LIG d   1      -5.412  82.237 117.074  0.00  0.00     0.028 C 
ATOM     12  C   LIG d   1      -3.956  82.450 116.633  0.00  0.00     0.006 C 
ENDBRANCH   8  11
ENDBRANCH   7   8
ENDBRANCH   1   7
BRANCH   6  13
ATOM     13  N   LIG d   1      -9.190  80.179 119.286  0.00  0.00    -0.311 N 
ATOM     14  C   LIG d   1      -9.873  81.311 119.125  0.00  0.00     0.210 C 
ATOM     15  C   LIG d   1     -10.002  82.174 120.385  0.00  0.00     0.109 C 
ATOM     16  O   LIG d   1     -10.412  81.668 118.067  0.00  0.00    -0.276 OA
ATOM     17  H   LIG d   1      -8.815  79.954 120.186  0.00  0.00     0.149 HD
ENDBRANCH   6  13
BRANCH   5  18
ATOM     18  N   LIG d   1     -10.997  77.818 118.584  0.00  0.00     0.381 N 
ATOM     19  H   LIG d   1     -11.302  78.648 119.053  0.00  0.00    -0.090 HD
ATOM     20  H   LIG d   1     -11.286  77.024 119.128  0.00  0.00    -0.090 HD
ATOM     21  H   LIG d   1     -11.403  77.774 117.675  0.00  0.00    -0.090 HD
ENDBRANCH   5  18
BRANCH   3  22
ATOM     22  C   LIG d   1      -7.203  75.705 116.564  0.00  0.00     0.382 C 
ATOM     23  O   LIG d   1      -6.206  75.767 115.806  0.00  0.00    -0.241 OA
ATOM     24  O   LIG d   1      -7.702  74.595 116.832  0.00  0.00    -0.241 OA
ENDBRANCH   3  22
TORSDOF 7
ENDMDL
