MODEL 1
REMARK VINA RESULT:      -5.1      0.000      0.000
REMARK  7 active torsions:
REMARK  status: ('A' for Active; 'I' for Inactive)
REMARK    1  A    between atoms: C_2  and  C_3 
REMARK    2  A    between atoms: C_3  and  O_6 
REMARK    3  A    between atoms: C_3  and  C_4 
REMARK    4  A    between atoms: C_7  and  O_6 
REMARK    5  A    between atoms: C_9  and  C_10 
REMARK    6  A    between atoms: N_15  and  C_14 
REMARK    7  A    between atoms: N_20  and  C_19 
REMARK       I    between atoms: C_22  and  N_20 
ROOT
ATOM      1  C   LIG d   1      -5.507  74.186 117.437  0.00  0.00     0.161 C 
ATOM      2  C   LIG d   1      -4.284  73.507 117.315  0.00  0.00     0.016 C 
ATOM      3  C   LIG d   1      -3.045  74.055 117.721  0.00  0.00     0.038 C 
ATOM      4  C   LIG d   1      -2.966  75.269 118.421  0.00  0.00     0.028 C 
ATOM      5  C   LIG d   1      -4.118  76.220 118.116  0.00  0.00    -0.047 C 
ATOM      6  C   LIG d   1      -5.454  75.464 118.299  0.00  0.00     0.091 C 
ENDROOT
BRANCH   1   7
ATOM      7  O   LIG d   1      -6.517  73.287 117.937  0.00  0.00    -0.368 OA
BRANCH   7   8
ATOM      8  C   LIG d   1      -7.379  72.680 116.942  0.00  0.00     0.119 C 
BRANCH   8   9
ATOM      9  C   LIG d   1      -8.825  72.771 117.465  0.00  0.00     0.028 C 
ATOM     10  C   LIG d   1      -9.522  74.075 117.042  0.00  0.00     0.006 C 
ENDBRANCH   8   9
BRANCH   8  11
ATOM     11  C   LIG d   1      -7.093  71.182 116.796  0.00  0.00     0.028 C 
ATOM     12  C   LIG d   1      -8.129  70.305 117.517  0.00  0.00     0.006 C 
ENDBRANCH   8  11
ENDBRANCH   7   8
ENDBRANCH   1   7
BRANCH   6  13
ATOM     13  N   LIG d   1      -6.631  76.298 117.940  0.00  0.00    -0.311 N 
ATOM     14  C   LIG d   1      -7.551  76.687 118.821  0.00  0.00     0.210 C 
ATOM     15  C   LIG d   1      -8.693  77.524 118.237  0.00  0.00     0.109 C 
ATOM     16  O   LIG d   1      -7.513  76.444 120.037  0.00  0.00    -0.276 OA
ATOM     17  H   LIG d   1      -6.723  76.567 116.980  0.00  0.00     0.149 HD
ENDBRANCH   6  13
BRANCH   5  18
ATOM     18  N   LIG d   1      -3.984  77.383 119.013  0.00  0.00     0.381 N 
ATOM     19  H   LIG d   1      -4.197  78.223 118.512  0.00  0.00    -0.090 HD
ATOM     20  H   LIG d   1      -3.034  77.439 119.333  0.00  0.00    -0.090 HD
ATOM     21  H   LIG d   1      -4.600  77.287 119.791  0.00  0.00    -0.090 HD
ENDBRANCH   5  18
BRANCH   3  22
ATOM     22  C   LIG d   1      -1.865  73.406 117.392  0.00  0.00     0.382 C 
ATOM     23  O   LIG d   1      -1.244  73.724 116.350  0.00  0.00    -0.241 OA
ATOM     24  O   LIG d   1      -1.437  72.476 118.101  0.00  0.00    -0.241 OA
ENDBRANCH   3  22
TORSDOF 7
ENDMDL
MODEL 2
REMARK VINA RESULT:      -5.0      2.715      4.280
REMARK  7 active torsions:
REMARK  status: ('A' for Active; 'I' for Inactive)
REMARK    1  A    between atoms: C_2  and  C_3 
REMARK    2  A    between atoms: C_3  and  O_6 
REMARK    3  A    between atoms: C_3  and  C_4 
REMARK    4  A    between atoms: C_7  and  O_6 
REMARK    5  A    between atoms: C_9  and  C_10 
REMARK    6  A    between atoms: N_15  and  C_14 
REMARK    7  A    between atoms: N_20  and  C_19 
REMARK       I    between atoms: C_22  and  N_20 
ROOT
ATOM      1  C   LIG d   1      -8.221  75.064 117.307  0.00  0.00     0.161 C 
ATOM      2  C   LIG d   1      -8.297  73.680 117.082  0.00  0.00     0.016 C 
ATOM      3  C   LIG d   1      -7.162  72.855 116.909  0.00  0.00     0.038 C 
ATOM      4  C   LIG d   1      -5.859  73.339 117.101  0.00  0.00     0.028 C 
ATOM      5  C   LIG d   1      -5.721  74.833 116.831  0.00  0.00    -0.047 C 
ATOM      6  C   LIG d   1      -6.807  75.590 117.630  0.00  0.00     0.091 C 
ENDROOT
BRANCH   1   7
ATOM      7  O   LIG d   1      -9.146  75.442 118.346  0.00  0.00    -0.368 OA
BRANCH   7   8
ATOM      8  C   LIG d   1     -10.477  75.813 117.911  0.00  0.00     0.119 C 
BRANCH   8   9
ATOM      9  C   LIG d   1     -10.944  76.985 118.796  0.00  0.00     0.028 C 
ATOM     10  C   LIG d   1      -9.774  77.863 119.271  0.00  0.00     0.006 C 
ENDBRANCH   8   9
BRANCH   8  11
ATOM     11  C   LIG d   1     -11.481  74.685 118.169  0.00  0.00     0.028 C 
ATOM     12  C   LIG d   1     -12.496  75.031 119.270  0.00  0.00     0.006 C 
ENDBRANCH   8  11
ENDBRANCH   7   8
ENDBRANCH   1   7
BRANCH   6  13
ATOM     13  N   LIG d   1      -6.797  77.051 117.357  0.00  0.00    -0.311 N 
ATOM     14  C   LIG d   1      -6.363  77.957 118.232  0.00  0.00     0.210 C 
ATOM     15  C   LIG d   1      -6.458  79.410 117.758  0.00  0.00     0.109 C 
ATOM     16  O   LIG d   1      -5.878  77.693 119.342  0.00  0.00    -0.276 OA
ATOM     17  H   LIG d   1      -7.144  77.351 116.467  0.00  0.00     0.149 HD
ENDBRANCH   6  13
BRANCH   5  18
ATOM     18  N   LIG d   1      -4.349  75.229 117.202  0.00  0.00     0.381 N 
ATOM     19  H   LIG d   1      -3.707  74.924 116.498  0.00  0.00    -0.090 HD
ATOM     20  H   LIG d   1      -4.105  74.781 118.067  0.00  0.00    -0.090 HD
ATOM     21  H   LIG d   1      -4.296  76.218 117.304  0.00  0.00    -0.090 HD
ENDBRANCH   5  18
BRANCH   3  22
ATOM     22  C   LIG d   1      -7.323  71.540 116.501  0.00  0.00     0.382 C 
ATOM     23  O   LIG d   1      -6.369  70.930 115.961  0.00  0.00    -0.241 OA
ATOM     24  O   LIG d   1      -8.423  70.970 116.625  0.00  0.00    -0.241 OA
ENDBRANCH   3  22
TORSDOF 7
ENDMDL
MODEL 3
REMARK VINA RESULT:      -5.0     15.931     18.490
REMARK  7 active torsions:
REMARK  status: ('A' for Active; 'I' for Inactive)
REMARK    1  A    between atoms: C_2  and  C_3 
REMARK    2  A    between atoms: C_3  and  O_6 
REMARK    3  A    between atoms: C_3  and  C_4 
REMARK    4  A    between atoms: C_7  and  O_6 
REMARK    5  A    between atoms: C_9  and  C_10 
REMARK    6  A    between atoms: N_15  and  C_14 
REMARK    7  A    between atoms: N_20  and  C_19 
REMARK       I    between atoms: C_22  and  N_20 
ROOT
ATOM      1  C   LIG d   1      -4.661  92.031 119.001  0.00  0.00     0.161 C 
ATOM      2  C   LIG d   1      -5.979  92.460 118.772  0.00  0.00     0.016 C 
ATOM      3  C   LIG d   1      -6.743  92.062 117.650  0.00  0.00     0.038 C 
ATOM      4  C   LIG d   1      -6.290  91.081 116.755  0.00  0.00     0.028 C 
ATOM      5  C   LIG d   1      -4.770  90.998 116.667  0.00  0.00    -0.047 C 
ATOM      6  C   LIG d   1      -4.190  90.875 118.094  0.00  0.00     0.091 C 
ENDROOT
BRANCH   1   7
ATOM      7  O   LIG d   1      -4.497  91.678 120.389  0.00  0.00    -0.368 OA
BRANCH   7   8
ATOM      8  C   LIG d   1      -3.517  92.446 121.130  0.00  0.00     0.119 C 
BRANCH   8   9
ATOM      9  C   LIG d   1      -4.220  93.010 122.380  0.00  0.00     0.028 C 
ATOM     10  C   LIG d   1      -5.646  92.459 122.550  0.00  0.00     0.006 C 
ENDBRANCH   8   9
BRANCH   8  11
ATOM     11  C   LIG d   1      -3.054  93.672 120.337  0.00  0.00     0.028 C 
ATOM     12  C   LIG d   1      -3.612  94.989 120.898  0.00  0.00     0.006 C 
ENDBRANCH   8  11
ENDBRANCH   7   8
ENDBRANCH   1   7
BRANCH   6  13
ATOM     13  N   LIG d   1      -2.704  90.872 118.104  0.00  0.00    -0.311 N 
ATOM     14  C   LIG d   1      -1.972  89.763 118.017  0.00  0.00     0.210 C 
ATOM     15  C   LIG d   1      -0.457  89.982 118.067  0.00  0.00     0.109 C 
ATOM     16  O   LIG d   1      -2.434  88.621 117.871  0.00  0.00    -0.276 OA
ATOM     17  H   LIG d   1      -2.247  91.759 118.188  0.00  0.00     0.149 HD
ENDBRANCH   6  13
BRANCH   5  18
ATOM     18  N   LIG d   1      -4.436  89.847 115.806  0.00  0.00     0.381 N 
ATOM     19  H   LIG d   1      -5.172  89.171 115.844  0.00  0.00    -0.090 HD
ATOM     20  H   LIG d   1      -3.595  89.418 116.149  0.00  0.00    -0.090 HD
ATOM     21  H   LIG d   1      -4.303  90.151 114.867  0.00  0.00    -0.090 HD
ENDBRANCH   5  18
BRANCH   3  22
ATOM     22  C   LIG d   1      -7.959  92.676 117.394  0.00  0.00     0.382 C 
ATOM     23  O   LIG d   1      -8.543  93.315 118.303  0.00  0.00    -0.241 OA
ATOM     24  O   LIG d   1      -8.501  92.563 116.278  0.00  0.00    -0.241 OA
ENDBRANCH   3  22
TORSDOF 7
ENDMDL
MODEL 4
REMARK VINA RESULT:      -4.8      2.694      6.285
REMARK  7 active torsions:
REMARK  status: ('A' for Active; 'I' for Inactive)
REMARK    1  A    between atoms: C_2  and  C_3 
REMARK    2  A    between atoms: C_3  and  O_6 
REMARK    3  A    between atoms: C_3  and  C_4 
REMARK    4  A    between atoms: C_7  and  O_6 
REMARK    5  A    between atoms: C_9  and  C_10 
REMARK    6  A    between atoms: N_15  and  C_14 
REMARK    7  A    between atoms: N_20  and  C_19 
REMARK       I    between atoms: C_22  and  N_20 
ROOT
ATOM      1  C   LIG d   1      -7.313  76.059 117.675  0.00  0.00     0.161 C 
ATOM      2  C   LIG d   1      -7.559  77.411 117.964  0.00  0.00     0.016 C 
ATOM      3  C   LIG d   1      -8.854  77.938 118.178  0.00  0.00     0.038 C 
ATOM      4  C   LIG d   1      -9.985  77.112 118.267  0.00  0.00     0.028 C 
ATOM      5  C   LIG d   1      -9.849  75.812 117.482  0.00  0.00    -0.047 C 
ATOM      6  C   LIG d   1      -8.523  75.123 117.878  0.00  0.00     0.091 C 
ENDROOT
BRANCH   1   7
ATOM      7  O   LIG d   1      -6.185  75.593 118.442  0.00  0.00    -0.368 OA
BRANCH   7   8
ATOM      8  C   LIG d   1      -4.878  75.842 117.869  0.00  0.00     0.119 C 
BRANCH   8   9
ATOM      9  C   LIG d   1      -4.712  74.894 116.665  0.00  0.00     0.028 C 
ATOM     10  C   LIG d   1      -4.730  73.413 117.078  0.00  0.00     0.006 C 
ENDBRANCH   8   9
BRANCH   8  11
ATOM     11  C   LIG d   1      -3.760  75.459 118.843  0.00  0.00     0.028 C 
ATOM     12  C   LIG d   1      -4.127  75.735 120.310  0.00  0.00     0.006 C 
ENDBRANCH   8  11
ENDBRANCH   7   8
ENDBRANCH   1   7
BRANCH   6  13
ATOM     13  N   LIG d   1      -8.270  73.885 117.095  0.00  0.00    -0.311 N 
ATOM     14  C   LIG d   1      -8.689  72.679 117.475  0.00  0.00     0.210 C 
ATOM     15  C   LIG d   1      -8.305  71.535 116.532  0.00  0.00     0.109 C 
ATOM     16  O   LIG d   1      -9.369  72.453 118.487  0.00  0.00    -0.276 OA
ATOM     17  H   LIG d   1      -7.752  73.982 116.244  0.00  0.00     0.149 HD
ENDBRANCH   6  13
BRANCH   5  18
ATOM     18  N   LIG d   1     -11.037  74.988 117.774  0.00  0.00     0.381 N 
ATOM     19  H   LIG d   1     -11.834  75.364 117.300  0.00  0.00    -0.090 HD
ATOM     20  H   LIG d   1     -11.216  75.015 118.763  0.00  0.00    -0.090 HD
ATOM     21  H   LIG d   1     -10.881  74.049 117.483  0.00  0.00    -0.090 HD
ENDBRANCH   5  18
BRANCH   3  22
ATOM     22  C   LIG d   1      -9.032  79.310 118.265  0.00  0.00     0.382 C 
ATOM     23  O   LIG d   1     -10.118  79.776 118.688  0.00  0.00    -0.241 OA
ATOM     24  O   LIG d   1      -8.138  80.089 117.884  0.00  0.00    -0.241 OA
ENDBRANCH   3  22
TORSDOF 7
ENDMDL
MODEL 5
REMARK VINA RESULT:      -4.7     15.332     17.889
REMARK  7 active torsions:
REMARK  status: ('A' for Active; 'I' for Inactive)
REMARK    1  A    between atoms: C_2  and  C_3 
REMARK    2  A    between atoms: C_3  and  O_6 
REMARK    3  A    between atoms: C_3  and  C_4 
REMARK    4  A    between atoms: C_7  and  O_6 
REMARK    5  A    between atoms: C_9  and  C_10 
REMARK    6  A    between atoms: N_15  and  C_14 
REMARK    7  A    between atoms: N_20  and  C_19 
REMARK       I    between atoms: C_22  and  N_20 
ROOT
ATOM      1  C   LIG d   1      -3.754  91.210 118.544  0.00  0.00     0.161 C 
ATOM      2  C   LIG d   1      -4.662  90.819 117.545  0.00  0.00     0.016 C 
ATOM      3  C   LIG d   1      -5.964  91.355 117.424  0.00  0.00     0.038 C 
ATOM      4  C   LIG d   1      -6.397  92.435 118.208  0.00  0.00     0.028 C 
ATOM      5  C   LIG d   1      -5.697  92.522 119.560  0.00  0.00    -0.047 C 
ATOM      6  C   LIG d   1      -4.169  92.466 119.338  0.00  0.00     0.091 C 
ENDROOT
BRANCH   1   7
ATOM      7  O   LIG d   1      -2.444  91.390 117.970  0.00  0.00    -0.368 OA
BRANCH   7   8
ATOM      8  C   LIG d   1      -1.429  90.447 118.392  0.00  0.00     0.119 C 
BRANCH   8   9
ATOM      9  C   LIG d   1      -1.122  89.529 117.193  0.00  0.00     0.028 C 
ATOM     10  C   LIG d   1       0.285  89.766 116.618  0.00  0.00     0.006 C 
ENDBRANCH   8   9
BRANCH   8  11
ATOM     11  C   LIG d   1      -1.954  89.517 119.490  0.00  0.00     0.028 C 
ATOM     12  C   LIG d   1      -2.009  88.046 119.049  0.00  0.00     0.006 C 
ENDBRANCH   8  11
ENDBRANCH   7   8
ENDBRANCH   1   7
BRANCH   6  13
ATOM     13  N   LIG d   1      -3.410  92.460 120.617  0.00  0.00    -0.311 N 
ATOM     14  C   LIG d   1      -2.428  93.318 120.891  0.00  0.00     0.210 C 
ATOM     15  C   LIG d   1      -1.765  93.125 122.258  0.00  0.00     0.109 C 
ATOM     16  O   LIG d   1      -2.066  94.240 120.144  0.00  0.00    -0.276 OA
ATOM     17  H   LIG d   1      -3.660  91.765 121.292  0.00  0.00     0.149 HD
ENDBRANCH   6  13
BRANCH   5  18
ATOM     18  N   LIG d   1      -6.142  93.767 120.214  0.00  0.00     0.381 N 
ATOM     19  H   LIG d   1      -6.206  93.627 121.202  0.00  0.00    -0.090 HD
ATOM     20  H   LIG d   1      -7.056  94.006 119.870  0.00  0.00    -0.090 HD
ATOM     21  H   LIG d   1      -5.501  94.504 120.015  0.00  0.00    -0.090 HD
ENDBRANCH   5  18
BRANCH   3  22
ATOM     22  C   LIG d   1      -6.864  90.783 116.538  0.00  0.00     0.382 C 
ATOM     23  O   LIG d   1      -7.964  91.341 116.313  0.00  0.00    -0.241 OA
ATOM     24  O   LIG d   1      -6.607  89.692 115.994  0.00  0.00    -0.241 OA
ENDBRANCH   3  22
TORSDOF 7
ENDMDL
MODEL 6
REMARK VINA RESULT:      -4.7      2.622      5.982
REMARK  7 active torsions:
REMARK  status: ('A' for Active; 'I' for Inactive)
REMARK    1  A    between atoms: C_2  and  C_3 
REMARK    2  A    between atoms: C_3  and  O_6 
REMARK    3  A    between atoms: C_3  and  C_4 
REMARK    4  A    between atoms: C_7  and  O_6 
REMARK    5  A    between atoms: C_9  and  C_10 
REMARK    6  A    between atoms: N_15  and  C_14 
REMARK    7  A    between atoms: N_20  and  C_19 
REMARK       I    between atoms: C_22  and  N_20 
ROOT
ATOM      1  C   LIG d   1      -7.554  76.920 118.003  0.00  0.00     0.161 C 
ATOM      2  C   LIG d   1      -8.725  77.622 118.331  0.00  0.00     0.016 C 
ATOM      3  C   LIG d   1      -8.788  79.032 118.422  0.00  0.00     0.038 C 
ATOM      4  C   LIG d   1      -7.713  79.848 118.040  0.00  0.00     0.028 C 
ATOM      5  C   LIG d   1      -6.355  79.169 118.187  0.00  0.00    -0.047 C 
ATOM      6  C   LIG d   1      -6.400  77.797 117.475  0.00  0.00     0.091 C 
ENDROOT
BRANCH   1   7
ATOM      7  O   LIG d   1      -7.860  75.873 117.060  0.00  0.00    -0.368 OA
BRANCH   7   8
ATOM      8  C   LIG d   1      -7.615  74.518 117.511  0.00  0.00     0.119 C 
BRANCH   8   9
ATOM      9  C   LIG d   1      -6.515  73.923 116.610  0.00  0.00     0.028 C 
ATOM     10  C   LIG d   1      -6.278  72.428 116.884  0.00  0.00     0.006 C 
ENDBRANCH   8   9
BRANCH   8  11
ATOM     11  C   LIG d   1      -8.843  73.629 117.294  0.00  0.00     0.028 C 
ATOM     12  C   LIG d   1     -10.155  74.426 117.244  0.00  0.00     0.006 C 
ENDBRANCH   8  11
ENDBRANCH   7   8
ENDBRANCH   1   7
BRANCH   6  13
ATOM     13  N   LIG d   1      -5.138  77.030 117.642  0.00  0.00    -0.311 N 
ATOM     14  C   LIG d   1      -4.114  77.109 116.794  0.00  0.00     0.210 C 
ATOM     15  C   LIG d   1      -2.917  76.219 117.142  0.00  0.00     0.109 C 
ATOM     16  O   LIG d   1      -4.071  77.856 115.805  0.00  0.00    -0.276 OA
ATOM     17  H   LIG d   1      -5.076  76.423 118.436  0.00  0.00     0.149 HD
ENDBRANCH   6  13
BRANCH   5  18
ATOM     18  N   LIG d   1      -5.339  80.079 117.626  0.00  0.00     0.381 N 
ATOM     19  H   LIG d   1      -4.423  79.727 117.823  0.00  0.00    -0.090 HD
ATOM     20  H   LIG d   1      -5.431  80.979 118.062  0.00  0.00    -0.090 HD
ATOM     21  H   LIG d   1      -5.464  80.164 116.641  0.00  0.00    -0.090 HD
ENDBRANCH   5  18
BRANCH   3  22
ATOM     22  C   LIG d   1      -9.924  79.638 118.937  0.00  0.00     0.382 C 
ATOM     23  O   LIG d   1     -10.617  79.042 119.797  0.00  0.00    -0.241 OA
ATOM     24  O   LIG d   1     -10.289  80.754 118.521  0.00  0.00    -0.241 OA
ENDBRANCH   3  22
TORSDOF 7
ENDMDL
MODEL 7
REMARK VINA RESULT:      -4.6      3.857      6.626
REMARK  7 active torsions:
REMARK  status: ('A' for Active; 'I' for Inactive)
REMARK    1  A    between atoms: C_2  and  C_3 
REMARK    2  A    between atoms: C_3  and  O_6 
REMARK    3  A    between atoms: C_3  and  C_4 
REMARK    4  A    between atoms: C_7  and  O_6 
REMARK    5  A    between atoms: C_9  and  C_10 
REMARK    6  A    between atoms: N_15  and  C_14 
REMARK    7  A    between atoms: N_20  and  C_19 
REMARK       I    between atoms: C_22  and  N_20 
ROOT
ATOM      1  C   LIG d   1      -7.734  77.975 118.120  0.00  0.00     0.161 C 
ATOM      2  C   LIG d   1      -7.432  76.752 117.498  0.00  0.00     0.016 C 
ATOM      3  C   LIG d   1      -8.368  75.702 117.350  0.00  0.00     0.038 C 
ATOM      4  C   LIG d   1      -9.722  75.864 117.680  0.00  0.00     0.028 C 
ATOM      5  C   LIG d   1      -9.959  76.901 118.773  0.00  0.00    -0.047 C 
ATOM      6  C   LIG d   1      -9.235  78.211 118.387  0.00  0.00     0.091 C 
ENDROOT
BRANCH   1   7
ATOM      7  O   LIG d   1      -7.185  79.063 117.350  0.00  0.00    -0.368 OA
BRANCH   7   8
ATOM      8  C   LIG d   1      -6.183  79.872 118.015  0.00  0.00     0.119 C 
BRANCH   8   9
ATOM      9  C   LIG d   1      -6.528  81.349 117.745  0.00  0.00     0.028 C 
ATOM     10  C   LIG d   1      -6.421  82.217 119.010  0.00  0.00     0.006 C 
ENDBRANCH   8   9
BRANCH   8  11
ATOM     11  C   LIG d   1      -4.797  79.660 117.399  0.00  0.00     0.028 C 
ATOM     12  C   LIG d   1      -3.672  79.675 118.445  0.00  0.00     0.006 C 
ENDBRANCH   8  11
ENDBRANCH   7   8
ENDBRANCH   1   7
BRANCH   6  13
ATOM     13  N   LIG d   1      -9.346  79.252 119.442  0.00  0.00    -0.311 N 
ATOM     14  C   LIG d   1      -9.797  80.484 119.212  0.00  0.00     0.210 C 
ATOM     15  C   LIG d   1      -9.811  81.406 120.435  0.00  0.00     0.109 C 
ATOM     16  O   LIG d   1     -10.216  80.891 118.118  0.00  0.00    -0.276 OA
ATOM     17  H   LIG d   1      -9.056  78.997 120.366  0.00  0.00     0.149 HD
ENDBRANCH   6  13
BRANCH   5  18
ATOM     18  N   LIG d   1     -11.417  77.067 118.920  0.00  0.00     0.381 N 
ATOM     19  H   LIG d   1     -11.894  76.420 118.325  0.00  0.00    -0.090 HD
ATOM     20  H   LIG d   1     -11.668  77.999 118.639  0.00  0.00    -0.090 HD
ATOM     21  H   LIG d   1     -11.684  76.916 119.868  0.00  0.00    -0.090 HD
ENDBRANCH   5  18
BRANCH   3  22
ATOM     22  C   LIG d   1      -7.943  74.461 116.902  0.00  0.00     0.382 C 
ATOM     23  O   LIG d   1      -6.780  74.321 116.452  0.00  0.00    -0.241 OA
ATOM     24  O   LIG d   1      -8.723  73.489 116.901  0.00  0.00    -0.241 OA
ENDBRANCH   3  22
TORSDOF 7
ENDMDL
MODEL 8
REMARK VINA RESULT:      -4.6     16.463     18.997
REMARK  7 active torsions:
REMARK  status: ('A' for Active; 'I' for Inactive)
REMARK    1  A    between atoms: C_2  and  C_3 
REMARK    2  A    between atoms: C_3  and  O_6 
REMARK    3  A    between atoms: C_3  and  C_4 
REMARK    4  A    between atoms: C_7  and  O_6 
REMARK    5  A    between atoms: C_9  and  C_10 
REMARK    6  A    between atoms: N_15  and  C_14 
REMARK    7  A    between atoms: N_20  and  C_19 
REMARK       I    between atoms: C_22  and  N_20 
ROOT
ATOM      1  C   LIG d   1      -5.424  92.749 119.045  0.00  0.00     0.161 C 
ATOM      2  C   LIG d   1      -6.408  92.105 118.276  0.00  0.00     0.016 C 
ATOM      3  C   LIG d   1      -6.113  91.130 117.295  0.00  0.00     0.038 C 
ATOM      4  C   LIG d   1      -4.817  90.621 117.122  0.00  0.00     0.028 C 
ATOM      5  C   LIG d   1      -3.722  91.602 117.524  0.00  0.00    -0.047 C 
ATOM      6  C   LIG d   1      -4.016  92.126 118.948  0.00  0.00     0.091 C 
ENDROOT
BRANCH   1   7
ATOM      7  O   LIG d   1      -5.848  92.818 120.421  0.00  0.00    -0.368 OA
BRANCH   7   8
ATOM      8  C   LIG d   1      -6.010  94.148 120.973  0.00  0.00     0.119 C 
BRANCH   8   9
ATOM      9  C   LIG d   1      -7.417  94.222 121.596  0.00  0.00     0.028 C 
ATOM     10  C   LIG d   1      -8.526  94.307 120.534  0.00  0.00     0.006 C 
ENDBRANCH   8   9
BRANCH   8  11
ATOM     11  C   LIG d   1      -5.997  95.213 119.872  0.00  0.00     0.028 C 
ATOM     12  C   LIG d   1      -4.891  96.261 120.071  0.00  0.00     0.006 C 
ENDBRANCH   8  11
ENDBRANCH   7   8
ENDBRANCH   1   7
BRANCH   6  13
ATOM     13  N   LIG d   1      -3.038  93.156 119.387  0.00  0.00    -0.311 N 
ATOM     14  C   LIG d   1      -2.341  93.070 120.519  0.00  0.00     0.210 C 
ATOM     15  C   LIG d   1      -1.402  94.249 120.791  0.00  0.00     0.109 C 
ATOM     16  O   LIG d   1      -2.389  92.114 121.308  0.00  0.00    -0.276 OA
ATOM     17  H   LIG d   1      -2.914  93.950 118.791  0.00  0.00     0.149 HD
ENDBRANCH   6  13
BRANCH   5  18
ATOM     18  N   LIG d   1      -2.431  90.895 117.424  0.00  0.00     0.381 N 
ATOM     19  H   LIG d   1      -2.386  90.393 116.559  0.00  0.00    -0.090 HD
ATOM     20  H   LIG d   1      -2.364  90.232 118.177  0.00  0.00    -0.090 HD
ATOM     21  H   LIG d   1      -1.680  91.547 117.478  0.00  0.00    -0.090 HD
ENDBRANCH   5  18
BRANCH   3  22
ATOM     22  C   LIG d   1      -7.115  90.684 116.447  0.00  0.00     0.382 C 
ATOM     23  O   LIG d   1      -8.054  91.452 116.127  0.00  0.00    -0.241 OA
ATOM     24  O   LIG d   1      -7.116  89.509 116.034  0.00  0.00    -0.241 OA
ENDBRANCH   3  22
TORSDOF 7
ENDMDL
MODEL 9
REMARK VINA RESULT:      -4.6     10.446     12.850
REMARK  7 active torsions:
REMARK  status: ('A' for Active; 'I' for Inactive)
REMARK    1  A    between atoms: C_2  and  C_3 
REMARK    2  A    between atoms: C_3  and  O_6 
REMARK    3  A    between atoms: C_3  and  C_4 
REMARK    4  A    between atoms: C_7  and  O_6 
REMARK    5  A    between atoms: C_9  and  C_10 
REMARK    6  A    between atoms: N_15  and  C_14 
REMARK    7  A    between atoms: N_20  and  C_19 
REMARK       I    between atoms: C_22  and  N_20 
ROOT
ATOM      1  C   LIG d   1     -14.044  65.992 119.236  0.00  0.00     0.161 C 
ATOM      2  C   LIG d   1     -13.166  66.993 119.685  0.00  0.00     0.016 C 
ATOM      3  C   LIG d   1     -12.367  66.863 120.844  0.00  0.00     0.038 C 
ATOM      4  C   LIG d   1     -12.278  65.656 121.553  0.00  0.00     0.028 C 
ATOM      5  C   LIG d   1     -13.526  64.789 121.430  0.00  0.00    -0.047 C 
ATOM      6  C   LIG d   1     -13.879  64.626 119.933  0.00  0.00     0.091 C 
ENDROOT
BRANCH   1   7
ATOM      7  O   LIG d   1     -13.925  65.843 117.807  0.00  0.00    -0.368 OA
BRANCH   7   8
ATOM      8  C   LIG d   1     -15.070  66.263 117.025  0.00  0.00     0.119 C 
BRANCH   8   9
ATOM      9  C   LIG d   1     -14.634  67.476 116.180  0.00  0.00     0.028 C 
ATOM     10  C   LIG d   1     -15.300  68.783 116.643  0.00  0.00     0.006 C 
ENDBRANCH   8   9
BRANCH   8  11
ATOM     11  C   LIG d   1     -16.199  66.779 117.923  0.00  0.00     0.028 C 
ATOM     12  C   LIG d   1     -17.482  65.939 117.809  0.00  0.00     0.006 C 
ENDBRANCH   8  11
ENDBRANCH   7   8
ENDBRANCH   1   7
BRANCH   6  13
ATOM     13  N   LIG d   1     -15.136  63.860 119.727  0.00  0.00    -0.311 N 
ATOM     14  C   LIG d   1     -15.293  62.954 118.764  0.00  0.00     0.210 C 
ATOM     15  C   LIG d   1     -16.675  62.295 118.715  0.00  0.00     0.109 C 
ATOM     16  O   LIG d   1     -14.409  62.611 117.965  0.00  0.00    -0.276 OA
ATOM     17  H   LIG d   1     -15.895  64.054 120.351  0.00  0.00     0.149 HD
ENDBRANCH   6  13
BRANCH   5  18
ATOM     18  N   LIG d   1     -13.245  63.505 122.101  0.00  0.00     0.381 N 
ATOM     19  H   LIG d   1     -12.332  63.529 122.508  0.00  0.00    -0.090 HD
ATOM     20  H   LIG d   1     -13.266  62.770 121.416  0.00  0.00    -0.090 HD
ATOM     21  H   LIG d   1     -13.927  63.333 122.806  0.00  0.00    -0.090 HD
ENDBRANCH   5  18
BRANCH   3  22
ATOM     22  C   LIG d   1     -11.674  67.963 121.327  0.00  0.00     0.382 C 
ATOM     23  O   LIG d   1     -11.083  68.732 120.531  0.00  0.00    -0.241 OA
ATOM     24  O   LIG d   1     -11.597  68.172 122.553  0.00  0.00    -0.241 OA
ENDBRANCH   3  22
TORSDOF 7
ENDMDL
