MODEL 1
REMARK VINA RESULT:      -5.2      0.000      0.000
REMARK  7 active torsions:
REMARK  status: ('A' for Active; 'I' for Inactive)
REMARK    1  A    between atoms: C_2  and  C_3 
REMARK    2  A    between atoms: C_3  and  O_6 
REMARK    3  A    between atoms: C_3  and  C_4 
REMARK    4  A    between atoms: C_7  and  O_6 
REMARK    5  A    between atoms: C_9  and  C_10 
REMARK    6  A    between atoms: N_15  and  C_14 
REMARK    7  A    between atoms: N_20  and  C_19 
REMARK       I    between atoms: C_22  and  N_20 
ROOT
ATOM      1  C   LIG d   1      -5.725  93.089 117.751  0.00  0.00     0.161 C 
ATOM      2  C   LIG d   1      -6.451  91.973 117.304  0.00  0.00     0.016 C 
ATOM      3  C   LIG d   1      -5.871  90.701 117.092  0.00  0.00     0.038 C 
ATOM      4  C   LIG d   1      -4.547  90.420 117.461  0.00  0.00     0.028 C 
ATOM      5  C   LIG d   1      -3.640  91.645 117.443  0.00  0.00    -0.047 C 
ATOM      6  C   LIG d   1      -4.305  92.774 118.264  0.00  0.00     0.091 C 
ENDROOT
BRANCH   1   7
ATOM      7  O   LIG d   1      -6.479  93.789 118.761  0.00  0.00    -0.368 OA
BRANCH   7   8
ATOM      8  C   LIG d   1      -6.965  95.105 118.396  0.00  0.00     0.119 C 
BRANCH   8   9
ATOM      9  C   LIG d   1      -6.798  96.017 119.627  0.00  0.00     0.028 C 
ATOM     10  C   LIG d   1      -5.840  95.423 120.673  0.00  0.00     0.006 C 
ENDBRANCH   8   9
BRANCH   8  11
ATOM     11  C   LIG d   1      -8.469  95.083 118.109  0.00  0.00     0.028 C 
ATOM     12  C   LIG d   1      -9.321  95.121 119.387  0.00  0.00     0.006 C 
ENDBRANCH   8  11
ENDBRANCH   7   8
ENDBRANCH   1   7
BRANCH   6  13
ATOM     13  N   LIG d   1      -3.523  94.037 118.228  0.00  0.00    -0.311 N 
ATOM     14  C   LIG d   1      -2.642  94.381 119.167  0.00  0.00     0.210 C 
ATOM     15  C   LIG d   1      -1.960  95.735 118.948  0.00  0.00     0.109 C 
ATOM     16  O   LIG d   1      -2.338  93.678 120.143  0.00  0.00    -0.276 OA
ATOM     17  H   LIG d   1      -3.684  94.652 117.455  0.00  0.00     0.149 HD
ENDBRANCH   6  13
BRANCH   5  18
ATOM     18  N   LIG d   1      -2.328  91.236 117.979  0.00  0.00     0.381 N 
ATOM     19  H   LIG d   1      -2.344  91.272 118.978  0.00  0.00    -0.090 HD
ATOM     20  H   LIG d   1      -1.628  91.879 117.651  0.00  0.00    -0.090 HD
ATOM     21  H   LIG d   1      -2.109  90.313 117.676  0.00  0.00    -0.090 HD
ENDBRANCH   5  18
BRANCH   3  22
ATOM     22  C   LIG d   1      -6.607  89.705 116.469  0.00  0.00     0.382 C 
ATOM     23  O   LIG d   1      -6.022  88.815 115.806  0.00  0.00    -0.241 OA
ATOM     24  O   LIG d   1      -7.852  89.711 116.523  0.00  0.00    -0.241 OA
ENDBRANCH   3  22
TORSDOF 7
ENDMDL
MODEL 2
REMARK VINA RESULT:      -5.1      1.951      4.967
REMARK  7 active torsions:
REMARK  status: ('A' for Active; 'I' for Inactive)
REMARK    1  A    between atoms: C_2  and  C_3 
REMARK    2  A    between atoms: C_3  and  O_6 
REMARK    3  A    between atoms: C_3  and  C_4 
REMARK    4  A    between atoms: C_7  and  O_6 
REMARK    5  A    between atoms: C_9  and  C_10 
REMARK    6  A    between atoms: N_15  and  C_14 
REMARK    7  A    between atoms: N_20  and  C_19 
REMARK       I    between atoms: C_22  and  N_20 
ROOT
ATOM      1  C   LIG d   1      -5.697  92.933 117.837  0.00  0.00     0.161 C 
ATOM      2  C   LIG d   1      -6.952  93.558 117.745  0.00  0.00     0.016 C 
ATOM      3  C   LIG d   1      -7.288  94.736 118.451  0.00  0.00     0.038 C 
ATOM      4  C   LIG d   1      -6.335  95.458 119.185  0.00  0.00     0.028 C 
ATOM      5  C   LIG d   1      -5.195  94.594 119.714  0.00  0.00    -0.047 C 
ATOM      6  C   LIG d   1      -4.609  93.767 118.546  0.00  0.00     0.091 C 
ENDROOT
BRANCH   1   7
ATOM      7  O   LIG d   1      -5.250  92.539 116.525  0.00  0.00    -0.368 OA
BRANCH   7   8
ATOM      8  C   LIG d   1      -5.369  91.130 116.208  0.00  0.00     0.119 C 
BRANCH   8   9
ATOM      9  C   LIG d   1      -6.834  90.868 115.806  0.00  0.00     0.028 C 
ATOM     10  C   LIG d   1      -7.372  89.545 116.376  0.00  0.00     0.006 C 
ENDBRANCH   8   9
BRANCH   8  11
ATOM     11  C   LIG d   1      -5.126  90.258 117.443  0.00  0.00     0.028 C 
ATOM     12  C   LIG d   1      -3.751  89.571 117.426  0.00  0.00     0.006 C 
ENDBRANCH   8  11
ENDBRANCH   7   8
ENDBRANCH   1   7
BRANCH   6  13
ATOM     13  N   LIG d   1      -3.544  92.832 118.992  0.00  0.00    -0.311 N 
ATOM     14  C   LIG d   1      -2.302  92.853 118.513  0.00  0.00     0.210 C 
ATOM     15  C   LIG d   1      -1.366  91.788 119.094  0.00  0.00     0.109 C 
ATOM     16  O   LIG d   1      -1.877  93.673 117.685  0.00  0.00    -0.276 OA
ATOM     17  H   LIG d   1      -3.794  92.153 119.685  0.00  0.00     0.149 HD
ENDBRANCH   6  13
BRANCH   5  18
ATOM     18  N   LIG d   1      -4.207  95.493 120.339  0.00  0.00     0.381 N 
ATOM     19  H   LIG d   1      -4.110  95.267 121.309  0.00  0.00    -0.090 HD
ATOM     20  H   LIG d   1      -4.537  96.439 120.267  0.00  0.00    -0.090 HD
ATOM     21  H   LIG d   1      -3.327  95.404 119.880  0.00  0.00    -0.090 HD
ENDBRANCH   5  18
BRANCH   3  22
ATOM     22  C   LIG d   1      -8.601  95.181 118.459  0.00  0.00     0.382 C 
ATOM     23  O   LIG d   1      -8.871  96.345 118.074  0.00  0.00    -0.241 OA
ATOM     24  O   LIG d   1      -9.514  94.450 118.887  0.00  0.00    -0.241 OA
ENDBRANCH   3  22
TORSDOF 7
ENDMDL
MODEL 3
REMARK VINA RESULT:      -5.1      2.270      4.682
REMARK  7 active torsions:
REMARK  status: ('A' for Active; 'I' for Inactive)
REMARK    1  A    between atoms: C_2  and  C_3 
REMARK    2  A    between atoms: C_3  and  O_6 
REMARK    3  A    between atoms: C_3  and  C_4 
REMARK    4  A    between atoms: C_7  and  O_6 
REMARK    5  A    between atoms: C_9  and  C_10 
REMARK    6  A    between atoms: N_15  and  C_14 
REMARK    7  A    between atoms: N_20  and  C_19 
REMARK       I    between atoms: C_22  and  N_20 
ROOT
ATOM      1  C   LIG d   1      -3.867  91.333 118.073  0.00  0.00     0.161 C 
ATOM      2  C   LIG d   1      -4.671  90.407 117.388  0.00  0.00     0.016 C 
ATOM      3  C   LIG d   1      -5.947  90.721 116.866  0.00  0.00     0.038 C 
ATOM      4  C   LIG d   1      -6.444  92.033 116.862  0.00  0.00     0.028 C 
ATOM      5  C   LIG d   1      -5.887  92.895 117.990  0.00  0.00    -0.047 C 
ATOM      6  C   LIG d   1      -4.344  92.797 117.981  0.00  0.00     0.091 C 
ENDROOT
BRANCH   1   7
ATOM      7  O   LIG d   1      -2.502  91.221 117.623  0.00  0.00    -0.368 OA
BRANCH   7   8
ATOM      8  C   LIG d   1      -1.575  90.598 118.546  0.00  0.00     0.119 C 
BRANCH   8   9
ATOM      9  C   LIG d   1      -1.294  89.174 118.029  0.00  0.00     0.028 C 
ATOM     10  C   LIG d   1      -2.050  88.099 118.827  0.00  0.00     0.006 C 
ENDBRANCH   8   9
BRANCH   8  11
ATOM     11  C   LIG d   1      -2.208  90.409 119.928  0.00  0.00     0.028 C 
ATOM     12  C   LIG d   1      -1.473  91.189 121.031  0.00  0.00     0.006 C 
ENDBRANCH   8  11
ENDBRANCH   7   8
ENDBRANCH   1   7
BRANCH   6  13
ATOM     13  N   LIG d   1      -3.722  93.544 119.105  0.00  0.00    -0.311 N 
ATOM     14  C   LIG d   1      -2.638  94.305 118.969  0.00  0.00     0.210 C 
ATOM     15  C   LIG d   1      -2.149  94.972 120.259  0.00  0.00     0.109 C 
ATOM     16  O   LIG d   1      -2.053  94.517 117.896  0.00  0.00    -0.276 OA
ATOM     17  H   LIG d   1      -4.151  93.454 120.006  0.00  0.00     0.149 HD
ENDBRANCH   6  13
BRANCH   5  18
ATOM     18  N   LIG d   1      -6.380  94.270 117.784  0.00  0.00     0.381 N 
ATOM     19  H   LIG d   1      -7.041  94.285 117.034  0.00  0.00    -0.090 HD
ATOM     20  H   LIG d   1      -5.605  94.859 117.534  0.00  0.00    -0.090 HD
ATOM     21  H   LIG d   1      -6.806  94.608 118.619  0.00  0.00    -0.090 HD
ENDBRANCH   5  18
BRANCH   3  22
ATOM     22  C   LIG d   1      -6.758  89.709 116.376  0.00  0.00     0.382 C 
ATOM     23  O   LIG d   1      -8.000  89.762 116.545  0.00  0.00    -0.241 OA
ATOM     24  O   LIG d   1      -6.258  88.720 115.805  0.00  0.00    -0.241 OA
ENDBRANCH   3  22
TORSDOF 7
ENDMDL
MODEL 4
REMARK VINA RESULT:      -4.8     11.540     13.758
REMARK  7 active torsions:
REMARK  status: ('A' for Active; 'I' for Inactive)
REMARK    1  A    between atoms: C_2  and  C_3 
REMARK    2  A    between atoms: C_3  and  O_6 
REMARK    3  A    between atoms: C_3  and  C_4 
REMARK    4  A    between atoms: C_7  and  O_6 
REMARK    5  A    between atoms: C_9  and  C_10 
REMARK    6  A    between atoms: N_15  and  C_14 
REMARK    7  A    between atoms: N_20  and  C_19 
REMARK       I    between atoms: C_22  and  N_20 
ROOT
ATOM      1  C   LIG d   1      -6.594  80.367 118.947  0.00  0.00     0.161 C 
ATOM      2  C   LIG d   1      -6.120  81.401 119.771  0.00  0.00     0.016 C 
ATOM      3  C   LIG d   1      -4.814  81.428 120.313  0.00  0.00     0.038 C 
ATOM      4  C   LIG d   1      -3.838  80.491 119.941  0.00  0.00     0.028 C 
ATOM      5  C   LIG d   1      -4.420  79.149 119.510  0.00  0.00    -0.047 C 
ATOM      6  C   LIG d   1      -5.509  79.394 118.441  0.00  0.00     0.091 C 
ENDROOT
BRANCH   1   7
ATOM      7  O   LIG d   1      -7.325  80.923 117.837  0.00  0.00    -0.368 OA
BRANCH   7   8
ATOM      8  C   LIG d   1      -8.698  80.482 117.692  0.00  0.00     0.119 C 
BRANCH   8   9
ATOM      9  C   LIG d   1      -9.563  81.734 117.451  0.00  0.00     0.028 C 
ATOM     10  C   LIG d   1      -9.847  82.510 118.748  0.00  0.00     0.006 C 
ENDBRANCH   8   9
BRANCH   8  11
ATOM     11  C   LIG d   1      -9.226  79.868 118.992  0.00  0.00     0.028 C 
ATOM     12  C   LIG d   1      -9.715  78.422 118.812  0.00  0.00     0.006 C 
ENDBRANCH   8  11
ENDBRANCH   7   8
ENDBRANCH   1   7
BRANCH   6  13
ATOM     13  N   LIG d   1      -6.188  78.138 118.026  0.00  0.00    -0.311 N 
ATOM     14  C   LIG d   1      -5.814  77.416 116.971  0.00  0.00     0.210 C 
ATOM     15  C   LIG d   1      -6.662  76.169 116.708  0.00  0.00     0.109 C 
ATOM     16  O   LIG d   1      -4.840  77.674 116.248  0.00  0.00    -0.276 OA
ATOM     17  H   LIG d   1      -6.969  77.839 118.576  0.00  0.00     0.149 HD
ENDBRANCH   6  13
BRANCH   5  18
ATOM     18  N   LIG d   1      -3.305  78.316 119.020  0.00  0.00     0.381 N 
ATOM     19  H   LIG d   1      -3.655  77.607 118.408  0.00  0.00    -0.090 HD
ATOM     20  H   LIG d   1      -2.865  77.867 119.804  0.00  0.00    -0.090 HD
ATOM     21  H   LIG d   1      -2.642  78.884 118.538  0.00  0.00    -0.090 HD
ENDBRANCH   5  18
BRANCH   3  22
ATOM     22  C   LIG d   1      -4.485  82.377 121.268  0.00  0.00     0.382 C 
ATOM     23  O   LIG d   1      -3.439  82.247 121.948  0.00  0.00    -0.241 OA
ATOM     24  O   LIG d   1      -5.245  83.340 121.489  0.00  0.00    -0.241 OA
ENDBRANCH   3  22
TORSDOF 7
ENDMDL
MODEL 5
REMARK VINA RESULT:      -4.7     12.603     15.338
REMARK  7 active torsions:
REMARK  status: ('A' for Active; 'I' for Inactive)
REMARK    1  A    between atoms: C_2  and  C_3 
REMARK    2  A    between atoms: C_3  and  O_6 
REMARK    3  A    between atoms: C_3  and  C_4 
REMARK    4  A    between atoms: C_7  and  O_6 
REMARK    5  A    between atoms: C_9  and  C_10 
REMARK    6  A    between atoms: N_15  and  C_14 
REMARK    7  A    between atoms: N_20  and  C_19 
REMARK       I    between atoms: C_22  and  N_20 
ROOT
ATOM      1  C   LIG d   1      -5.261  78.942 117.304  0.00  0.00     0.161 C 
ATOM      2  C   LIG d   1      -4.024  78.439 117.740  0.00  0.00     0.016 C 
ATOM      3  C   LIG d   1      -3.465  78.735 119.004  0.00  0.00     0.038 C 
ATOM      4  C   LIG d   1      -4.181  79.438 119.984  0.00  0.00     0.028 C 
ATOM      5  C   LIG d   1      -5.222  80.392 119.408  0.00  0.00    -0.047 C 
ATOM      6  C   LIG d   1      -6.106  79.620 118.402  0.00  0.00     0.091 C 
ENDROOT
BRANCH   1   7
ATOM      7  O   LIG d   1      -6.017  77.895 116.664  0.00  0.00    -0.368 OA
BRANCH   7   8
ATOM      8  C   LIG d   1      -5.947  76.588 117.286  0.00  0.00     0.119 C 
BRANCH   8   9
ATOM      9  C   LIG d   1      -5.668  75.560 116.172  0.00  0.00     0.028 C 
ATOM     10  C   LIG d   1      -6.167  74.151 116.535  0.00  0.00     0.006 C 
ENDBRANCH   8   9
BRANCH   8  11
ATOM     11  C   LIG d   1      -7.297  76.182 117.883  0.00  0.00     0.028 C 
ATOM     12  C   LIG d   1      -7.404  76.499 119.383  0.00  0.00     0.006 C 
ENDBRANCH   8  11
ENDBRANCH   7   8
ENDBRANCH   1   7
BRANCH   6  13
ATOM     13  N   LIG d   1      -7.097  80.499 117.728  0.00  0.00    -0.311 N 
ATOM     14  C   LIG d   1      -8.353  80.644 118.148  0.00  0.00     0.210 C 
ATOM     15  C   LIG d   1      -9.215  81.583 117.297  0.00  0.00     0.109 C 
ATOM     16  O   LIG d   1      -8.826  80.109 119.162  0.00  0.00    -0.276 OA
ATOM     17  H   LIG d   1      -6.789  80.995 116.915  0.00  0.00     0.149 HD
ENDBRANCH   6  13
BRANCH   5  18
ATOM     18  N   LIG d   1      -5.986  80.954 120.537  0.00  0.00     0.381 N 
ATOM     19  H   LIG d   1      -5.906  80.352 121.333  0.00  0.00    -0.090 HD
ATOM     20  H   LIG d   1      -6.955  81.008 120.279  0.00  0.00    -0.090 HD
ATOM     21  H   LIG d   1      -5.643  81.862 120.762  0.00  0.00    -0.090 HD
ENDBRANCH   5  18
BRANCH   3  22
ATOM     22  C   LIG d   1      -2.160  78.360 119.284  0.00  0.00     0.382 C 
ATOM     23  O   LIG d   1      -1.887  77.805 120.375  0.00  0.00    -0.241 OA
ATOM     24  O   LIG d   1      -1.244  78.609 118.477  0.00  0.00    -0.241 OA
ENDBRANCH   3  22
TORSDOF 7
ENDMDL
MODEL 6
REMARK VINA RESULT:      -4.7      1.572      2.312
REMARK  7 active torsions:
REMARK  status: ('A' for Active; 'I' for Inactive)
REMARK    1  A    between atoms: C_2  and  C_3 
REMARK    2  A    between atoms: C_3  and  O_6 
REMARK    3  A    between atoms: C_3  and  C_4 
REMARK    4  A    between atoms: C_7  and  O_6 
REMARK    5  A    between atoms: C_9  and  C_10 
REMARK    6  A    between atoms: N_15  and  C_14 
REMARK    7  A    between atoms: N_20  and  C_19 
REMARK       I    between atoms: C_22  and  N_20 
ROOT
ATOM      1  C   LIG d   1      -4.263  92.661 117.570  0.00  0.00     0.161 C 
ATOM      2  C   LIG d   1      -5.434  92.028 117.121  0.00  0.00     0.016 C 
ATOM      3  C   LIG d   1      -5.525  90.638 116.881  0.00  0.00     0.038 C 
ATOM      4  C   LIG d   1      -4.487  89.758 117.222  0.00  0.00     0.028 C 
ATOM      5  C   LIG d   1      -3.109  90.411 117.204  0.00  0.00    -0.047 C 
ATOM      6  C   LIG d   1      -3.155  91.702 118.053  0.00  0.00     0.091 C 
ENDROOT
BRANCH   1   7
ATOM      7  O   LIG d   1      -4.587  93.612 118.603  0.00  0.00    -0.368 OA
BRANCH   7   8
ATOM      8  C   LIG d   1      -5.904  93.487 119.194  0.00  0.00     0.119 C 
BRANCH   8   9
ATOM      9  C   LIG d   1      -6.569  94.876 119.140  0.00  0.00     0.028 C 
ATOM     10  C   LIG d   1      -7.504  95.032 117.929  0.00  0.00     0.006 C 
ENDBRANCH   8   9
BRANCH   8  11
ATOM     11  C   LIG d   1      -5.815  93.138 120.683  0.00  0.00     0.028 C 
ATOM     12  C   LIG d   1      -4.436  93.448 121.286  0.00  0.00     0.006 C 
ENDBRANCH   8  11
ENDBRANCH   7   8
ENDBRANCH   1   7
BRANCH   6  13
ATOM     13  N   LIG d   1      -1.869  92.448 118.020  0.00  0.00    -0.311 N 
ATOM     14  C   LIG d   1      -1.085  92.603 119.085  0.00  0.00     0.210 C 
ATOM     15  C   LIG d   1       0.186  93.423 118.839  0.00  0.00     0.109 C 
ATOM     16  O   LIG d   1      -1.304  92.111 120.203  0.00  0.00    -0.276 OA
ATOM     17  H   LIG d   1      -1.599  92.853 117.146  0.00  0.00     0.149 HD
ENDBRANCH   6  13
BRANCH   5  18
ATOM     18  N   LIG d   1      -2.140  89.420 117.711  0.00  0.00     0.381 N 
ATOM     19  H   LIG d   1      -1.215  89.673 117.424  0.00  0.00    -0.090 HD
ATOM     20  H   LIG d   1      -2.358  88.522 117.317  0.00  0.00    -0.090 HD
ATOM     21  H   LIG d   1      -2.186  89.376 118.705  0.00  0.00    -0.090 HD
ENDBRANCH   5  18
BRANCH   3  22
ATOM     22  C   LIG d   1      -6.649  90.120 116.258  0.00  0.00     0.382 C 
ATOM     23  O   LIG d   1      -6.767  88.880 116.105  0.00  0.00    -0.241 OA
ATOM     24  O   LIG d   1      -7.527  90.879 115.805  0.00  0.00    -0.241 OA
ENDBRANCH   3  22
TORSDOF 7
ENDMDL
MODEL 7
REMARK VINA RESULT:      -4.5     11.482     13.991
REMARK  7 active torsions:
REMARK  status: ('A' for Active; 'I' for Inactive)
REMARK    1  A    between atoms: C_2  and  C_3 
REMARK    2  A    between atoms: C_3  and  O_6 
REMARK    3  A    between atoms: C_3  and  C_4 
REMARK    4  A    between atoms: C_7  and  O_6 
REMARK    5  A    between atoms: C_9  and  C_10 
REMARK    6  A    between atoms: N_15  and  C_14 
REMARK    7  A    between atoms: N_20  and  C_19 
REMARK       I    between atoms: C_22  and  N_20 
ROOT
ATOM      1  C   LIG d   1      -6.473  79.956 117.953  0.00  0.00     0.161 C 
ATOM      2  C   LIG d   1      -5.657  79.014 117.305  0.00  0.00     0.016 C 
ATOM      3  C   LIG d   1      -4.461  78.506 117.862  0.00  0.00     0.038 C 
ATOM      4  C   LIG d   1      -4.076  78.795 119.180  0.00  0.00     0.028 C 
ATOM      5  C   LIG d   1      -4.603  80.133 119.685  0.00  0.00    -0.047 C 
ATOM      6  C   LIG d   1      -6.127  80.198 119.437  0.00  0.00     0.091 C 
ENDROOT
BRANCH   1   7
ATOM      7  O   LIG d   1      -7.858  79.579 117.817  0.00  0.00    -0.368 OA
BRANCH   7   8
ATOM      8  C   LIG d   1      -8.450  78.906 118.954  0.00  0.00     0.119 C 
BRANCH   8   9
ATOM      9  C   LIG d   1      -8.657  77.430 118.563  0.00  0.00     0.028 C 
ATOM     10  C   LIG d   1      -7.593  76.505 119.179  0.00  0.00     0.006 C 
ENDBRANCH   8   9
BRANCH   8  11
ATOM     11  C   LIG d   1      -9.852  79.446 119.253  0.00  0.00     0.028 C 
ATOM     12  C   LIG d   1     -10.111  80.819 118.612  0.00  0.00     0.006 C 
ENDBRANCH   8  11
ENDBRANCH   7   8
ENDBRANCH   1   7
BRANCH   6  13
ATOM     13  N   LIG d   1      -6.709  81.509 119.826  0.00  0.00    -0.311 N 
ATOM     14  C   LIG d   1      -7.308  81.727 120.996  0.00  0.00     0.210 C 
ATOM     15  C   LIG d   1      -7.857  83.145 121.187  0.00  0.00     0.109 C 
ATOM     16  O   LIG d   1      -7.409  80.891 121.906  0.00  0.00    -0.276 OA
ATOM     17  H   LIG d   1      -6.644  82.253 119.159  0.00  0.00     0.149 HD
ENDBRANCH   6  13
BRANCH   5  18
ATOM     18  N   LIG d   1      -4.244  80.244 121.112  0.00  0.00     0.381 N 
ATOM     19  H   LIG d   1      -3.568  80.971 121.236  0.00  0.00    -0.090 HD
ATOM     20  H   LIG d   1      -3.833  79.377 121.412  0.00  0.00    -0.090 HD
ATOM     21  H   LIG d   1      -5.056  80.440 121.654  0.00  0.00    -0.090 HD
ENDBRANCH   5  18
BRANCH   3  22
ATOM     22  C   LIG d   1      -3.615  77.730 117.084  0.00  0.00     0.382 C 
ATOM     23  O   LIG d   1      -2.708  77.055 117.626  0.00  0.00    -0.241 OA
ATOM     24  O   LIG d   1      -3.720  77.732 115.842  0.00  0.00    -0.241 OA
ENDBRANCH   3  22
TORSDOF 7
ENDMDL
MODEL 8
REMARK VINA RESULT:      -4.5      2.039      4.337
REMARK  7 active torsions:
REMARK  status: ('A' for Active; 'I' for Inactive)
REMARK    1  A    between atoms: C_2  and  C_3 
REMARK    2  A    between atoms: C_3  and  O_6 
REMARK    3  A    between atoms: C_3  and  C_4 
REMARK    4  A    between atoms: C_7  and  O_6 
REMARK    5  A    between atoms: C_9  and  C_10 
REMARK    6  A    between atoms: N_15  and  C_14 
REMARK    7  A    between atoms: N_20  and  C_19 
REMARK       I    between atoms: C_22  and  N_20 
ROOT
ATOM      1  C   LIG d   1      -4.226  92.130 118.129  0.00  0.00     0.161 C 
ATOM      2  C   LIG d   1      -4.444  90.909 117.469  0.00  0.00     0.016 C 
ATOM      3  C   LIG d   1      -5.570  90.657 116.651  0.00  0.00     0.038 C 
ATOM      4  C   LIG d   1      -6.484  91.667 116.316  0.00  0.00     0.028 C 
ATOM      5  C   LIG d   1      -6.579  92.771 117.364  0.00  0.00    -0.047 C 
ATOM      6  C   LIG d   1      -5.155  93.280 117.686  0.00  0.00     0.091 C 
ENDROOT
BRANCH   1   7
ATOM      7  O   LIG d   1      -2.846  92.520 117.992  0.00  0.00    -0.368 OA
BRANCH   7   8
ATOM      8  C   LIG d   1      -2.065  92.539 119.213  0.00  0.00     0.119 C 
BRANCH   8   9
ATOM      9  C   LIG d   1      -0.832  91.643 118.988  0.00  0.00     0.028 C 
ATOM     10  C   LIG d   1      -0.682  91.208 117.520  0.00  0.00     0.006 C 
ENDBRANCH   8   9
BRANCH   8  11
ATOM     11  C   LIG d   1      -2.829  91.895 120.373  0.00  0.00     0.028 C 
ATOM     12  C   LIG d   1      -2.800  92.747 121.652  0.00  0.00     0.006 C 
ENDBRANCH   8  11
ENDBRANCH   7   8
ENDBRANCH   1   7
BRANCH   6  13
ATOM     13  N   LIG d   1      -5.150  94.303 118.764  0.00  0.00    -0.311 N 
ATOM     14  C   LIG d   1      -5.714  94.116 119.955  0.00  0.00     0.210 C 
ATOM     15  C   LIG d   1      -5.612  95.307 120.914  0.00  0.00     0.109 C 
ATOM     16  O   LIG d   1      -6.263  93.065 120.321  0.00  0.00    -0.276 OA
ATOM     17  H   LIG d   1      -4.699  95.174 118.563  0.00  0.00     0.149 HD
ENDBRANCH   6  13
BRANCH   5  18
ATOM     18  N   LIG d   1      -7.461  93.823 116.824  0.00  0.00     0.381 N 
ATOM     19  H   LIG d   1      -7.247  93.982 115.860  0.00  0.00    -0.090 HD
ATOM     20  H   LIG d   1      -7.295  94.676 117.329  0.00  0.00    -0.090 HD
ATOM     21  H   LIG d   1      -8.414  93.551 116.920  0.00  0.00    -0.090 HD
ENDBRANCH   5  18
BRANCH   3  22
ATOM     22  C   LIG d   1      -5.812  89.371 116.193  0.00  0.00     0.382 C 
ATOM     23  O   LIG d   1      -6.978  88.908 116.208  0.00  0.00    -0.241 OA
ATOM     24  O   LIG d   1      -4.872  88.651 115.805  0.00  0.00    -0.241 OA
ENDBRANCH   3  22
TORSDOF 7
ENDMDL
MODEL 9
REMARK VINA RESULT:      -4.5      2.947      5.687
REMARK  7 active torsions:
REMARK  status: ('A' for Active; 'I' for Inactive)
REMARK    1  A    between atoms: C_2  and  C_3 
REMARK    2  A    between atoms: C_3  and  O_6 
REMARK    3  A    between atoms: C_3  and  C_4 
REMARK    4  A    between atoms: C_7  and  O_6 
REMARK    5  A    between atoms: C_9  and  C_10 
REMARK    6  A    between atoms: N_15  and  C_14 
REMARK    7  A    between atoms: N_20  and  C_19 
REMARK       I    between atoms: C_22  and  N_20 
ROOT
ATOM      1  C   LIG d   1      -2.863  90.342 118.285  0.00  0.00     0.161 C 
ATOM      2  C   LIG d   1      -3.982  89.859 117.586  0.00  0.00     0.016 C 
ATOM      3  C   LIG d   1      -5.059  90.680 117.180  0.00  0.00     0.038 C 
ATOM      4  C   LIG d   1      -5.018  92.076 117.314  0.00  0.00     0.028 C 
ATOM      5  C   LIG d   1      -4.137  92.549 118.465  0.00  0.00    -0.047 C 
ATOM      6  C   LIG d   1      -2.749  91.879 118.342  0.00  0.00     0.091 C 
ENDROOT
BRANCH   1   7
ATOM      7  O   LIG d   1      -1.659  89.771 117.734  0.00  0.00    -0.368 OA
BRANCH   7   8
ATOM      8  C   LIG d   1      -1.123  88.619 118.431  0.00  0.00     0.119 C 
BRANCH   8   9
ATOM      9  C   LIG d   1       0.413  88.730 118.395  0.00  0.00     0.028 C 
ATOM     10  C   LIG d   1       0.936  89.913 119.227  0.00  0.00     0.006 C 
ENDBRANCH   8   9
BRANCH   8  11
ATOM     11  C   LIG d   1      -1.453  87.318 117.694  0.00  0.00     0.028 C 
ATOM     12  C   LIG d   1      -0.255  86.755 116.914  0.00  0.00     0.006 C 
ENDBRANCH   8  11
ENDBRANCH   7   8
ENDBRANCH   1   7
BRANCH   6  13
ATOM     13  N   LIG d   1      -1.852  92.222 119.477  0.00  0.00    -0.311 N 
ATOM     14  C   LIG d   1      -0.987  93.234 119.447  0.00  0.00     0.210 C 
ATOM     15  C   LIG d   1      -0.143  93.401 120.715  0.00  0.00     0.109 C 
ATOM     16  O   LIG d   1      -0.860  94.029 118.503  0.00  0.00    -0.276 OA
ATOM     17  H   LIG d   1      -1.912  91.648 120.295  0.00  0.00     0.149 HD
ENDBRANCH   6  13
BRANCH   5  18
ATOM     18  N   LIG d   1      -4.076  94.022 118.404  0.00  0.00     0.381 N 
ATOM     19  H   LIG d   1      -3.845  94.313 117.475  0.00  0.00    -0.090 HD
ATOM     20  H   LIG d   1      -3.354  94.343 119.025  0.00  0.00    -0.090 HD
ATOM     21  H   LIG d   1      -4.953  94.411 118.673  0.00  0.00    -0.090 HD
ENDBRANCH   5  18
BRANCH   3  22
ATOM     22  C   LIG d   1      -6.210  90.101 116.668  0.00  0.00     0.382 C 
ATOM     23  O   LIG d   1      -6.159  88.960 116.148  0.00  0.00    -0.241 OA
ATOM     24  O   LIG d   1      -7.289  90.723 116.679  0.00  0.00    -0.241 OA
ENDBRANCH   3  22
TORSDOF 7
ENDMDL
