MODEL 1
REMARK VINA RESULT:      -4.9      0.000      0.000
REMARK  7 active torsions:
REMARK  status: ('A' for Active; 'I' for Inactive)
REMARK    1  A    between atoms: C_2  and  C_3 
REMARK    2  A    between atoms: C_3  and  O_6 
REMARK    3  A    between atoms: C_3  and  C_4 
REMARK    4  A    between atoms: C_7  and  O_6 
REMARK    5  A    between atoms: C_9  and  C_10 
REMARK    6  A    between atoms: N_15  and  C_14 
REMARK    7  A    between atoms: N_20  and  C_19 
REMARK       I    between atoms: C_22  and  N_20 
ROOT
ATOM      1  C   LIG d   1      -5.077  92.407 119.235  0.00  0.00     0.161 C 
ATOM      2  C   LIG d   1      -5.388  91.411 118.295  0.00  0.00     0.016 C 
ATOM      3  C   LIG d   1      -6.260  91.618 117.201  0.00  0.00     0.038 C 
ATOM      4  C   LIG d   1      -6.766  92.888 116.887  0.00  0.00     0.028 C 
ATOM      5  C   LIG d   1      -6.884  93.809 118.096  0.00  0.00    -0.047 C 
ATOM      6  C   LIG d   1      -5.532  93.829 118.845  0.00  0.00     0.091 C 
ENDROOT
BRANCH   1   7
ATOM      7  O   LIG d   1      -3.663  92.393 119.514  0.00  0.00    -0.368 OA
BRANCH   7   8
ATOM      8  C   LIG d   1      -2.789  92.246 118.367  0.00  0.00     0.119 C 
BRANCH   8   9
ATOM      9  C   LIG d   1      -1.695  91.229 118.746  0.00  0.00     0.028 C 
ATOM     10  C   LIG d   1      -2.127  89.777 118.486  0.00  0.00     0.006 C 
ENDBRANCH   8   9
BRANCH   8  11
ATOM     11  C   LIG d   1      -2.044  93.549 118.064  0.00  0.00     0.028 C 
ATOM     12  C   LIG d   1      -1.814  94.410 119.316  0.00  0.00     0.006 C 
ENDBRANCH   8  11
ENDBRANCH   7   8
ENDBRANCH   1   7
BRANCH   6  13
ATOM     13  N   LIG d   1      -5.585  94.641 120.089  0.00  0.00    -0.311 N 
ATOM     14  C   LIG d   1      -5.180  95.909 120.154  0.00  0.00     0.210 C 
ATOM     15  C   LIG d   1      -5.303  96.555 121.538  0.00  0.00     0.109 C 
ATOM     16  O   LIG d   1      -4.762  96.568 119.191  0.00  0.00    -0.276 OA
ATOM     17  H   LIG d   1      -5.941  94.194 120.911  0.00  0.00     0.149 HD
ENDBRANCH   6  13
BRANCH   5  18
ATOM     18  N   LIG d   1      -7.292  95.139 117.604  0.00  0.00     0.381 N 
ATOM     19  H   LIG d   1      -8.022  95.040 116.927  0.00  0.00    -0.090 HD
ATOM     20  H   LIG d   1      -6.505  95.577 117.159  0.00  0.00    -0.090 HD
ATOM     21  H   LIG d   1      -7.608  95.701 118.364  0.00  0.00    -0.090 HD
ENDBRANCH   5  18
BRANCH   3  22
ATOM     22  C   LIG d   1      -6.666  90.538 116.433  0.00  0.00     0.382 C 
ATOM     23  O   LIG d   1      -5.811  89.766 115.935  0.00  0.00    -0.241 OA
ATOM     24  O   LIG d   1      -7.874  90.351 116.194  0.00  0.00    -0.241 OA
ENDBRANCH   3  22
TORSDOF 7
ENDMDL
MODEL 2
REMARK VINA RESULT:      -4.9      1.813      2.792
REMARK  7 active torsions:
REMARK  status: ('A' for Active; 'I' for Inactive)
REMARK    1  A    between atoms: C_2  and  C_3 
REMARK    2  A    between atoms: C_3  and  O_6 
REMARK    3  A    between atoms: C_3  and  C_4 
REMARK    4  A    between atoms: C_7  and  O_6 
REMARK    5  A    between atoms: C_9  and  C_10 
REMARK    6  A    between atoms: N_15  and  C_14 
REMARK    7  A    between atoms: N_20  and  C_19 
REMARK       I    between atoms: C_22  and  N_20 
ROOT
ATOM      1  C   LIG d   1      -3.442  91.765 118.177  0.00  0.00     0.161 C 
ATOM      2  C   LIG d   1      -4.301  91.007 117.365  0.00  0.00     0.016 C 
ATOM      3  C   LIG d   1      -5.573  91.458 116.942  0.00  0.00     0.038 C 
ATOM      4  C   LIG d   1      -6.011  92.769 117.181  0.00  0.00     0.028 C 
ATOM      5  C   LIG d   1      -5.393  93.398 118.425  0.00  0.00    -0.047 C 
ATOM      6  C   LIG d   1      -3.856  93.241 118.355  0.00  0.00     0.091 C 
ENDROOT
BRANCH   1   7
ATOM      7  O   LIG d   1      -2.094  91.680 117.676  0.00  0.00    -0.368 OA
BRANCH   7   8
ATOM      8  C   LIG d   1      -1.124  91.061 118.557  0.00  0.00     0.119 C 
BRANCH   8   9
ATOM      9  C   LIG d   1       0.193  91.849 118.422  0.00  0.00     0.028 C 
ATOM     10  C   LIG d   1       0.824  92.176 119.786  0.00  0.00     0.006 C 
ENDBRANCH   8   9
BRANCH   8  11
ATOM     11  C   LIG d   1      -0.792  89.636 118.106  0.00  0.00     0.028 C 
ATOM     12  C   LIG d   1      -1.228  88.571 119.125  0.00  0.00     0.006 C 
ENDBRANCH   8  11
ENDBRANCH   7   8
ENDBRANCH   1   7
BRANCH   6  13
ATOM     13  N   LIG d   1      -3.178  93.755 119.574  0.00  0.00    -0.311 N 
ATOM     14  C   LIG d   1      -2.121  94.564 119.539  0.00  0.00     0.210 C 
ATOM     15  C   LIG d   1      -1.563  94.959 120.910  0.00  0.00     0.109 C 
ATOM     16  O   LIG d   1      -1.612  95.017 118.503  0.00  0.00    -0.276 OA
ATOM     17  H   LIG d   1      -3.546  93.461 120.458  0.00  0.00     0.149 HD
ENDBRANCH   6  13
BRANCH   5  18
ATOM     18  N   LIG d   1      -5.828  94.806 118.476  0.00  0.00     0.381 N 
ATOM     19  H   LIG d   1      -6.007  95.071 119.424  0.00  0.00    -0.090 HD
ATOM     20  H   LIG d   1      -6.683  94.901 117.956  0.00  0.00    -0.090 HD
ATOM     21  H   LIG d   1      -5.126  95.395 118.086  0.00  0.00    -0.090 HD
ENDBRANCH   5  18
BRANCH   3  22
ATOM     22  C   LIG d   1      -6.438  90.580 116.307  0.00  0.00     0.382 C 
ATOM     23  O   LIG d   1      -7.667  90.826 116.272  0.00  0.00    -0.241 OA
ATOM     24  O   LIG d   1      -6.009  89.522 115.807  0.00  0.00    -0.241 OA
ENDBRANCH   3  22
TORSDOF 7
ENDMDL
MODEL 3
REMARK VINA RESULT:      -4.8      2.271      4.301
REMARK  7 active torsions:
REMARK  status: ('A' for Active; 'I' for Inactive)
REMARK    1  A    between atoms: C_2  and  C_3 
REMARK    2  A    between atoms: C_3  and  O_6 
REMARK    3  A    between atoms: C_3  and  C_4 
REMARK    4  A    between atoms: C_7  and  O_6 
REMARK    5  A    between atoms: C_9  and  C_10 
REMARK    6  A    between atoms: N_15  and  C_14 
REMARK    7  A    between atoms: N_20  and  C_19 
REMARK       I    between atoms: C_22  and  N_20 
ROOT
ATOM      1  C   LIG d   1      -6.308  93.678 118.418  0.00  0.00     0.161 C 
ATOM      2  C   LIG d   1      -6.806  92.500 117.837  0.00  0.00     0.016 C 
ATOM      3  C   LIG d   1      -5.979  91.494 117.285  0.00  0.00     0.038 C 
ATOM      4  C   LIG d   1      -4.582  91.530 117.414  0.00  0.00     0.028 C 
ATOM      5  C   LIG d   1      -4.022  92.941 117.546  0.00  0.00    -0.047 C 
ATOM      6  C   LIG d   1      -4.785  93.682 118.668  0.00  0.00     0.091 C 
ENDROOT
BRANCH   1   7
ATOM      7  O   LIG d   1      -7.017  93.956 119.642  0.00  0.00    -0.368 OA
BRANCH   7   8
ATOM      8  C   LIG d   1      -7.940  95.072 119.604  0.00  0.00     0.119 C 
BRANCH   8   9
ATOM      9  C   LIG d   1      -9.367  94.491 119.566  0.00  0.00     0.028 C 
ATOM     10  C   LIG d   1     -10.195  94.887 120.800  0.00  0.00     0.006 C 
ENDBRANCH   8   9
BRANCH   8  11
ATOM     11  C   LIG d   1      -7.794  95.872 118.306  0.00  0.00     0.028 C 
ATOM     12  C   LIG d   1      -7.282  97.302 118.543  0.00  0.00     0.006 C 
ENDBRANCH   8  11
ENDBRANCH   7   8
ENDBRANCH   1   7
BRANCH   6  13
ATOM     13  N   LIG d   1      -4.356  95.098 118.806  0.00  0.00    -0.311 N 
ATOM     14  C   LIG d   1      -3.413  95.498 119.657  0.00  0.00     0.210 C 
ATOM     15  C   LIG d   1      -3.137  97.005 119.655  0.00  0.00     0.109 C 
ATOM     16  O   LIG d   1      -2.755  94.745 120.390  0.00  0.00    -0.276 OA
ATOM     17  H   LIG d   1      -4.816  95.773 118.227  0.00  0.00     0.149 HD
ENDBRANCH   6  13
BRANCH   5  18
ATOM     18  N   LIG d   1      -2.575  92.824 117.812  0.00  0.00     0.381 N 
ATOM     19  H   LIG d   1      -2.200  92.047 117.304  0.00  0.00    -0.090 HD
ATOM     20  H   LIG d   1      -2.437  92.656 118.793  0.00  0.00    -0.090 HD
ATOM     21  H   LIG d   1      -2.110  93.662 117.542  0.00  0.00    -0.090 HD
ENDBRANCH   5  18
BRANCH   3  22
ATOM     22  C   LIG d   1      -6.547  90.458 116.560  0.00  0.00     0.382 C 
ATOM     23  O   LIG d   1      -5.823  89.718 115.851  0.00  0.00    -0.241 OA
ATOM     24  O   LIG d   1      -7.780  90.282 116.571  0.00  0.00    -0.241 OA
ENDBRANCH   3  22
TORSDOF 7
ENDMDL
MODEL 4
REMARK VINA RESULT:      -4.7     33.217     36.150
REMARK  7 active torsions:
REMARK  status: ('A' for Active; 'I' for Inactive)
REMARK    1  A    between atoms: C_2  and  C_3 
REMARK    2  A    between atoms: C_3  and  O_6 
REMARK    3  A    between atoms: C_3  and  C_4 
REMARK    4  A    between atoms: C_7  and  O_6 
REMARK    5  A    between atoms: C_9  and  C_10 
REMARK    6  A    between atoms: N_15  and  C_14 
REMARK    7  A    between atoms: N_20  and  C_19 
REMARK       I    between atoms: C_22  and  N_20 
ROOT
ATOM      1  C   LIG d   1       2.816  58.380 117.874  0.00  0.00     0.161 C 
ATOM      2  C   LIG d   1       2.105  57.480 117.063  0.00  0.00     0.016 C 
ATOM      3  C   LIG d   1       2.116  56.080 117.259  0.00  0.00     0.038 C 
ATOM      4  C   LIG d   1       2.722  55.493 118.379  0.00  0.00     0.028 C 
ATOM      5  C   LIG d   1       3.874  56.316 118.946  0.00  0.00    -0.047 C 
ATOM      6  C   LIG d   1       3.392  57.768 119.168  0.00  0.00     0.091 C 
ENDROOT
BRANCH   1   7
ATOM      7  O   LIG d   1       1.987  59.518 118.184  0.00  0.00    -0.368 OA
BRANCH   7   8
ATOM      8  C   LIG d   1       0.715  59.227 118.815  0.00  0.00     0.119 C 
BRANCH   8   9
ATOM      9  C   LIG d   1      -0.370  60.014 118.055  0.00  0.00     0.028 C 
ATOM     10  C   LIG d   1      -1.256  60.849 118.995  0.00  0.00     0.006 C 
ENDBRANCH   8   9
BRANCH   8  11
ATOM     11  C   LIG d   1       0.671  59.758 120.251  0.00  0.00     0.028 C 
ATOM     12  C   LIG d   1       0.580  58.638 121.299  0.00  0.00     0.006 C 
ENDBRANCH   8  11
ENDBRANCH   7   8
ENDBRANCH   1   7
BRANCH   6  13
ATOM     13  N   LIG d   1       4.482  58.661 119.641  0.00  0.00    -0.311 N 
ATOM     14  C   LIG d   1       4.708  58.923 120.927  0.00  0.00     0.210 C 
ATOM     15  C   LIG d   1       5.869  59.886 121.197  0.00  0.00     0.109 C 
ATOM     16  O   LIG d   1       4.078  58.425 121.872  0.00  0.00    -0.276 OA
ATOM     17  H   LIG d   1       5.062  59.083 118.943  0.00  0.00     0.149 HD
ENDBRANCH   6  13
BRANCH   5  18
ATOM     18  N   LIG d   1       4.323  55.659 120.188  0.00  0.00     0.381 N 
ATOM     19  H   LIG d   1       5.320  55.575 120.185  0.00  0.00    -0.090 HD
ATOM     20  H   LIG d   1       3.928  54.736 120.228  0.00  0.00    -0.090 HD
ATOM     21  H   LIG d   1       4.029  56.189 120.979  0.00  0.00    -0.090 HD
ENDBRANCH   5  18
BRANCH   3  22
ATOM     22  C   LIG d   1       1.550  55.248 116.305  0.00  0.00     0.382 C 
ATOM     23  O   LIG d   1       0.368  55.439 115.929  0.00  0.00    -0.241 OA
ATOM     24  O   LIG d   1       2.190  54.283 115.848  0.00  0.00    -0.241 OA
ENDBRANCH   3  22
TORSDOF 7
ENDMDL
MODEL 5
REMARK VINA RESULT:      -4.6     11.128     13.294
REMARK  7 active torsions:
REMARK  status: ('A' for Active; 'I' for Inactive)
REMARK    1  A    between atoms: C_2  and  C_3 
REMARK    2  A    between atoms: C_3  and  O_6 
REMARK    3  A    between atoms: C_3  and  C_4 
REMARK    4  A    between atoms: C_7  and  O_6 
REMARK    5  A    between atoms: C_9  and  C_10 
REMARK    6  A    between atoms: N_15  and  C_14 
REMARK    7  A    between atoms: N_20  and  C_19 
REMARK       I    between atoms: C_22  and  N_20 
ROOT
ATOM      1  C   LIG d   1      -9.103  80.715 118.725  0.00  0.00     0.161 C 
ATOM      2  C   LIG d   1      -8.223  79.894 118.000  0.00  0.00     0.016 C 
ATOM      3  C   LIG d   1      -6.870  80.226 117.757  0.00  0.00     0.038 C 
ATOM      4  C   LIG d   1      -6.261  81.338 118.356  0.00  0.00     0.028 C 
ATOM      5  C   LIG d   1      -7.239  82.463 118.681  0.00  0.00    -0.047 C 
ATOM      6  C   LIG d   1      -8.427  81.879 119.480  0.00  0.00     0.091 C 
ENDROOT
BRANCH   1   7
ATOM      7  O   LIG d   1      -9.882  79.913 119.634  0.00  0.00    -0.368 OA
BRANCH   7   8
ATOM      8  C   LIG d   1      -9.380  78.581 119.900  0.00  0.00     0.119 C 
BRANCH   8   9
ATOM      9  C   LIG d   1     -10.586  77.622 119.899  0.00  0.00     0.028 C 
ATOM     10  C   LIG d   1     -10.402  76.446 120.872  0.00  0.00     0.006 C 
ENDBRANCH   8   9
BRANCH   8  11
ATOM     11  C   LIG d   1      -8.784  78.481 121.308  0.00  0.00     0.028 C 
ATOM     12  C   LIG d   1      -7.250  78.576 121.314  0.00  0.00     0.006 C 
ENDBRANCH   8  11
ENDBRANCH   7   8
ENDBRANCH   1   7
BRANCH   6  13
ATOM     13  N   LIG d   1      -9.472  82.896 119.766  0.00  0.00    -0.311 N 
ATOM     14  C   LIG d   1      -9.440  83.701 120.827  0.00  0.00     0.210 C 
ATOM     15  C   LIG d   1     -10.627  84.663 120.944  0.00  0.00     0.109 C 
ATOM     16  O   LIG d   1      -8.527  83.731 121.665  0.00  0.00    -0.276 OA
ATOM     17  H   LIG d   1     -10.234  82.961 119.120  0.00  0.00     0.149 HD
ENDBRANCH   6  13
BRANCH   5  18
ATOM     18  N   LIG d   1      -6.496  83.498 119.424  0.00  0.00     0.381 N 
ATOM     19  H   LIG d   1      -7.061  84.319 119.517  0.00  0.00    -0.090 HD
ATOM     20  H   LIG d   1      -5.670  83.740 118.906  0.00  0.00    -0.090 HD
ATOM     21  H   LIG d   1      -6.244  83.157 120.326  0.00  0.00    -0.090 HD
ENDBRANCH   5  18
BRANCH   3  22
ATOM     22  C   LIG d   1      -6.123  79.461 116.875  0.00  0.00     0.382 C 
ATOM     23  O   LIG d   1      -4.958  79.814 116.571  0.00  0.00    -0.241 OA
ATOM     24  O   LIG d   1      -6.615  78.447 116.344  0.00  0.00    -0.241 OA
ENDBRANCH   3  22
TORSDOF 7
ENDMDL
MODEL 6
REMARK VINA RESULT:      -4.5      1.781      2.564
REMARK  7 active torsions:
REMARK  status: ('A' for Active; 'I' for Inactive)
REMARK    1  A    between atoms: C_2  and  C_3 
REMARK    2  A    between atoms: C_3  and  O_6 
REMARK    3  A    between atoms: C_3  and  C_4 
REMARK    4  A    between atoms: C_7  and  O_6 
REMARK    5  A    between atoms: C_9  and  C_10 
REMARK    6  A    between atoms: N_15  and  C_14 
REMARK    7  A    between atoms: N_20  and  C_19 
REMARK       I    between atoms: C_22  and  N_20 
ROOT
ATOM      1  C   LIG d   1      -5.544  93.395 119.485  0.00  0.00     0.161 C 
ATOM      2  C   LIG d   1      -4.976  92.258 118.885  0.00  0.00     0.016 C 
ATOM      3  C   LIG d   1      -5.320  91.810 117.589  0.00  0.00     0.038 C 
ATOM      4  C   LIG d   1      -6.148  92.559 116.740  0.00  0.00     0.028 C 
ATOM      5  C   LIG d   1      -7.136  93.447 117.488  0.00  0.00    -0.047 C 
ATOM      6  C   LIG d   1      -6.366  94.287 118.532  0.00  0.00     0.091 C 
ENDROOT
BRANCH   1   7
ATOM      7  O   LIG d   1      -4.516  94.169 120.134  0.00  0.00    -0.368 OA
BRANCH   7   8
ATOM      8  C   LIG d   1      -3.801  95.110 119.295  0.00  0.00     0.119 C 
BRANCH   8   9
ATOM      9  C   LIG d   1      -2.314  94.704 119.308  0.00  0.00     0.028 C 
ATOM     10  C   LIG d   1      -1.826  94.220 117.932  0.00  0.00     0.006 C 
ENDBRANCH   8   9
BRANCH   8  11
ATOM     11  C   LIG d   1      -3.841  96.523 119.884  0.00  0.00     0.028 C 
ATOM     12  C   LIG d   1      -3.547  97.612 118.840  0.00  0.00     0.006 C 
ENDBRANCH   8  11
ENDBRANCH   7   8
ENDBRANCH   1   7
BRANCH   6  13
ATOM     13  N   LIG d   1      -7.269  95.123 119.365  0.00  0.00    -0.311 N 
ATOM     14  C   LIG d   1      -7.558  96.392 119.086  0.00  0.00     0.210 C 
ATOM     15  C   LIG d   1      -8.495  97.077 120.087  0.00  0.00     0.109 C 
ATOM     16  O   LIG d   1      -7.154  97.007 118.088  0.00  0.00    -0.276 OA
ATOM     17  H   LIG d   1      -7.666  94.694 120.178  0.00  0.00     0.149 HD
ENDBRANCH   6  13
BRANCH   5  18
ATOM     18  N   LIG d   1      -7.840  94.272 116.487  0.00  0.00     0.381 N 
ATOM     19  H   LIG d   1      -8.319  95.022 116.943  0.00  0.00    -0.090 HD
ATOM     20  H   LIG d   1      -8.521  93.702 116.017  0.00  0.00    -0.090 HD
ATOM     21  H   LIG d   1      -7.188  94.637 115.827  0.00  0.00    -0.090 HD
ENDBRANCH   5  18
BRANCH   3  22
ATOM     22  C   LIG d   1      -4.863  90.578 117.144  0.00  0.00     0.382 C 
ATOM     23  O   LIG d   1      -3.909  90.014 117.732  0.00  0.00    -0.241 OA
ATOM     24  O   LIG d   1      -5.364  90.045 116.136  0.00  0.00    -0.241 OA
ENDBRANCH   3  22
TORSDOF 7
ENDMDL
MODEL 7
REMARK VINA RESULT:      -4.3      2.225      4.503
REMARK  7 active torsions:
REMARK  status: ('A' for Active; 'I' for Inactive)
REMARK    1  A    between atoms: C_2  and  C_3 
REMARK    2  A    between atoms: C_3  and  O_6 
REMARK    3  A    between atoms: C_3  and  C_4 
REMARK    4  A    between atoms: C_7  and  O_6 
REMARK    5  A    between atoms: C_9  and  C_10 
REMARK    6  A    between atoms: N_15  and  C_14 
REMARK    7  A    between atoms: N_20  and  C_19 
REMARK       I    between atoms: C_22  and  N_20 
ROOT
ATOM      1  C   LIG d   1      -3.909  93.385 118.112  0.00  0.00     0.161 C 
ATOM      2  C   LIG d   1      -4.971  92.803 117.399  0.00  0.00     0.016 C 
ATOM      3  C   LIG d   1      -5.155  91.407 117.278  0.00  0.00     0.038 C 
ATOM      4  C   LIG d   1      -4.370  90.491 117.994  0.00  0.00     0.028 C 
ATOM      5  C   LIG d   1      -2.976  91.015 118.323  0.00  0.00    -0.047 C 
ATOM      6  C   LIG d   1      -3.107  92.403 118.992  0.00  0.00     0.091 C 
ENDROOT
BRANCH   1   7
ATOM      7  O   LIG d   1      -4.398  94.484 118.906  0.00  0.00    -0.368 OA
BRANCH   7   8
ATOM      8  C   LIG d   1      -5.785  94.406 119.317  0.00  0.00     0.119 C 
BRANCH   8   9
ATOM      9  C   LIG d   1      -6.363  95.834 119.267  0.00  0.00     0.028 C 
ATOM     10  C   LIG d   1      -5.284  96.911 119.464  0.00  0.00     0.006 C 
ENDBRANCH   8   9
BRANCH   8  11
ATOM     11  C   LIG d   1      -5.909  93.970 120.780  0.00  0.00     0.028 C 
ATOM     12  C   LIG d   1      -6.358  92.508 120.929  0.00  0.00     0.006 C 
ENDBRANCH   8  11
ENDBRANCH   7   8
ENDBRANCH   1   7
BRANCH   6  13
ATOM     13  N   LIG d   1      -1.786  93.025 119.270  0.00  0.00    -0.311 N 
ATOM     14  C   LIG d   1      -1.151  92.907 120.435  0.00  0.00     0.210 C 
ATOM     15  C   LIG d   1       0.189  93.644 120.518  0.00  0.00     0.109 C 
ATOM     16  O   LIG d   1      -1.556  92.236 121.396  0.00  0.00    -0.276 OA
ATOM     17  H   LIG d   1      -1.371  93.562 118.534  0.00  0.00     0.149 HD
ENDBRANCH   6  13
BRANCH   5  18
ATOM     18  N   LIG d   1      -2.317  90.017 119.187  0.00  0.00     0.381 N 
ATOM     19  H   LIG d   1      -2.984  89.333 119.484  0.00  0.00    -0.090 HD
ATOM     20  H   LIG d   1      -1.956  90.481 120.002  0.00  0.00    -0.090 HD
ATOM     21  H   LIG d   1      -1.575  89.575 118.691  0.00  0.00    -0.090 HD
ENDBRANCH   5  18
BRANCH   3  22
ATOM     22  C   LIG d   1      -6.109  90.912 116.402  0.00  0.00     0.382 C 
ATOM     23  O   LIG d   1      -7.159  91.565 116.186  0.00  0.00    -0.241 OA
ATOM     24  O   LIG d   1      -5.954  89.802 115.860  0.00  0.00    -0.241 OA
ENDBRANCH   3  22
TORSDOF 7
ENDMDL
MODEL 8
REMARK VINA RESULT:      -4.2      3.976      6.944
REMARK  7 active torsions:
REMARK  status: ('A' for Active; 'I' for Inactive)
REMARK    1  A    between atoms: C_2  and  C_3 
REMARK    2  A    between atoms: C_3  and  O_6 
REMARK    3  A    between atoms: C_3  and  C_4 
REMARK    4  A    between atoms: C_7  and  O_6 
REMARK    5  A    between atoms: C_9  and  C_10 
REMARK    6  A    between atoms: N_15  and  C_14 
REMARK    7  A    between atoms: N_20  and  C_19 
REMARK       I    between atoms: C_22  and  N_20 
ROOT
ATOM      1  C   LIG d   1      -0.049  90.193 117.366  0.00  0.00     0.161 C 
ATOM      2  C   LIG d   1       1.311  90.464 117.588  0.00  0.00     0.016 C 
ATOM      3  C   LIG d   1       1.780  91.655 118.189  0.00  0.00     0.038 C 
ATOM      4  C   LIG d   1       0.904  92.597 118.749  0.00  0.00     0.028 C 
ATOM      5  C   LIG d   1      -0.475  92.604 118.098  0.00  0.00    -0.047 C 
ATOM      6  C   LIG d   1      -1.024  91.159 118.071  0.00  0.00     0.091 C 
ENDROOT
BRANCH   1   7
ATOM      7  O   LIG d   1      -0.342  88.830 117.732  0.00  0.00    -0.368 OA
BRANCH   7   8
ATOM      8  C   LIG d   1      -0.377  88.545 119.152  0.00  0.00     0.119 C 
BRANCH   8   9
ATOM      9  C   LIG d   1       0.631  87.411 119.422  0.00  0.00     0.028 C 
ATOM     10  C   LIG d   1       0.015  86.017 119.212  0.00  0.00     0.006 C 
ENDBRANCH   8   9
BRANCH   8  11
ATOM     11  C   LIG d   1      -1.739  87.986 119.575  0.00  0.00     0.028 C 
ATOM     12  C   LIG d   1      -2.230  88.560 120.913  0.00  0.00     0.006 C 
ENDBRANCH   8  11
ENDBRANCH   7   8
ENDBRANCH   1   7
BRANCH   6  13
ATOM     13  N   LIG d   1      -2.334  91.064 117.375  0.00  0.00    -0.311 N 
ATOM     14  C   LIG d   1      -3.505  91.107 118.008  0.00  0.00     0.210 C 
ATOM     15  C   LIG d   1      -4.734  90.971 117.103  0.00  0.00     0.109 C 
ATOM     16  O   LIG d   1      -3.644  91.277 119.229  0.00  0.00    -0.276 OA
ATOM     17  H   LIG d   1      -2.315  90.955 116.380  0.00  0.00     0.149 HD
ENDBRANCH   6  13
BRANCH   5  18
ATOM     18  N   LIG d   1      -1.326  93.531 118.868  0.00  0.00     0.381 N 
ATOM     19  H   LIG d   1      -2.271  93.204 118.866  0.00  0.00    -0.090 HD
ATOM     20  H   LIG d   1      -1.304  94.434 118.427  0.00  0.00    -0.090 HD
ATOM     21  H   LIG d   1      -0.993  93.603 119.804  0.00  0.00    -0.090 HD
ENDBRANCH   5  18
BRANCH   3  22
ATOM     22  C   LIG d   1       3.138  91.932 118.197  0.00  0.00     0.382 C 
ATOM     23  O   LIG d   1       3.814  91.724 119.233  0.00  0.00    -0.241 OA
ATOM     24  O   LIG d   1       3.688  92.429 117.196  0.00  0.00    -0.241 OA
ENDBRANCH   3  22
TORSDOF 7
ENDMDL
MODEL 9
REMARK VINA RESULT:      -4.2     33.385     35.401
REMARK  7 active torsions:
REMARK  status: ('A' for Active; 'I' for Inactive)
REMARK    1  A    between atoms: C_2  and  C_3 
REMARK    2  A    between atoms: C_3  and  O_6 
REMARK    3  A    between atoms: C_3  and  C_4 
REMARK    4  A    between atoms: C_7  and  O_6 
REMARK    5  A    between atoms: C_9  and  C_10 
REMARK    6  A    between atoms: N_15  and  C_14 
REMARK    7  A    between atoms: N_20  and  C_19 
REMARK       I    between atoms: C_22  and  N_20 
ROOT
ATOM      1  C   LIG d   1       3.272  59.338 119.671  0.00  0.00     0.161 C 
ATOM      2  C   LIG d   1       3.992  60.387 119.076  0.00  0.00     0.016 C 
ATOM      3  C   LIG d   1       5.391  60.546 119.212  0.00  0.00     0.038 C 
ATOM      4  C   LIG d   1       6.190  59.574 119.833  0.00  0.00     0.028 C 
ATOM      5  C   LIG d   1       5.445  58.758 120.883  0.00  0.00    -0.047 C 
ATOM      6  C   LIG d   1       4.141  58.208 120.260  0.00  0.00     0.091 C 
ENDROOT
BRANCH   1   7
ATOM      7  O   LIG d   1       2.322  58.801 118.729  0.00  0.00    -0.368 OA
BRANCH   7   8
ATOM      8  C   LIG d   1       0.924  58.961 119.072  0.00  0.00     0.119 C 
BRANCH   8   9
ATOM      9  C   LIG d   1       0.283  59.861 117.997  0.00  0.00     0.028 C 
ATOM     10  C   LIG d   1       0.254  59.192 116.613  0.00  0.00     0.006 C 
ENDBRANCH   8   9
BRANCH   8  11
ATOM     11  C   LIG d   1       0.757  59.723 120.390  0.00  0.00     0.028 C 
ATOM     12  C   LIG d   1      -0.108  58.965 121.410  0.00  0.00     0.006 C 
ENDBRANCH   8  11
ENDBRANCH   7   8
ENDBRANCH   1   7
BRANCH   6  13
ATOM     13  N   LIG d   1       3.310  57.467 121.244  0.00  0.00    -0.311 N 
ATOM     14  C   LIG d   1       2.764  56.279 120.995  0.00  0.00     0.210 C 
ATOM     15  C   LIG d   1       1.927  55.699 122.140  0.00  0.00     0.109 C 
ATOM     16  O   LIG d   1       2.918  55.635 119.946  0.00  0.00    -0.276 OA
ATOM     17  H   LIG d   1       3.160  57.903 122.133  0.00  0.00     0.149 HD
ENDBRANCH   6  13
BRANCH   5  18
ATOM     18  N   LIG d   1       6.355  57.695 121.350  0.00  0.00     0.381 N 
ATOM     19  H   LIG d   1       6.079  56.817 120.960  0.00  0.00    -0.090 HD
ATOM     20  H   LIG d   1       6.292  57.630 122.351  0.00  0.00    -0.090 HD
ATOM     21  H   LIG d   1       7.291  57.906 121.082  0.00  0.00    -0.090 HD
ENDBRANCH   5  18
BRANCH   3  22
ATOM     22  C   LIG d   1       5.998  61.706 118.758  0.00  0.00     0.382 C 
ATOM     23  O   LIG d   1       5.548  62.826 119.103  0.00  0.00    -0.241 OA
ATOM     24  O   LIG d   1       6.963  61.649 117.973  0.00  0.00    -0.241 OA
ENDBRANCH   3  22
TORSDOF 7
ENDMDL
