MODEL 1
REMARK VINA RESULT:      -5.2      0.000      0.000
REMARK  7 active torsions:
REMARK  status: ('A' for Active; 'I' for Inactive)
REMARK    1  A    between atoms: C_2  and  C_3 
REMARK    2  A    between atoms: C_3  and  O_6 
REMARK    3  A    between atoms: C_3  and  C_4 
REMARK    4  A    between atoms: C_7  and  O_6 
REMARK    5  A    between atoms: C_9  and  C_10 
REMARK    6  A    between atoms: N_15  and  C_14 
REMARK    7  A    between atoms: N_20  and  C_19 
REMARK       I    between atoms: C_22  and  N_20 
ROOT
ATOM      1  C   LIG d   1      -1.006  59.485 118.385  0.00  0.00     0.161 C 
ATOM      2  C   LIG d   1       0.370  59.615 118.637  0.00  0.00     0.016 C 
ATOM      3  C   LIG d   1       0.902  60.466 119.633  0.00  0.00     0.038 C 
ATOM      4  C   LIG d   1       0.080  61.136 120.552  0.00  0.00     0.028 C 
ATOM      5  C   LIG d   1      -1.316  61.430 120.014  0.00  0.00    -0.047 C 
ATOM      6  C   LIG d   1      -1.922  60.124 119.450  0.00  0.00     0.091 C 
ENDROOT
BRANCH   1   7
ATOM      7  O   LIG d   1      -1.341  58.095 118.204  0.00  0.00    -0.368 OA
BRANCH   7   8
ATOM      8  C   LIG d   1      -1.232  57.255 119.380  0.00  0.00     0.119 C 
BRANCH   8   9
ATOM      9  C   LIG d   1      -0.484  55.974 118.965  0.00  0.00     0.028 C 
ATOM     10  C   LIG d   1      -0.183  55.932 117.457  0.00  0.00     0.006 C 
ENDBRANCH   8   9
BRANCH   8  11
ATOM     11  C   LIG d   1      -2.609  56.785 119.858  0.00  0.00     0.028 C 
ATOM     12  C   LIG d   1      -3.641  56.709 118.722  0.00  0.00     0.006 C 
ENDBRANCH   8  11
ENDBRANCH   7   8
ENDBRANCH   1   7
BRANCH   6  13
ATOM     13  N   LIG d   1      -3.254  60.340 118.827  0.00  0.00    -0.311 N 
ATOM     14  C   LIG d   1      -4.403  60.175 119.479  0.00  0.00     0.210 C 
ATOM     15  C   LIG d   1      -5.662  60.430 118.645  0.00  0.00     0.109 C 
ATOM     16  O   LIG d   1      -4.499  59.873 120.679  0.00  0.00    -0.276 OA
ATOM     17  H   LIG d   1      -3.268  60.617 117.865  0.00  0.00     0.149 HD
ENDBRANCH   6  13
BRANCH   5  18
ATOM     18  N   LIG d   1      -2.107  62.005 121.118  0.00  0.00     0.381 N 
ATOM     19  H   LIG d   1      -2.045  63.003 121.095  0.00  0.00    -0.090 HD
ATOM     20  H   LIG d   1      -1.728  61.685 121.991  0.00  0.00    -0.090 HD
ATOM     21  H   LIG d   1      -3.060  61.723 121.038  0.00  0.00    -0.090 HD
ENDBRANCH   5  18
BRANCH   3  22
ATOM     22  C   LIG d   1       2.270  60.684 119.692  0.00  0.00     0.382 C 
ATOM     23  O   LIG d   1       2.910  60.377 120.726  0.00  0.00    -0.241 OA
ATOM     24  O   LIG d   1       2.865  61.225 118.740  0.00  0.00    -0.241 OA
ENDBRANCH   3  22
TORSDOF 7
ENDMDL
MODEL 2
REMARK VINA RESULT:      -5.1      2.961      4.728
REMARK  7 active torsions:
REMARK  status: ('A' for Active; 'I' for Inactive)
REMARK    1  A    between atoms: C_2  and  C_3 
REMARK    2  A    between atoms: C_3  and  O_6 
REMARK    3  A    between atoms: C_3  and  C_4 
REMARK    4  A    between atoms: C_7  and  O_6 
REMARK    5  A    between atoms: C_9  and  C_10 
REMARK    6  A    between atoms: N_15  and  C_14 
REMARK    7  A    between atoms: N_20  and  C_19 
REMARK       I    between atoms: C_22  and  N_20 
ROOT
ATOM      1  C   LIG d   1      -0.174  58.270 120.187  0.00  0.00     0.161 C 
ATOM      2  C   LIG d   1      -0.928  59.430 120.430  0.00  0.00     0.016 C 
ATOM      3  C   LIG d   1      -0.462  60.735 120.145  0.00  0.00     0.038 C 
ATOM      4  C   LIG d   1       0.738  60.959 119.453  0.00  0.00     0.028 C 
ATOM      5  C   LIG d   1       1.762  59.845 119.641  0.00  0.00    -0.047 C 
ATOM      6  C   LIG d   1       1.091  58.488 119.330  0.00  0.00     0.091 C 
ENDROOT
BRANCH   1   7
ATOM      7  O   LIG d   1      -1.012  57.258 119.594  0.00  0.00    -0.368 OA
BRANCH   7   8
ATOM      8  C   LIG d   1      -2.074  57.736 118.731  0.00  0.00     0.119 C 
BRANCH   8   9
ATOM      9  C   LIG d   1      -3.203  56.688 118.764  0.00  0.00     0.028 C 
ATOM     10  C   LIG d   1      -4.539  57.280 119.246  0.00  0.00     0.006 C 
ENDBRANCH   8   9
BRANCH   8  11
ATOM     11  C   LIG d   1      -1.620  57.796 117.269  0.00  0.00     0.028 C 
ATOM     12  C   LIG d   1      -1.494  59.234 116.744  0.00  0.00     0.006 C 
ENDBRANCH   8  11
ENDBRANCH   7   8
ENDBRANCH   1   7
BRANCH   6  13
ATOM     13  N   LIG d   1       2.000  57.337 119.570  0.00  0.00    -0.311 N 
ATOM     14  C   LIG d   1       2.019  56.246 118.808  0.00  0.00     0.210 C 
ATOM     15  C   LIG d   1       3.019  55.170 119.242  0.00  0.00     0.109 C 
ATOM     16  O   LIG d   1       1.324  56.080 117.793  0.00  0.00    -0.276 OA
ATOM     17  H   LIG d   1       2.620  57.402 120.354  0.00  0.00     0.149 HD
ENDBRANCH   6  13
BRANCH   5  18
ATOM     18  N   LIG d   1       2.907  60.140 118.758  0.00  0.00     0.381 N 
ATOM     19  H   LIG d   1       2.752  61.004 118.279  0.00  0.00    -0.090 HD
ATOM     20  H   LIG d   1       2.985  59.409 118.073  0.00  0.00    -0.090 HD
ATOM     21  H   LIG d   1       3.745  60.194 119.294  0.00  0.00    -0.090 HD
ENDBRANCH   5  18
BRANCH   3  22
ATOM     22  C   LIG d   1      -1.181  61.834 120.590  0.00  0.00     0.382 C 
ATOM     23  O   LIG d   1      -0.951  62.316 121.725  0.00  0.00    -0.241 OA
ATOM     24  O   LIG d   1      -2.087  62.321 119.888  0.00  0.00    -0.241 OA
ENDBRANCH   3  22
TORSDOF 7
ENDMDL
MODEL 3
REMARK VINA RESULT:      -4.8     31.357     33.418
REMARK  7 active torsions:
REMARK  status: ('A' for Active; 'I' for Inactive)
REMARK    1  A    between atoms: C_2  and  C_3 
REMARK    2  A    between atoms: C_3  and  O_6 
REMARK    3  A    between atoms: C_3  and  C_4 
REMARK    4  A    between atoms: C_7  and  O_6 
REMARK    5  A    between atoms: C_9  and  C_10 
REMARK    6  A    between atoms: N_15  and  C_14 
REMARK    7  A    between atoms: N_20  and  C_19 
REMARK       I    between atoms: C_22  and  N_20 
ROOT
ATOM      1  C   LIG d   1      -4.652  91.684 119.333  0.00  0.00     0.161 C 
ATOM      2  C   LIG d   1      -5.024  90.664 118.441  0.00  0.00     0.016 C 
ATOM      3  C   LIG d   1      -5.885  90.870 117.339  0.00  0.00     0.038 C 
ATOM      4  C   LIG d   1      -6.316  92.151 116.964  0.00  0.00     0.028 C 
ATOM      5  C   LIG d   1      -6.375  93.135 118.128  0.00  0.00    -0.047 C 
ATOM      6  C   LIG d   1      -5.022  93.110 118.875  0.00  0.00     0.091 C 
ENDROOT
BRANCH   1   7
ATOM      7  O   LIG d   1      -3.240  91.598 119.611  0.00  0.00    -0.368 OA
BRANCH   7   8
ATOM      8  C   LIG d   1      -2.353  91.871 118.499  0.00  0.00     0.119 C 
BRANCH   8   9
ATOM      9  C   LIG d   1      -1.318  90.731 118.441  0.00  0.00     0.028 C 
ATOM     10  C   LIG d   1      -1.542  89.795 117.241  0.00  0.00     0.006 C 
ENDBRANCH   8   9
BRANCH   8  11
ATOM     11  C   LIG d   1      -1.538  93.146 118.735  0.00  0.00     0.028 C 
ATOM     12  C   LIG d   1      -1.065  93.802 117.428  0.00  0.00     0.006 C 
ENDBRANCH   8  11
ENDBRANCH   7   8
ENDBRANCH   1   7
BRANCH   6  13
ATOM     13  N   LIG d   1      -5.023  93.983 120.078  0.00  0.00    -0.311 N 
ATOM     14  C   LIG d   1      -4.526  95.218 120.089  0.00  0.00     0.210 C 
ATOM     15  C   LIG d   1      -4.609  95.937 121.438  0.00  0.00     0.109 C 
ATOM     16  O   LIG d   1      -4.053  95.798 119.100  0.00  0.00    -0.276 OA
ATOM     17  H   LIG d   1      -5.417  93.602 120.917  0.00  0.00     0.149 HD
ENDBRANCH   6  13
BRANCH   5  18
ATOM     18  N   LIG d   1      -6.705  94.462 117.573  0.00  0.00     0.381 N 
ATOM     19  H   LIG d   1      -7.022  94.365 116.629  0.00  0.00    -0.090 HD
ATOM     20  H   LIG d   1      -5.876  95.029 117.571  0.00  0.00    -0.090 HD
ATOM     21  H   LIG d   1      -7.412  94.896 118.125  0.00  0.00    -0.090 HD
ENDBRANCH   5  18
BRANCH   3  22
ATOM     22  C   LIG d   1      -6.357  89.780 116.623  0.00  0.00     0.382 C 
ATOM     23  O   LIG d   1      -7.536  89.384 116.790  0.00  0.00    -0.241 OA
ATOM     24  O   LIG d   1      -5.606  89.162 115.846  0.00  0.00    -0.241 OA
ENDBRANCH   3  22
TORSDOF 7
ENDMDL
MODEL 4
REMARK VINA RESULT:      -4.8     29.143     31.243
REMARK  7 active torsions:
REMARK  status: ('A' for Active; 'I' for Inactive)
REMARK    1  A    between atoms: C_2  and  C_3 
REMARK    2  A    between atoms: C_3  and  O_6 
REMARK    3  A    between atoms: C_3  and  C_4 
REMARK    4  A    between atoms: C_7  and  O_6 
REMARK    5  A    between atoms: C_9  and  C_10 
REMARK    6  A    between atoms: N_15  and  C_14 
REMARK    7  A    between atoms: N_20  and  C_19 
REMARK       I    between atoms: C_22  and  N_20 
ROOT
ATOM      1  C   LIG d   1      -2.451  89.873 117.638  0.00  0.00     0.161 C 
ATOM      2  C   LIG d   1      -3.707  89.661 117.047  0.00  0.00     0.016 C 
ATOM      3  C   LIG d   1      -4.669  90.683 116.875  0.00  0.00     0.038 C 
ATOM      4  C   LIG d   1      -4.378  92.028 117.149  0.00  0.00     0.028 C 
ATOM      5  C   LIG d   1      -3.305  92.211 118.217  0.00  0.00    -0.047 C 
ATOM      6  C   LIG d   1      -2.073  91.355 117.841  0.00  0.00     0.091 C 
ENDROOT
BRANCH   1   7
ATOM      7  O   LIG d   1      -1.431  89.196 116.876  0.00  0.00    -0.368 OA
BRANCH   7   8
ATOM      8  C   LIG d   1      -1.145  87.830 117.266  0.00  0.00     0.119 C 
BRANCH   8   9
ATOM      9  C   LIG d   1      -1.142  87.780 118.806  0.00  0.00     0.028 C 
ATOM     10  C   LIG d   1       0.264  87.976 119.397  0.00  0.00     0.006 C 
ENDBRANCH   8   9
BRANCH   8  11
ATOM     11  C   LIG d   1       0.267  87.414 116.844  0.00  0.00     0.028 C 
ATOM     12  C   LIG d   1       0.269  86.281 115.805  0.00  0.00     0.006 C 
ENDBRANCH   8  11
ENDBRANCH   7   8
ENDBRANCH   1   7
BRANCH   6  13
ATOM     13  N   LIG d   1      -1.008  91.410 118.877  0.00  0.00    -0.311 N 
ATOM     14  C   LIG d   1       0.249  91.768 118.617  0.00  0.00     0.210 C 
ATOM     15  C   LIG d   1       1.192  91.738 119.824  0.00  0.00     0.109 C 
ATOM     16  O   LIG d   1       0.664  92.137 117.509  0.00  0.00    -0.276 OA
ATOM     17  H   LIG d   1      -1.266  91.156 119.810  0.00  0.00     0.149 HD
ENDBRANCH   6  13
BRANCH   5  18
ATOM     18  N   LIG d   1      -3.003  93.652 118.303  0.00  0.00     0.381 N 
ATOM     19  H   LIG d   1      -3.292  94.110 117.462  0.00  0.00    -0.090 HD
ATOM     20  H   LIG d   1      -2.010  93.771 118.402  0.00  0.00    -0.090 HD
ATOM     21  H   LIG d   1      -3.472  94.052 119.085  0.00  0.00    -0.090 HD
ENDBRANCH   5  18
BRANCH   3  22
ATOM     22  C   LIG d   1      -5.952  90.357 116.463  0.00  0.00     0.382 C 
ATOM     23  O   LIG d   1      -6.238  89.168 116.187  0.00  0.00    -0.241 OA
ATOM     24  O   LIG d   1      -6.814  91.245 116.320  0.00  0.00    -0.241 OA
ENDBRANCH   3  22
TORSDOF 7
ENDMDL
MODEL 5
REMARK VINA RESULT:      -4.6     32.098     34.239
REMARK  7 active torsions:
REMARK  status: ('A' for Active; 'I' for Inactive)
REMARK    1  A    between atoms: C_2  and  C_3 
REMARK    2  A    between atoms: C_3  and  O_6 
REMARK    3  A    between atoms: C_3  and  C_4 
REMARK    4  A    between atoms: C_7  and  O_6 
REMARK    5  A    between atoms: C_9  and  C_10 
REMARK    6  A    between atoms: N_15  and  C_14 
REMARK    7  A    between atoms: N_20  and  C_19 
REMARK       I    between atoms: C_22  and  N_20 
ROOT
ATOM      1  C   LIG d   1      -5.584  93.063 118.344  0.00  0.00     0.161 C 
ATOM      2  C   LIG d   1      -6.272  91.933 117.873  0.00  0.00     0.016 C 
ATOM      3  C   LIG d   1      -5.624  90.780 117.373  0.00  0.00     0.038 C 
ATOM      4  C   LIG d   1      -4.233  90.619 117.451  0.00  0.00     0.028 C 
ATOM      5  C   LIG d   1      -3.469  91.939 117.454  0.00  0.00    -0.047 C 
ATOM      6  C   LIG d   1      -4.067  92.862 118.540  0.00  0.00     0.091 C 
ENDROOT
BRANCH   1   7
ATOM      7  O   LIG d   1      -6.190  93.530 119.566  0.00  0.00    -0.368 OA
BRANCH   7   8
ATOM      8  C   LIG d   1      -7.503  94.129 119.438  0.00  0.00     0.119 C 
BRANCH   8   9
ATOM      9  C   LIG d   1      -7.301  95.611 119.067  0.00  0.00     0.028 C 
ATOM     10  C   LIG d   1      -6.307  96.320 120.001  0.00  0.00     0.006 C 
ENDBRANCH   8   9
BRANCH   8  11
ATOM     11  C   LIG d   1      -8.241  94.144 120.780  0.00  0.00     0.028 C 
ATOM     12  C   LIG d   1      -9.763  94.286 120.621  0.00  0.00     0.006 C 
ENDBRANCH   8  11
ENDBRANCH   7   8
ENDBRANCH   1   7
BRANCH   6  13
ATOM     13  N   LIG d   1      -3.433  94.206 118.554  0.00  0.00    -0.311 N 
ATOM     14  C   LIG d   1      -2.841  94.727 119.627  0.00  0.00     0.210 C 
ATOM     15  C   LIG d   1      -2.269  96.134 119.432  0.00  0.00     0.109 C 
ATOM     16  O   LIG d   1      -2.707  94.144 120.714  0.00  0.00    -0.276 OA
ATOM     17  H   LIG d   1      -3.468  94.736 117.705  0.00  0.00     0.149 HD
ENDBRANCH   6  13
BRANCH   5  18
ATOM     18  N   LIG d   1      -2.045  91.630 117.678  0.00  0.00     0.381 N 
ATOM     19  H   LIG d   1      -1.924  91.229 118.586  0.00  0.00    -0.090 HD
ATOM     20  H   LIG d   1      -1.516  92.484 117.637  0.00  0.00    -0.090 HD
ATOM     21  H   LIG d   1      -1.720  90.996 116.981  0.00  0.00    -0.090 HD
ENDBRANCH   5  18
BRANCH   3  22
ATOM     22  C   LIG d   1      -6.368  89.789 116.750  0.00  0.00     0.382 C 
ATOM     23  O   LIG d   1      -5.867  89.128 115.809  0.00  0.00    -0.241 OA
ATOM     24  O   LIG d   1      -7.548  89.579 117.088  0.00  0.00    -0.241 OA
ENDBRANCH   3  22
TORSDOF 7
ENDMDL
MODEL 6
REMARK VINA RESULT:      -4.5     31.466     33.490
REMARK  7 active torsions:
REMARK  status: ('A' for Active; 'I' for Inactive)
REMARK    1  A    between atoms: C_2  and  C_3 
REMARK    2  A    between atoms: C_3  and  O_6 
REMARK    3  A    between atoms: C_3  and  C_4 
REMARK    4  A    between atoms: C_7  and  O_6 
REMARK    5  A    between atoms: C_9  and  C_10 
REMARK    6  A    between atoms: N_15  and  C_14 
REMARK    7  A    between atoms: N_20  and  C_19 
REMARK       I    between atoms: C_22  and  N_20 
ROOT
ATOM      1  C   LIG d   1      -3.079  92.736 119.393  0.00  0.00     0.161 C 
ATOM      2  C   LIG d   1      -2.854  94.114 119.232  0.00  0.00     0.016 C 
ATOM      3  C   LIG d   1      -1.898  94.647 118.338  0.00  0.00     0.038 C 
ATOM      4  C   LIG d   1      -1.203  93.838 117.426  0.00  0.00     0.028 C 
ATOM      5  C   LIG d   1      -1.031  92.399 117.902  0.00  0.00    -0.047 C 
ATOM      6  C   LIG d   1      -2.409  91.843 118.327  0.00  0.00     0.091 C 
ENDROOT
BRANCH   1   7
ATOM      7  O   LIG d   1      -4.495  92.476 119.447  0.00  0.00    -0.368 OA
BRANCH   7   8
ATOM      8  C   LIG d   1      -5.159  92.293 118.172  0.00  0.00     0.119 C 
BRANCH   8   9
ATOM      9  C   LIG d   1      -6.257  93.369 118.063  0.00  0.00     0.028 C 
ATOM     10  C   LIG d   1      -6.768  93.826 119.440  0.00  0.00     0.006 C 
ENDBRANCH   8   9
BRANCH   8  11
ATOM     11  C   LIG d   1      -5.897  90.952 118.114  0.00  0.00     0.028 C 
ATOM     12  C   LIG d   1      -6.268  90.538 116.682  0.00  0.00     0.006 C 
ENDBRANCH   8  11
ENDBRANCH   7   8
ENDBRANCH   1   7
BRANCH   6  13
ATOM     13  N   LIG d   1      -2.318  90.469 118.885  0.00  0.00    -0.311 N 
ATOM     14  C   LIG d   1      -2.568  89.371 118.174  0.00  0.00     0.210 C 
ATOM     15  C   LIG d   1      -2.435  88.055 118.947  0.00  0.00     0.109 C 
ATOM     16  O   LIG d   1      -2.855  89.360 116.967  0.00  0.00    -0.276 OA
ATOM     17  H   LIG d   1      -2.061  90.384 119.849  0.00  0.00     0.149 HD
ENDBRANCH   6  13
BRANCH   5  18
ATOM     18  N   LIG d   1      -0.415  91.636 116.800  0.00  0.00     0.381 N 
ATOM     19  H   LIG d   1       0.504  91.987 116.618  0.00  0.00    -0.090 HD
ATOM     20  H   LIG d   1      -0.969  91.757 115.971  0.00  0.00    -0.090 HD
ATOM     21  H   LIG d   1      -0.368  90.670 117.039  0.00  0.00    -0.090 HD
ENDBRANCH   5  18
BRANCH   3  22
ATOM     22  C   LIG d   1      -1.600  96.001 118.377  0.00  0.00     0.382 C 
ATOM     23  O   LIG d   1      -0.408  96.378 118.485  0.00  0.00    -0.241 OA
ATOM     24  O   LIG d   1      -2.512  96.849 118.349  0.00  0.00    -0.241 OA
ENDBRANCH   3  22
TORSDOF 7
ENDMDL
MODEL 7
REMARK VINA RESULT:      -4.5     30.724     32.851
REMARK  7 active torsions:
REMARK  status: ('A' for Active; 'I' for Inactive)
REMARK    1  A    between atoms: C_2  and  C_3 
REMARK    2  A    between atoms: C_3  and  O_6 
REMARK    3  A    between atoms: C_3  and  C_4 
REMARK    4  A    between atoms: C_7  and  O_6 
REMARK    5  A    between atoms: C_9  and  C_10 
REMARK    6  A    between atoms: N_15  and  C_14 
REMARK    7  A    between atoms: N_20  and  C_19 
REMARK       I    between atoms: C_22  and  N_20 
ROOT
ATOM      1  C   LIG d   1      -3.401  91.370 118.255  0.00  0.00     0.161 C 
ATOM      2  C   LIG d   1      -4.246  90.477 117.575  0.00  0.00     0.016 C 
ATOM      3  C   LIG d   1      -5.559  90.806 117.166  0.00  0.00     0.038 C 
ATOM      4  C   LIG d   1      -6.065  92.110 117.277  0.00  0.00     0.028 C 
ATOM      5  C   LIG d   1      -5.434  92.910 118.412  0.00  0.00    -0.047 C 
ATOM      6  C   LIG d   1      -3.896  92.832 118.286  0.00  0.00     0.091 C 
ENDROOT
BRANCH   1   7
ATOM      7  O   LIG d   1      -2.072  91.303 117.702  0.00  0.00    -0.368 OA
BRANCH   7   8
ATOM      8  C   LIG d   1      -1.143  90.423 118.381  0.00  0.00     0.119 C 
BRANCH   8   9
ATOM      9  C   LIG d   1      -1.469  90.477 119.886  0.00  0.00     0.028 C 
ATOM     10  C   LIG d   1      -1.599  89.077 120.509  0.00  0.00     0.006 C 
ENDBRANCH   8   9
BRANCH   8  11
ATOM     11  C   LIG d   1       0.297  90.931 118.259  0.00  0.00     0.028 C 
ATOM     12  C   LIG d   1       0.620  92.050 119.262  0.00  0.00     0.006 C 
ENDBRANCH   8  11
ENDBRANCH   7   8
ENDBRANCH   1   7
BRANCH   6  13
ATOM     13  N   LIG d   1      -3.200  93.518 119.405  0.00  0.00    -0.311 N 
ATOM     14  C   LIG d   1      -2.262  94.448 119.226  0.00  0.00     0.210 C 
ATOM     15  C   LIG d   1      -1.659  95.014 120.515  0.00  0.00     0.109 C 
ATOM     16  O   LIG d   1      -1.897  94.880 118.123  0.00  0.00    -0.276 OA
ATOM     17  H   LIG d   1      -3.457  93.251 120.335  0.00  0.00     0.149 HD
ENDBRANCH   6  13
BRANCH   5  18
ATOM     18  N   LIG d   1      -5.952  94.289 118.326  0.00  0.00     0.381 N 
ATOM     19  H   LIG d   1      -6.197  94.616 119.239  0.00  0.00    -0.090 HD
ATOM     20  H   LIG d   1      -6.780  94.290 117.757  0.00  0.00    -0.090 HD
ATOM     21  H   LIG d   1      -5.264  94.887 117.924  0.00  0.00    -0.090 HD
ENDBRANCH   5  18
BRANCH   3  22
ATOM     22  C   LIG d   1      -6.395  89.814 116.676  0.00  0.00     0.382 C 
ATOM     23  O   LIG d   1      -7.552  89.683 117.141  0.00  0.00    -0.241 OA
ATOM     24  O   LIG d   1      -5.990  89.021 115.805  0.00  0.00    -0.241 OA
ENDBRANCH   3  22
TORSDOF 7
ENDMDL
MODEL 8
REMARK VINA RESULT:      -4.4      2.327      4.273
REMARK  7 active torsions:
REMARK  status: ('A' for Active; 'I' for Inactive)
REMARK    1  A    between atoms: C_2  and  C_3 
REMARK    2  A    between atoms: C_3  and  O_6 
REMARK    3  A    between atoms: C_3  and  C_4 
REMARK    4  A    between atoms: C_7  and  O_6 
REMARK    5  A    between atoms: C_9  and  C_10 
REMARK    6  A    between atoms: N_15  and  C_14 
REMARK    7  A    between atoms: N_20  and  C_19 
REMARK       I    between atoms: C_22  and  N_20 
ROOT
ATOM      1  C   LIG d   1      -0.859  58.261 120.751  0.00  0.00     0.161 C 
ATOM      2  C   LIG d   1       0.360  57.564 120.802  0.00  0.00     0.016 C 
ATOM      3  C   LIG d   1       0.899  56.859 119.701  0.00  0.00     0.038 C 
ATOM      4  C   LIG d   1       0.325  56.929 118.423  0.00  0.00     0.028 C 
ATOM      5  C   LIG d   1      -1.174  57.205 118.446  0.00  0.00    -0.047 C 
ATOM      6  C   LIG d   1      -1.443  58.441 119.334  0.00  0.00     0.091 C 
ENDROOT
BRANCH   1   7
ATOM      7  O   LIG d   1      -0.718  59.540 121.401  0.00  0.00    -0.368 OA
BRANCH   7   8
ATOM      8  C   LIG d   1      -0.325  60.646 120.553  0.00  0.00     0.119 C 
BRANCH   8   9
ATOM      9  C   LIG d   1       1.104  61.056 120.959  0.00  0.00     0.028 C 
ATOM     10  C   LIG d   1       2.137  60.752 119.860  0.00  0.00     0.006 C 
ENDBRANCH   8   9
BRANCH   8  11
ATOM     11  C   LIG d   1      -1.190  61.883 120.812  0.00  0.00     0.028 C 
ATOM     12  C   LIG d   1      -2.424  61.576 121.675  0.00  0.00     0.006 C 
ENDBRANCH   8  11
ENDBRANCH   7   8
ENDBRANCH   1   7
BRANCH   6  13
ATOM     13  N   LIG d   1      -2.894  58.730 119.479  0.00  0.00    -0.311 N 
ATOM     14  C   LIG d   1      -3.537  59.639 118.748  0.00  0.00     0.210 C 
ATOM     15  C   LIG d   1      -5.026  59.793 119.072  0.00  0.00     0.109 C 
ATOM     16  O   LIG d   1      -3.022  60.309 117.841  0.00  0.00    -0.276 OA
ATOM     17  H   LIG d   1      -3.396  58.209 120.171  0.00  0.00     0.149 HD
ENDBRANCH   6  13
BRANCH   5  18
ATOM     18  N   LIG d   1      -1.615  57.389 117.050  0.00  0.00     0.381 N 
ATOM     19  H   LIG d   1      -1.750  56.497 116.617  0.00  0.00    -0.090 HD
ATOM     20  H   LIG d   1      -0.898  57.880 116.545  0.00  0.00    -0.090 HD
ATOM     21  H   LIG d   1      -2.464  57.910 117.027  0.00  0.00    -0.090 HD
ENDBRANCH   5  18
BRANCH   3  22
ATOM     22  C   LIG d   1       2.003  56.040 119.884  0.00  0.00     0.382 C 
ATOM     23  O   LIG d   1       3.139  56.547 120.048  0.00  0.00    -0.241 OA
ATOM     24  O   LIG d   1       1.884  54.801 119.843  0.00  0.00    -0.241 OA
ENDBRANCH   3  22
TORSDOF 7
ENDMDL
MODEL 9
REMARK VINA RESULT:      -4.3     30.563     32.817
REMARK  7 active torsions:
REMARK  status: ('A' for Active; 'I' for Inactive)
REMARK    1  A    between atoms: C_2  and  C_3 
REMARK    2  A    between atoms: C_3  and  O_6 
REMARK    3  A    between atoms: C_3  and  C_4 
REMARK    4  A    between atoms: C_7  and  O_6 
REMARK    5  A    between atoms: C_9  and  C_10 
REMARK    6  A    between atoms: N_15  and  C_14 
REMARK    7  A    between atoms: N_20  and  C_19 
REMARK       I    between atoms: C_22  and  N_20 
ROOT
ATOM      1  C   LIG d   1      -3.217  92.293 117.651  0.00  0.00     0.161 C 
ATOM      2  C   LIG d   1      -4.586  92.079 117.420  0.00  0.00     0.016 C 
ATOM      3  C   LIG d   1      -5.138  90.811 117.128  0.00  0.00     0.038 C 
ATOM      4  C   LIG d   1      -4.373  89.636 117.197  0.00  0.00     0.028 C 
ATOM      5  C   LIG d   1      -2.889  89.863 116.930  0.00  0.00    -0.047 C 
ATOM      6  C   LIG d   1      -2.385  91.007 117.840  0.00  0.00     0.091 C 
ENDROOT
BRANCH   1   7
ATOM      7  O   LIG d   1      -3.043  93.173 118.779  0.00  0.00    -0.368 OA
BRANCH   7   8
ATOM      8  C   LIG d   1      -4.235  93.464 119.550  0.00  0.00     0.119 C 
BRANCH   8   9
ATOM      9  C   LIG d   1      -4.261  94.983 119.806  0.00  0.00     0.028 C 
ATOM     10  C   LIG d   1      -3.055  95.704 119.181  0.00  0.00     0.006 C 
ENDBRANCH   8   9
BRANCH   8  11
ATOM     11  C   LIG d   1      -4.172  92.820 120.939  0.00  0.00     0.028 C 
ATOM     12  C   LIG d   1      -5.044  91.560 121.051  0.00  0.00     0.006 C 
ENDBRANCH   8  11
ENDBRANCH   7   8
ENDBRANCH   1   7
BRANCH   6  13
ATOM     13  N   LIG d   1      -0.962  91.351 117.582  0.00  0.00    -0.311 N 
ATOM     14  C   LIG d   1       0.054  90.827 118.267  0.00  0.00     0.210 C 
ATOM     15  C   LIG d   1       1.440  91.333 117.854  0.00  0.00     0.109 C 
ATOM     16  O   LIG d   1      -0.059  89.969 119.154  0.00  0.00    -0.276 OA
ATOM     17  H   LIG d   1      -0.777  92.017 116.858  0.00  0.00     0.149 HD
ENDBRANCH   6  13
BRANCH   5  18
ATOM     18  N   LIG d   1      -2.193  88.585 117.169  0.00  0.00     0.381 N 
ATOM     19  H   LIG d   1      -1.267  88.628 116.791  0.00  0.00    -0.090 HD
ATOM     20  H   LIG d   1      -2.691  87.850 116.699  0.00  0.00    -0.090 HD
ATOM     21  H   LIG d   1      -2.152  88.397 118.146  0.00  0.00    -0.090 HD
ENDBRANCH   5  18
BRANCH   3  22
ATOM     22  C   LIG d   1      -6.460  90.713 116.724  0.00  0.00     0.382 C 
ATOM     23  O   LIG d   1      -6.938  91.560 115.932  0.00  0.00    -0.241 OA
ATOM     24  O   LIG d   1      -7.194  89.813 117.176  0.00  0.00    -0.241 OA
ENDBRANCH   3  22
TORSDOF 7
ENDMDL
