MODEL 1
REMARK VINA RESULT:      -5.1      0.000      0.000
REMARK  7 active torsions:
REMARK  status: ('A' for Active; 'I' for Inactive)
REMARK    1  A    between atoms: C_2  and  C_3 
REMARK    2  A    between atoms: C_3  and  O_6 
REMARK    3  A    between atoms: C_3  and  C_4 
REMARK    4  A    between atoms: C_7  and  O_6 
REMARK    5  A    between atoms: C_9  and  C_10 
REMARK    6  A    between atoms: N_15  and  C_14 
REMARK    7  A    between atoms: N_20  and  C_19 
REMARK       I    between atoms: C_22  and  N_20 
ROOT
ATOM      1  C   LIG d   1      -6.313  79.552 118.390  0.00  0.00     0.161 C 
ATOM      2  C   LIG d   1      -7.647  79.153 118.579  0.00  0.00     0.016 C 
ATOM      3  C   LIG d   1      -8.690  80.052 118.897  0.00  0.00     0.038 C 
ATOM      4  C   LIG d   1      -8.497  81.442 118.898  0.00  0.00     0.028 C 
ATOM      5  C   LIG d   1      -7.062  81.853 119.210  0.00  0.00    -0.047 C 
ATOM      6  C   LIG d   1      -6.104  81.077 118.278  0.00  0.00     0.091 C 
ENDROOT
BRANCH   1   7
ATOM      7  O   LIG d   1      -5.762  78.885 117.237  0.00  0.00    -0.368 OA
BRANCH   7   8
ATOM      8  C   LIG d   1      -5.277  77.537 117.452  0.00  0.00     0.119 C 
BRANCH   8   9
ATOM      9  C   LIG d   1      -3.755  77.548 117.210  0.00  0.00     0.028 C 
ATOM     10  C   LIG d   1      -2.964  77.938 118.470  0.00  0.00     0.006 C 
ENDBRANCH   8   9
BRANCH   8  11
ATOM     11  C   LIG d   1      -5.845  76.567 116.412  0.00  0.00     0.028 C 
ATOM     12  C   LIG d   1      -7.088  75.815 116.915  0.00  0.00     0.006 C 
ENDBRANCH   8  11
ENDBRANCH   7   8
ENDBRANCH   1   7
BRANCH   6  13
ATOM     13  N   LIG d   1      -4.674  81.357 118.573  0.00  0.00    -0.311 N 
ATOM     14  C   LIG d   1      -3.757  81.562 117.629  0.00  0.00     0.210 C 
ATOM     15  C   LIG d   1      -2.339  81.814 118.149  0.00  0.00     0.109 C 
ATOM     16  O   LIG d   1      -3.990  81.589 116.411  0.00  0.00    -0.276 OA
ATOM     17  H   LIG d   1      -4.404  81.384 119.537  0.00  0.00     0.149 HD
ENDBRANCH   6  13
BRANCH   5  18
ATOM     18  N   LIG d   1      -6.971  83.316 119.042  0.00  0.00     0.381 N 
ATOM     19  H   LIG d   1      -6.992  83.548 118.069  0.00  0.00    -0.090 HD
ATOM     20  H   LIG d   1      -6.097  83.633 119.423  0.00  0.00    -0.090 HD
ATOM     21  H   LIG d   1      -7.728  83.761 119.514  0.00  0.00    -0.090 HD
ENDBRANCH   5  18
BRANCH   3  22
ATOM     22  C   LIG d   1      -9.935  79.561 119.257  0.00  0.00     0.382 C 
ATOM     23  O   LIG d   1     -10.609  80.145 120.140  0.00  0.00    -0.241 OA
ATOM     24  O   LIG d   1     -10.375  78.515 118.742  0.00  0.00    -0.241 OA
ENDBRANCH   3  22
TORSDOF 7
ENDMDL
MODEL 2
REMARK VINA RESULT:      -4.9     11.636     14.400
REMARK  7 active torsions:
REMARK  status: ('A' for Active; 'I' for Inactive)
REMARK    1  A    between atoms: C_2  and  C_3 
REMARK    2  A    between atoms: C_3  and  O_6 
REMARK    3  A    between atoms: C_3  and  C_4 
REMARK    4  A    between atoms: C_7  and  O_6 
REMARK    5  A    between atoms: C_9  and  C_10 
REMARK    6  A    between atoms: N_15  and  C_14 
REMARK    7  A    between atoms: N_20  and  C_19 
REMARK       I    between atoms: C_22  and  N_20 
ROOT
ATOM      1  C   LIG d   1      -3.125  92.504 119.186  0.00  0.00     0.161 C 
ATOM      2  C   LIG d   1      -3.093  91.472 118.233  0.00  0.00     0.016 C 
ATOM      3  C   LIG d   1      -4.166  91.191 117.356  0.00  0.00     0.038 C 
ATOM      4  C   LIG d   1      -5.290  92.024 117.268  0.00  0.00     0.028 C 
ATOM      5  C   LIG d   1      -5.587  92.780 118.559  0.00  0.00    -0.047 C 
ATOM      6  C   LIG d   1      -4.299  93.494 119.029  0.00  0.00     0.091 C 
ENDROOT
BRANCH   1   7
ATOM      7  O   LIG d   1      -1.869  93.212 119.181  0.00  0.00    -0.368 OA
BRANCH   7   8
ATOM      8  C   LIG d   1      -1.751  94.294 118.225  0.00  0.00     0.119 C 
BRANCH   8   9
ATOM      9  C   LIG d   1      -0.670  93.892 117.202  0.00  0.00     0.028 C 
ATOM     10  C   LIG d   1       0.368  92.924 117.796  0.00  0.00     0.006 C 
ENDBRANCH   8   9
BRANCH   8  11
ATOM     11  C   LIG d   1      -1.226  95.570 118.889  0.00  0.00     0.028 C 
ATOM     12  C   LIG d   1      -1.097  95.438 120.415  0.00  0.00     0.006 C 
ENDBRANCH   8  11
ENDBRANCH   7   8
ENDBRANCH   1   7
BRANCH   6  13
ATOM     13  N   LIG d   1      -4.478  94.188 120.331  0.00  0.00    -0.311 N 
ATOM     14  C   LIG d   1      -4.783  95.480 120.436  0.00  0.00     0.210 C 
ATOM     15  C   LIG d   1      -4.903  96.001 121.872  0.00  0.00     0.109 C 
ATOM     16  O   LIG d   1      -4.998  96.237 119.478  0.00  0.00    -0.276 OA
ATOM     17  H   LIG d   1      -4.353  93.642 121.160  0.00  0.00     0.149 HD
ENDBRANCH   6  13
BRANCH   5  18
ATOM     18  N   LIG d   1      -6.697  93.712 118.285  0.00  0.00     0.381 N 
ATOM     19  H   LIG d   1      -7.316  93.311 117.609  0.00  0.00    -0.090 HD
ATOM     20  H   LIG d   1      -6.321  94.562 117.904  0.00  0.00    -0.090 HD
ATOM     21  H   LIG d   1      -7.193  93.907 119.127  0.00  0.00    -0.090 HD
ENDBRANCH   5  18
BRANCH   3  22
ATOM     22  C   LIG d   1      -4.136  90.041 116.581  0.00  0.00     0.382 C 
ATOM     23  O   LIG d   1      -3.139  89.280 116.626  0.00  0.00    -0.241 OA
ATOM     24  O   LIG d   1      -5.074  89.777 115.805  0.00  0.00    -0.241 OA
ENDBRANCH   3  22
TORSDOF 7
ENDMDL
MODEL 3
REMARK VINA RESULT:      -4.8     20.729     23.518
REMARK  7 active torsions:
REMARK  status: ('A' for Active; 'I' for Inactive)
REMARK    1  A    between atoms: C_2  and  C_3 
REMARK    2  A    between atoms: C_3  and  O_6 
REMARK    3  A    between atoms: C_3  and  C_4 
REMARK    4  A    between atoms: C_7  and  O_6 
REMARK    5  A    between atoms: C_9  and  C_10 
REMARK    6  A    between atoms: N_15  and  C_14 
REMARK    7  A    between atoms: N_20  and  C_19 
REMARK       I    between atoms: C_22  and  N_20 
ROOT
ATOM      1  C   LIG d   1       0.154  58.247 120.115  0.00  0.00     0.161 C 
ATOM      2  C   LIG d   1       1.276  58.382 120.949  0.00  0.00     0.016 C 
ATOM      3  C   LIG d   1       2.406  57.536 120.876  0.00  0.00     0.038 C 
ATOM      4  C   LIG d   1       2.556  56.585 119.856  0.00  0.00     0.028 C 
ATOM      5  C   LIG d   1       1.229  56.076 119.303  0.00  0.00    -0.047 C 
ATOM      6  C   LIG d   1       0.346  57.287 118.923  0.00  0.00     0.091 C 
ENDROOT
BRANCH   1   7
ATOM      7  O   LIG d   1      -0.269  59.545 119.651  0.00  0.00    -0.368 OA
BRANCH   7   8
ATOM      8  C   LIG d   1      -1.489  60.065 120.233  0.00  0.00     0.119 C 
BRANCH   8   9
ATOM      9  C   LIG d   1      -1.927  59.085 121.340  0.00  0.00     0.028 C 
ATOM     10  C   LIG d   1      -2.983  59.694 122.278  0.00  0.00     0.006 C 
ENDBRANCH   8   9
BRANCH   8  11
ATOM     11  C   LIG d   1      -2.635  60.067 119.217  0.00  0.00     0.028 C 
ATOM     12  C   LIG d   1      -2.189  60.519 117.817  0.00  0.00     0.006 C 
ENDBRANCH   8  11
ENDBRANCH   7   8
ENDBRANCH   1   7
BRANCH   6  13
ATOM     13  N   LIG d   1      -1.003  56.879 118.452  0.00  0.00    -0.311 N 
ATOM     14  C   LIG d   1      -1.449  57.107 117.218  0.00  0.00     0.210 C 
ATOM     15  C   LIG d   1      -2.877  56.623 116.946  0.00  0.00     0.109 C 
ATOM     16  O   LIG d   1      -0.786  57.636 116.313  0.00  0.00    -0.276 OA
ATOM     17  H   LIG d   1      -1.596  56.416 119.112  0.00  0.00     0.149 HD
ENDBRANCH   6  13
BRANCH   5  18
ATOM     18  N   LIG d   1       1.531  55.199 118.156  0.00  0.00     0.381 N 
ATOM     19  H   LIG d   1       2.020  55.716 117.454  0.00  0.00    -0.090 HD
ATOM     20  H   LIG d   1       0.667  54.870 117.762  0.00  0.00    -0.090 HD
ATOM     21  H   LIG d   1       2.083  54.425 118.455  0.00  0.00    -0.090 HD
ENDBRANCH   5  18
BRANCH   3  22
ATOM     22  C   LIG d   1       3.384  57.610 121.856  0.00  0.00     0.382 C 
ATOM     23  O   LIG d   1       3.956  58.702 122.090  0.00  0.00    -0.241 OA
ATOM     24  O   LIG d   1       3.734  56.589 122.478  0.00  0.00    -0.241 OA
ENDBRANCH   3  22
TORSDOF 7
ENDMDL
MODEL 4
REMARK VINA RESULT:      -4.5     12.393     14.870
REMARK  7 active torsions:
REMARK  status: ('A' for Active; 'I' for Inactive)
REMARK    1  A    between atoms: C_2  and  C_3 
REMARK    2  A    between atoms: C_3  and  O_6 
REMARK    3  A    between atoms: C_3  and  C_4 
REMARK    4  A    between atoms: C_7  and  O_6 
REMARK    5  A    between atoms: C_9  and  C_10 
REMARK    6  A    between atoms: N_15  and  C_14 
REMARK    7  A    between atoms: N_20  and  C_19 
REMARK       I    between atoms: C_22  and  N_20 
ROOT
ATOM      1  C   LIG d   1      -0.746  93.437 117.855  0.00  0.00     0.161 C 
ATOM      2  C   LIG d   1       0.152  92.709 117.058  0.00  0.00     0.016 C 
ATOM      3  C   LIG d   1       1.301  92.063 117.570  0.00  0.00     0.038 C 
ATOM      4  C   LIG d   1       1.548  91.974 118.948  0.00  0.00     0.028 C 
ATOM      5  C   LIG d   1       0.941  93.122 119.748  0.00  0.00    -0.047 C 
ATOM      6  C   LIG d   1      -0.553  93.258 119.376  0.00  0.00     0.091 C 
ENDROOT
BRANCH   1   7
ATOM      7  O   LIG d   1      -2.101  93.118 117.481  0.00  0.00    -0.368 OA
BRANCH   7   8
ATOM      8  C   LIG d   1      -2.784  92.155 118.322  0.00  0.00     0.119 C 
BRANCH   8   9
ATOM      9  C   LIG d   1      -2.639  90.774 117.655  0.00  0.00     0.028 C 
ATOM     10  C   LIG d   1      -1.832  89.788 118.516  0.00  0.00     0.006 C 
ENDBRANCH   8   9
BRANCH   8  11
ATOM     11  C   LIG d   1      -4.290  92.427 118.369  0.00  0.00     0.028 C 
ATOM     12  C   LIG d   1      -5.042  91.828 117.169  0.00  0.00     0.006 C 
ENDBRANCH   8  11
ENDBRANCH   7   8
ENDBRANCH   1   7
BRANCH   6  13
ATOM     13  N   LIG d   1      -1.202  94.412 120.051  0.00  0.00    -0.311 N 
ATOM     14  C   LIG d   1      -1.893  94.304 121.185  0.00  0.00     0.210 C 
ATOM     15  C   LIG d   1      -2.498  95.613 121.701  0.00  0.00     0.109 C 
ATOM     16  O   LIG d   1      -2.035  93.253 121.829  0.00  0.00    -0.276 OA
ATOM     17  H   LIG d   1      -1.111  95.307 119.613  0.00  0.00     0.149 HD
ENDBRANCH   6  13
BRANCH   5  18
ATOM     18  N   LIG d   1       1.157  92.831 121.178  0.00  0.00     0.381 N 
ATOM     19  H   LIG d   1       0.322  92.449 121.575  0.00  0.00    -0.090 HD
ATOM     20  H   LIG d   1       1.368  93.689 121.656  0.00  0.00    -0.090 HD
ATOM     21  H   LIG d   1       1.910  92.188 121.286  0.00  0.00    -0.090 HD
ENDBRANCH   5  18
BRANCH   3  22
ATOM     22  C   LIG d   1       2.237  91.531 116.697  0.00  0.00     0.382 C 
ATOM     23  O   LIG d   1       3.290  92.166 116.444  0.00  0.00    -0.241 OA
ATOM     24  O   LIG d   1       2.023  90.446 116.125  0.00  0.00    -0.241 OA
ENDBRANCH   3  22
TORSDOF 7
ENDMDL
MODEL 5
REMARK VINA RESULT:      -4.4      1.267      2.052
REMARK  7 active torsions:
REMARK  status: ('A' for Active; 'I' for Inactive)
REMARK    1  A    between atoms: C_2  and  C_3 
REMARK    2  A    between atoms: C_3  and  O_6 
REMARK    3  A    between atoms: C_3  and  C_4 
REMARK    4  A    between atoms: C_7  and  O_6 
REMARK    5  A    between atoms: C_9  and  C_10 
REMARK    6  A    between atoms: N_15  and  C_14 
REMARK    7  A    between atoms: N_20  and  C_19 
REMARK       I    between atoms: C_22  and  N_20 
ROOT
ATOM      1  C   LIG d   1      -6.438  79.780 118.451  0.00  0.00     0.161 C 
ATOM      2  C   LIG d   1      -7.732  79.289 118.693  0.00  0.00     0.016 C 
ATOM      3  C   LIG d   1      -8.837  80.120 118.989  0.00  0.00     0.038 C 
ATOM      4  C   LIG d   1      -8.754  81.519 118.914  0.00  0.00     0.028 C 
ATOM      5  C   LIG d   1      -7.351  82.057 119.169  0.00  0.00    -0.047 C 
ATOM      6  C   LIG d   1      -6.353  81.309 118.255  0.00  0.00     0.091 C 
ENDROOT
BRANCH   1   7
ATOM      7  O   LIG d   1      -5.860  79.097 117.321  0.00  0.00    -0.368 OA
BRANCH   7   8
ATOM      8  C   LIG d   1      -4.559  78.496 117.538  0.00  0.00     0.119 C 
BRANCH   8   9
ATOM      9  C   LIG d   1      -4.483  77.230 116.663  0.00  0.00     0.028 C 
ATOM     10  C   LIG d   1      -5.861  76.579 116.452  0.00  0.00     0.006 C 
ENDBRANCH   8   9
BRANCH   8  11
ATOM     11  C   LIG d   1      -4.407  78.003 118.979  0.00  0.00     0.028 C 
ATOM     12  C   LIG d   1      -2.959  78.088 119.488  0.00  0.00     0.006 C 
ENDBRANCH   8  11
ENDBRANCH   7   8
ENDBRANCH   1   7
BRANCH   6  13
ATOM     13  N   LIG d   1      -4.945  81.715 118.501  0.00  0.00    -0.311 N 
ATOM     14  C   LIG d   1      -4.347  81.610 119.687  0.00  0.00     0.210 C 
ATOM     15  C   LIG d   1      -2.898  82.105 119.728  0.00  0.00     0.109 C 
ATOM     16  O   LIG d   1      -4.870  81.123 120.701  0.00  0.00    -0.276 OA
ATOM     17  H   LIG d   1      -4.436  82.092 117.725  0.00  0.00     0.149 HD
ENDBRANCH   6  13
BRANCH   5  18
ATOM     18  N   LIG d   1      -7.380  83.511 118.924  0.00  0.00     0.381 N 
ATOM     19  H   LIG d   1      -7.065  83.998 119.739  0.00  0.00    -0.090 HD
ATOM     20  H   LIG d   1      -8.326  83.791 118.736  0.00  0.00    -0.090 HD
ATOM     21  H   LIG d   1      -6.798  83.738 118.147  0.00  0.00    -0.090 HD
ENDBRANCH   5  18
BRANCH   3  22
ATOM     22  C   LIG d   1     -10.032  79.553 119.404  0.00  0.00     0.382 C 
ATOM     23  O   LIG d   1     -10.665  80.055 120.364  0.00  0.00    -0.241 OA
ATOM     24  O   LIG d   1     -10.463  78.519 118.859  0.00  0.00    -0.241 OA
ENDBRANCH   3  22
TORSDOF 7
ENDMDL
MODEL 6
REMARK VINA RESULT:      -4.4     21.322     23.920
REMARK  7 active torsions:
REMARK  status: ('A' for Active; 'I' for Inactive)
REMARK    1  A    between atoms: C_2  and  C_3 
REMARK    2  A    between atoms: C_3  and  O_6 
REMARK    3  A    between atoms: C_3  and  C_4 
REMARK    4  A    between atoms: C_7  and  O_6 
REMARK    5  A    between atoms: C_9  and  C_10 
REMARK    6  A    between atoms: N_15  and  C_14 
REMARK    7  A    between atoms: N_20  and  C_19 
REMARK       I    between atoms: C_22  and  N_20 
ROOT
ATOM      1  C   LIG d   1      -0.139  56.786 119.649  0.00  0.00     0.161 C 
ATOM      2  C   LIG d   1       0.272  55.697 118.863  0.00  0.00     0.016 C 
ATOM      3  C   LIG d   1      -0.261  55.414 117.584  0.00  0.00     0.038 C 
ATOM      4  C   LIG d   1      -1.140  56.295 116.937  0.00  0.00     0.028 C 
ATOM      5  C   LIG d   1      -1.966  57.142 117.899  0.00  0.00    -0.047 C 
ATOM      6  C   LIG d   1      -1.017  57.820 118.913  0.00  0.00     0.091 C 
ENDROOT
BRANCH   1   7
ATOM      7  O   LIG d   1       1.011  57.429 120.233  0.00  0.00    -0.368 OA
BRANCH   7   8
ATOM      8  C   LIG d   1       2.229  57.390 119.450  0.00  0.00     0.119 C 
BRANCH   8   9
ATOM      9  C   LIG d   1       3.382  57.028 120.406  0.00  0.00     0.028 C 
ATOM     10  C   LIG d   1       3.527  55.510 120.603  0.00  0.00     0.006 C 
ENDBRANCH   8   9
BRANCH   8  11
ATOM     11  C   LIG d   1       2.580  58.773 118.895  0.00  0.00     0.028 C 
ATOM     12  C   LIG d   1       3.904  59.320 119.452  0.00  0.00     0.006 C 
ENDBRANCH   8  11
ENDBRANCH   7   8
ENDBRANCH   1   7
BRANCH   6  13
ATOM     13  N   LIG d   1      -1.751  58.601 119.943  0.00  0.00    -0.311 N 
ATOM     14  C   LIG d   1      -2.025  59.898 119.821  0.00  0.00     0.210 C 
ATOM     15  C   LIG d   1      -2.773  60.515 121.007  0.00  0.00     0.109 C 
ATOM     16  O   LIG d   1      -1.747  60.590 118.830  0.00  0.00    -0.276 OA
ATOM     17  H   LIG d   1      -2.041  58.110 120.766  0.00  0.00     0.149 HD
ENDBRANCH   6  13
BRANCH   5  18
ATOM     18  N   LIG d   1      -2.736  58.108 117.093  0.00  0.00     0.381 N 
ATOM     19  H   LIG d   1      -2.280  58.999 117.104  0.00  0.00    -0.090 HD
ATOM     20  H   LIG d   1      -3.649  58.217 117.500  0.00  0.00    -0.090 HD
ATOM     21  H   LIG d   1      -2.820  57.781 116.156  0.00  0.00    -0.090 HD
ENDBRANCH   5  18
BRANCH   3  22
ATOM     22  C   LIG d   1       0.055  54.219 116.957  0.00  0.00     0.382 C 
ATOM     23  O   LIG d   1      -0.766  53.688 116.170  0.00  0.00    -0.241 OA
ATOM     24  O   LIG d   1       1.132  53.642 117.201  0.00  0.00    -0.241 OA
ENDBRANCH   3  22
TORSDOF 7
ENDMDL
MODEL 7
REMARK VINA RESULT:      -4.2     12.196     13.981
REMARK  7 active torsions:
REMARK  status: ('A' for Active; 'I' for Inactive)
REMARK    1  A    between atoms: C_2  and  C_3 
REMARK    2  A    between atoms: C_3  and  O_6 
REMARK    3  A    between atoms: C_3  and  C_4 
REMARK    4  A    between atoms: C_7  and  O_6 
REMARK    5  A    between atoms: C_9  and  C_10 
REMARK    6  A    between atoms: N_15  and  C_14 
REMARK    7  A    between atoms: N_20  and  C_19 
REMARK       I    between atoms: C_22  and  N_20 
ROOT
ATOM      1  C   LIG d   1     -18.125  75.201 120.293  0.00  0.00     0.161 C 
ATOM      2  C   LIG d   1     -17.933  76.591 120.365  0.00  0.00     0.016 C 
ATOM      3  C   LIG d   1     -18.996  77.523 120.376  0.00  0.00     0.038 C 
ATOM      4  C   LIG d   1     -20.336  77.119 120.468  0.00  0.00     0.028 C 
ATOM      5  C   LIG d   1     -20.591  75.731 119.889  0.00  0.00    -0.047 C 
ATOM      6  C   LIG d   1     -19.581  74.737 120.506  0.00  0.00     0.091 C 
ENDROOT
BRANCH   1   7
ATOM      7  O   LIG d   1     -17.247  74.538 121.225  0.00  0.00    -0.368 OA
BRANCH   7   8
ATOM      8  C   LIG d   1     -16.122  73.831 120.648  0.00  0.00     0.119 C 
BRANCH   8   9
ATOM      9  C   LIG d   1     -16.159  74.066 119.125  0.00  0.00     0.028 C 
ATOM     10  C   LIG d   1     -16.156  72.750 118.329  0.00  0.00     0.006 C 
ENDBRANCH   8   9
BRANCH   8  11
ATOM     11  C   LIG d   1     -16.263  72.317 120.829  0.00  0.00     0.028 C 
ATOM     12  C   LIG d   1     -15.867  71.846 122.237  0.00  0.00     0.006 C 
ENDBRANCH   8  11
ENDBRANCH   7   8
ENDBRANCH   1   7
BRANCH   6  13
ATOM     13  N   LIG d   1     -19.706  73.372 119.931  0.00  0.00    -0.311 N 
ATOM     14  C   LIG d   1     -19.918  72.283 120.668  0.00  0.00     0.210 C 
ATOM     15  C   LIG d   1     -19.995  70.973 119.878  0.00  0.00     0.109 C 
ATOM     16  O   LIG d   1     -20.081  72.281 121.897  0.00  0.00    -0.276 OA
ATOM     17  H   LIG d   1     -19.617  73.286 118.937  0.00  0.00     0.149 HD
ENDBRANCH   6  13
BRANCH   5  18
ATOM     18  N   LIG d   1     -21.995  75.380 120.175  0.00  0.00     0.381 N 
ATOM     19  H   LIG d   1     -22.545  76.213 120.245  0.00  0.00    -0.090 HD
ATOM     20  H   LIG d   1     -22.037  74.900 121.057  0.00  0.00    -0.090 HD
ATOM     21  H   LIG d   1     -22.355  74.795 119.453  0.00  0.00    -0.090 HD
ENDBRANCH   5  18
BRANCH   3  22
ATOM     22  C   LIG d   1     -18.724  78.877 120.253  0.00  0.00     0.382 C 
ATOM     23  O   LIG d   1     -19.632  79.670 119.905  0.00  0.00    -0.241 OA
ATOM     24  O   LIG d   1     -17.572  79.310 120.443  0.00  0.00    -0.241 OA
ENDBRANCH   3  22
TORSDOF 7
ENDMDL
MODEL 8
REMARK VINA RESULT:      -4.2     11.704     14.667
REMARK  7 active torsions:
REMARK  status: ('A' for Active; 'I' for Inactive)
REMARK    1  A    between atoms: C_2  and  C_3 
REMARK    2  A    between atoms: C_3  and  O_6 
REMARK    3  A    between atoms: C_3  and  C_4 
REMARK    4  A    between atoms: C_7  and  O_6 
REMARK    5  A    between atoms: C_9  and  C_10 
REMARK    6  A    between atoms: N_15  and  C_14 
REMARK    7  A    between atoms: N_20  and  C_19 
REMARK       I    between atoms: C_22  and  N_20 
ROOT
ATOM      1  C   LIG d   1      -2.350  93.101 118.129  0.00  0.00     0.161 C 
ATOM      2  C   LIG d   1      -1.071  92.559 117.920  0.00  0.00     0.016 C 
ATOM      3  C   LIG d   1       0.082  92.997 118.611  0.00  0.00     0.038 C 
ATOM      4  C   LIG d   1       0.007  93.909 119.674  0.00  0.00     0.028 C 
ATOM      5  C   LIG d   1      -1.187  94.853 119.580  0.00  0.00    -0.047 C 
ATOM      6  C   LIG d   1      -2.470  94.018 119.363  0.00  0.00     0.091 C 
ENDROOT
BRANCH   1   7
ATOM      7  O   LIG d   1      -3.325  92.040 118.197  0.00  0.00    -0.368 OA
BRANCH   7   8
ATOM      8  C   LIG d   1      -3.128  90.935 117.281  0.00  0.00     0.119 C 
BRANCH   8   9
ATOM      9  C   LIG d   1      -4.496  90.603 116.655  0.00  0.00     0.028 C 
ATOM     10  C   LIG d   1      -5.506  91.752 116.809  0.00  0.00     0.006 C 
ENDBRANCH   8   9
BRANCH   8  11
ATOM     11  C   LIG d   1      -2.703  89.665 118.025  0.00  0.00     0.028 C 
ATOM     12  C   LIG d   1      -1.540  88.932 117.338  0.00  0.00     0.006 C 
ENDBRANCH   8  11
ENDBRANCH   7   8
ENDBRANCH   1   7
BRANCH   6  13
ATOM     13  N   LIG d   1      -3.674  94.869 119.177  0.00  0.00    -0.311 N 
ATOM     14  C   LIG d   1      -4.719  94.852 120.003  0.00  0.00     0.210 C 
ATOM     15  C   LIG d   1      -5.865  95.793 119.616  0.00  0.00     0.109 C 
ATOM     16  O   LIG d   1      -4.792  94.172 121.037  0.00  0.00    -0.276 OA
ATOM     17  H   LIG d   1      -3.686  95.474 118.379  0.00  0.00     0.149 HD
ENDBRANCH   6  13
BRANCH   5  18
ATOM     18  N   LIG d   1      -1.220  95.654 120.818  0.00  0.00     0.381 N 
ATOM     19  H   LIG d   1      -0.775  96.537 120.662  0.00  0.00    -0.090 HD
ATOM     20  H   LIG d   1      -0.712  95.167 121.534  0.00  0.00    -0.090 HD
ATOM     21  H   LIG d   1      -2.163  95.796 121.107  0.00  0.00    -0.090 HD
ENDBRANCH   5  18
BRANCH   3  22
ATOM     22  C   LIG d   1       1.333  92.551 118.212  0.00  0.00     0.382 C 
ATOM     23  O   LIG d   1       1.580  92.384 116.993  0.00  0.00    -0.241 OA
ATOM     24  O   LIG d   1       2.203  92.271 119.058  0.00  0.00    -0.241 OA
ENDBRANCH   3  22
TORSDOF 7
ENDMDL
MODEL 9
REMARK VINA RESULT:      -4.2      2.461      5.626
REMARK  7 active torsions:
REMARK  status: ('A' for Active; 'I' for Inactive)
REMARK    1  A    between atoms: C_2  and  C_3 
REMARK    2  A    between atoms: C_3  and  O_6 
REMARK    3  A    between atoms: C_3  and  C_4 
REMARK    4  A    between atoms: C_7  and  O_6 
REMARK    5  A    between atoms: C_9  and  C_10 
REMARK    6  A    between atoms: N_15  and  C_14 
REMARK    7  A    between atoms: N_20  and  C_19 
REMARK       I    between atoms: C_22  and  N_20 
ROOT
ATOM      1  C   LIG d   1      -6.129  80.731 118.902  0.00  0.00     0.161 C 
ATOM      2  C   LIG d   1      -5.410  81.751 119.548  0.00  0.00     0.016 C 
ATOM      3  C   LIG d   1      -4.047  81.635 119.907  0.00  0.00     0.038 C 
ATOM      4  C   LIG d   1      -3.265  80.541 119.507  0.00  0.00     0.028 C 
ATOM      5  C   LIG d   1      -4.073  79.265 119.294  0.00  0.00    -0.047 C 
ATOM      6  C   LIG d   1      -5.264  79.574 118.359  0.00  0.00     0.091 C 
ENDROOT
BRANCH   1   7
ATOM      7  O   LIG d   1      -6.934  81.293 117.847  0.00  0.00    -0.368 OA
BRANCH   7   8
ATOM      8  C   LIG d   1      -8.369  81.195 118.020  0.00  0.00     0.119 C 
BRANCH   8   9
ATOM      9  C   LIG d   1      -8.937  82.627 118.003  0.00  0.00     0.028 C 
ATOM     10  C   LIG d   1      -8.664  83.381 119.316  0.00  0.00     0.006 C 
ENDBRANCH   8   9
BRANCH   8  11
ATOM     11  C   LIG d   1      -8.728  80.632 119.398  0.00  0.00     0.028 C 
ATOM     12  C   LIG d   1      -9.926  79.671 119.356  0.00  0.00     0.006 C 
ENDBRANCH   8  11
ENDBRANCH   7   8
ENDBRANCH   1   7
BRANCH   6  13
ATOM     13  N   LIG d   1      -6.153  78.400 118.166  0.00  0.00    -0.311 N 
ATOM     14  C   LIG d   1      -6.089  77.598 117.105  0.00  0.00     0.210 C 
ATOM     15  C   LIG d   1      -7.111  76.457 117.094  0.00  0.00     0.109 C 
ATOM     16  O   LIG d   1      -5.261  77.704 116.187  0.00  0.00    -0.276 OA
ATOM     17  H   LIG d   1      -6.834  78.221 118.878  0.00  0.00     0.149 HD
ENDBRANCH   6  13
BRANCH   5  18
ATOM     18  N   LIG d   1      -3.158  78.245 118.748  0.00  0.00     0.381 N 
ATOM     19  H   LIG d   1      -2.294  78.259 119.252  0.00  0.00    -0.090 HD
ATOM     20  H   LIG d   1      -2.966  78.462 117.786  0.00  0.00    -0.090 HD
ATOM     21  H   LIG d   1      -3.575  77.342 118.815  0.00  0.00    -0.090 HD
ENDBRANCH   5  18
BRANCH   3  22
ATOM     22  C   LIG d   1      -3.463  82.603 120.709  0.00  0.00     0.382 C 
ATOM     23  O   LIG d   1      -4.181  83.327 121.442  0.00  0.00    -0.241 OA
ATOM     24  O   LIG d   1      -2.233  82.793 120.677  0.00  0.00    -0.241 OA
ENDBRANCH   3  22
TORSDOF 7
ENDMDL
