MODEL 1
REMARK VINA RESULT:      -4.6      0.000      0.000
REMARK  7 active torsions:
REMARK  status: ('A' for Active; 'I' for Inactive)
REMARK    1  A    between atoms: C_2  and  C_3 
REMARK    2  A    between atoms: C_3  and  O_6 
REMARK    3  A    between atoms: C_3  and  C_4 
REMARK    4  A    between atoms: C_7  and  O_6 
REMARK    5  A    between atoms: C_9  and  C_10 
REMARK    6  A    between atoms: N_15  and  C_14 
REMARK    7  A    between atoms: N_20  and  C_19 
REMARK       I    between atoms: C_22  and  N_20 
ROOT
ATOM      1  C   LIG d   1      -6.594  78.789 117.883  0.00  0.00     0.161 C 
ATOM      2  C   LIG d   1      -6.734  77.416 117.618  0.00  0.00     0.016 C 
ATOM      3  C   LIG d   1      -7.940  76.705 117.815  0.00  0.00     0.038 C 
ATOM      4  C   LIG d   1      -9.137  77.354 118.149  0.00  0.00     0.028 C 
ATOM      5  C   LIG d   1      -8.928  78.656 118.915  0.00  0.00    -0.047 C 
ATOM      6  C   LIG d   1      -7.919  79.536 118.142  0.00  0.00     0.091 C 
ENDROOT
BRANCH   1   7
ATOM      7  O   LIG d   1      -5.863  79.420 116.813  0.00  0.00    -0.368 OA
BRANCH   7   8
ATOM      8  C   LIG d   1      -4.519  79.857 117.131  0.00  0.00     0.119 C 
BRANCH   8   9
ATOM      9  C   LIG d   1      -3.543  78.963 116.342  0.00  0.00     0.028 C 
ATOM     10  C   LIG d   1      -2.960  77.829 117.202  0.00  0.00     0.006 C 
ENDBRANCH   8   9
BRANCH   8  11
ATOM     11  C   LIG d   1      -4.188  79.615 118.607  0.00  0.00     0.028 C 
ATOM     12  C   LIG d   1      -3.942  80.918 119.384  0.00  0.00     0.006 C 
ENDBRANCH   8  11
ENDBRANCH   7   8
ENDBRANCH   1   7
BRANCH   6  13
ATOM     13  N   LIG d   1      -7.593  80.793 118.865  0.00  0.00    -0.311 N 
ATOM     14  C   LIG d   1      -7.524  81.983 118.271  0.00  0.00     0.210 C 
ATOM     15  C   LIG d   1      -7.153  83.146 119.196  0.00  0.00     0.109 C 
ATOM     16  O   LIG d   1      -7.766  82.191 117.073  0.00  0.00    -0.276 OA
ATOM     17  H   LIG d   1      -7.412  80.720 119.847  0.00  0.00     0.149 HD
ENDBRANCH   6  13
BRANCH   5  18
ATOM     18  N   LIG d   1     -10.247  79.295 119.077  0.00  0.00     0.381 N 
ATOM     19  H   LIG d   1     -10.137  80.200 119.489  0.00  0.00    -0.090 HD
ATOM     20  H   LIG d   1     -10.806  78.734 119.696  0.00  0.00    -0.090 HD
ATOM     21  H   LIG d   1     -10.697  79.377 118.192  0.00  0.00    -0.090 HD
ENDBRANCH   5  18
BRANCH   3  22
ATOM     22  C   LIG d   1      -7.945  75.321 117.717  0.00  0.00     0.382 C 
ATOM     23  O   LIG d   1      -8.687  74.643 118.467  0.00  0.00    -0.241 OA
ATOM     24  O   LIG d   1      -7.186  74.742 116.917  0.00  0.00    -0.241 OA
ENDBRANCH   3  22
TORSDOF 7
ENDMDL
MODEL 2
REMARK VINA RESULT:      -4.4     11.836     14.137
REMARK  7 active torsions:
REMARK  status: ('A' for Active; 'I' for Inactive)
REMARK    1  A    between atoms: C_2  and  C_3 
REMARK    2  A    between atoms: C_3  and  O_6 
REMARK    3  A    between atoms: C_3  and  C_4 
REMARK    4  A    between atoms: C_7  and  O_6 
REMARK    5  A    between atoms: C_9  and  C_10 
REMARK    6  A    between atoms: N_15  and  C_14 
REMARK    7  A    between atoms: N_20  and  C_19 
REMARK       I    between atoms: C_22  and  N_20 
ROOT
ATOM      1  C   LIG d   1      -6.144  92.226 119.761  0.00  0.00     0.161 C 
ATOM      2  C   LIG d   1      -6.273  91.307 118.706  0.00  0.00     0.016 C 
ATOM      3  C   LIG d   1      -6.714  91.665 117.411  0.00  0.00     0.038 C 
ATOM      4  C   LIG d   1      -6.913  93.003 117.040  0.00  0.00     0.028 C 
ATOM      5  C   LIG d   1      -7.282  93.909 118.210  0.00  0.00    -0.047 C 
ATOM      6  C   LIG d   1      -6.250  93.708 119.344  0.00  0.00     0.091 C 
ENDROOT
BRANCH   1   7
ATOM      7  O   LIG d   1      -4.909  91.991 120.465  0.00  0.00    -0.368 OA
BRANCH   7   8
ATOM      8  C   LIG d   1      -3.796  91.527 119.663  0.00  0.00     0.119 C 
BRANCH   8   9
ATOM      9  C   LIG d   1      -3.089  90.409 120.454  0.00  0.00     0.028 C 
ATOM     10  C   LIG d   1      -3.455  89.006 119.941  0.00  0.00     0.006 C 
ENDBRANCH   8   9
BRANCH   8  11
ATOM     11  C   LIG d   1      -2.743  92.625 119.483  0.00  0.00     0.028 C 
ATOM     12  C   LIG d   1      -2.697  93.178 118.050  0.00  0.00     0.006 C 
ENDBRANCH   8  11
ENDBRANCH   7   8
ENDBRANCH   1   7
BRANCH   6  13
ATOM     13  N   LIG d   1      -6.585  94.494 120.560  0.00  0.00    -0.311 N 
ATOM     14  C   LIG d   1      -6.083  95.701 120.813  0.00  0.00     0.210 C 
ATOM     15  C   LIG d   1      -6.542  96.329 122.133  0.00  0.00     0.109 C 
ATOM     16  O   LIG d   1      -5.325  96.326 120.055  0.00  0.00    -0.276 OA
ATOM     17  H   LIG d   1      -7.217  94.076 121.214  0.00  0.00     0.149 HD
ENDBRANCH   6  13
BRANCH   5  18
ATOM     18  N   LIG d   1      -7.324  95.294 117.706  0.00  0.00     0.381 N 
ATOM     19  H   LIG d   1      -8.263  95.637 117.736  0.00  0.00    -0.090 HD
ATOM     20  H   LIG d   1      -7.016  95.302 116.749  0.00  0.00    -0.090 HD
ATOM     21  H   LIG d   1      -6.732  95.876 118.257  0.00  0.00    -0.090 HD
ENDBRANCH   5  18
BRANCH   3  22
ATOM     22  C   LIG d   1      -6.998  90.675 116.483  0.00  0.00     0.382 C 
ATOM     23  O   LIG d   1      -8.174  90.256 116.354  0.00  0.00    -0.241 OA
ATOM     24  O   LIG d   1      -6.087  90.164 115.805  0.00  0.00    -0.241 OA
ENDBRANCH   3  22
TORSDOF 7
ENDMDL
MODEL 3
REMARK VINA RESULT:      -4.3     14.767     17.138
REMARK  7 active torsions:
REMARK  status: ('A' for Active; 'I' for Inactive)
REMARK    1  A    between atoms: C_2  and  C_3 
REMARK    2  A    between atoms: C_3  and  O_6 
REMARK    3  A    between atoms: C_3  and  C_4 
REMARK    4  A    between atoms: C_7  and  O_6 
REMARK    5  A    between atoms: C_9  and  C_10 
REMARK    6  A    between atoms: N_15  and  C_14 
REMARK    7  A    between atoms: N_20  and  C_19 
REMARK       I    between atoms: C_22  and  N_20 
ROOT
ATOM      1  C   LIG d   1     -15.987  65.238 119.455  0.00  0.00     0.161 C 
ATOM      2  C   LIG d   1     -15.539  66.344 120.197  0.00  0.00     0.016 C 
ATOM      3  C   LIG d   1     -14.367  66.328 120.987  0.00  0.00     0.038 C 
ATOM      4  C   LIG d   1     -13.476  65.246 120.970  0.00  0.00     0.028 C 
ATOM      5  C   LIG d   1     -14.143  63.917 120.632  0.00  0.00    -0.047 C 
ATOM      6  C   LIG d   1     -14.968  64.085 119.335  0.00  0.00     0.091 C 
ENDROOT
BRANCH   1   7
ATOM      7  O   LIG d   1     -16.413  65.668 118.147  0.00  0.00    -0.368 OA
BRANCH   7   8
ATOM      8  C   LIG d   1     -15.455  65.493 117.075  0.00  0.00     0.119 C 
BRANCH   8   9
ATOM      9  C   LIG d   1     -15.076  66.896 116.559  0.00  0.00     0.028 C 
ATOM     10  C   LIG d   1     -16.297  67.821 116.425  0.00  0.00     0.006 C 
ENDBRANCH   8   9
BRANCH   8  11
ATOM     11  C   LIG d   1     -16.083  64.777 115.876  0.00  0.00     0.028 C 
ATOM     12  C   LIG d   1     -17.517  64.298 116.153  0.00  0.00     0.006 C 
ENDBRANCH   8  11
ENDBRANCH   7   8
ENDBRANCH   1   7
BRANCH   6  13
ATOM     13  N   LIG d   1     -15.722  62.855 118.979  0.00  0.00    -0.311 N 
ATOM     14  C   LIG d   1     -15.258  61.927 118.144  0.00  0.00     0.210 C 
ATOM     15  C   LIG d   1     -16.204  60.747 117.898  0.00  0.00     0.109 C 
ATOM     16  O   LIG d   1     -14.140  61.954 117.608  0.00  0.00    -0.276 OA
ATOM     17  H   LIG d   1     -16.626  62.738 119.393  0.00  0.00     0.149 HD
ENDBRANCH   6  13
BRANCH   5  18
ATOM     18  N   LIG d   1     -13.080  62.901 120.512  0.00  0.00     0.381 N 
ATOM     19  H   LIG d   1     -13.080  62.314 121.322  0.00  0.00    -0.090 HD
ATOM     20  H   LIG d   1     -12.191  63.366 120.460  0.00  0.00    -0.090 HD
ATOM     21  H   LIG d   1     -13.224  62.351 119.694  0.00  0.00    -0.090 HD
ENDBRANCH   5  18
BRANCH   3  22
ATOM     22  C   LIG d   1     -14.098  67.390 121.838  0.00  0.00     0.382 C 
ATOM     23  O   LIG d   1     -12.918  67.624 122.195  0.00  0.00    -0.241 OA
ATOM     24  O   LIG d   1     -15.025  68.089 122.290  0.00  0.00    -0.241 OA
ENDBRANCH   3  22
TORSDOF 7
ENDMDL
MODEL 4
REMARK VINA RESULT:      -4.2     10.429     13.690
REMARK  7 active torsions:
REMARK  status: ('A' for Active; 'I' for Inactive)
REMARK    1  A    between atoms: C_2  and  C_3 
REMARK    2  A    between atoms: C_3  and  O_6 
REMARK    3  A    between atoms: C_3  and  C_4 
REMARK    4  A    between atoms: C_7  and  O_6 
REMARK    5  A    between atoms: C_9  and  C_10 
REMARK    6  A    between atoms: N_15  and  C_14 
REMARK    7  A    between atoms: N_20  and  C_19 
REMARK       I    between atoms: C_22  and  N_20 
ROOT
ATOM      1  C   LIG d   1      -1.774  90.513 117.791  0.00  0.00     0.161 C 
ATOM      2  C   LIG d   1      -0.586  90.859 118.456  0.00  0.00     0.016 C 
ATOM      3  C   LIG d   1      -0.396  92.094 119.118  0.00  0.00     0.038 C 
ATOM      4  C   LIG d   1      -1.443  93.011 119.290  0.00  0.00     0.028 C 
ATOM      5  C   LIG d   1      -2.509  92.925 118.203  0.00  0.00    -0.047 C 
ATOM      6  C   LIG d   1      -2.965  91.455 118.062  0.00  0.00     0.091 C 
ENDROOT
BRANCH   1   7
ATOM      7  O   LIG d   1      -2.130  89.152 118.103  0.00  0.00    -0.368 OA
BRANCH   7   8
ATOM      8  C   LIG d   1      -1.863  88.718 119.459  0.00  0.00     0.119 C 
BRANCH   8   9
ATOM      9  C   LIG d   1      -1.261  87.302 119.383  0.00  0.00     0.028 C 
ATOM     10  C   LIG d   1      -2.080  86.272 120.179  0.00  0.00     0.006 C 
ENDBRANCH   8   9
BRANCH   8  11
ATOM     11  C   LIG d   1      -3.159  88.565 120.261  0.00  0.00     0.028 C 
ATOM     12  C   LIG d   1      -3.359  89.689 121.290  0.00  0.00     0.006 C 
ENDBRANCH   8  11
ENDBRANCH   7   8
ENDBRANCH   1   7
BRANCH   6  13
ATOM     13  N   LIG d   1      -3.946  91.269 116.962  0.00  0.00    -0.311 N 
ATOM     14  C   LIG d   1      -5.217  90.926 117.163  0.00  0.00     0.210 C 
ATOM     15  C   LIG d   1      -6.053  90.767 115.889  0.00  0.00     0.109 C 
ATOM     16  O   LIG d   1      -5.740  90.769 118.277  0.00  0.00    -0.276 OA
ATOM     17  H   LIG d   1      -3.614  91.406 116.027  0.00  0.00     0.149 HD
ENDBRANCH   6  13
BRANCH   5  18
ATOM     18  N   LIG d   1      -3.605  93.838 118.580  0.00  0.00     0.381 N 
ATOM     19  H   LIG d   1      -3.715  94.543 117.879  0.00  0.00    -0.090 HD
ATOM     20  H   LIG d   1      -3.369  94.289 119.446  0.00  0.00    -0.090 HD
ATOM     21  H   LIG d   1      -4.454  93.326 118.683  0.00  0.00    -0.090 HD
ENDBRANCH   5  18
BRANCH   3  22
ATOM     22  C   LIG d   1       0.864  92.438 119.583  0.00  0.00     0.382 C 
ATOM     23  O   LIG d   1       1.387  93.523 119.231  0.00  0.00    -0.241 OA
ATOM     24  O   LIG d   1       1.504  91.657 120.313  0.00  0.00    -0.241 OA
ENDBRANCH   3  22
TORSDOF 7
ENDMDL
MODEL 5
REMARK VINA RESULT:      -4.2     12.728     15.434
REMARK  7 active torsions:
REMARK  status: ('A' for Active; 'I' for Inactive)
REMARK    1  A    between atoms: C_2  and  C_3 
REMARK    2  A    between atoms: C_3  and  O_6 
REMARK    3  A    between atoms: C_3  and  C_4 
REMARK    4  A    between atoms: C_7  and  O_6 
REMARK    5  A    between atoms: C_9  and  C_10 
REMARK    6  A    between atoms: N_15  and  C_14 
REMARK    7  A    between atoms: N_20  and  C_19 
REMARK       I    between atoms: C_22  and  N_20 
ROOT
ATOM      1  C   LIG d   1      -6.483  92.975 119.808  0.00  0.00     0.161 C 
ATOM      2  C   LIG d   1      -7.786  93.387 119.483  0.00  0.00     0.016 C 
ATOM      3  C   LIG d   1      -8.110  94.706 119.089  0.00  0.00     0.038 C 
ATOM      4  C   LIG d   1      -7.121  95.671 118.846  0.00  0.00     0.028 C 
ATOM      5  C   LIG d   1      -5.844  95.444 119.647  0.00  0.00    -0.047 C 
ATOM      6  C   LIG d   1      -5.375  93.985 119.441  0.00  0.00     0.091 C 
ENDROOT
BRANCH   1   7
ATOM      7  O   LIG d   1      -6.212  91.694 119.207  0.00  0.00    -0.368 OA
BRANCH   7   8
ATOM      8  C   LIG d   1      -5.519  91.720 117.934  0.00  0.00     0.119 C 
BRANCH   8   9
ATOM      9  C   LIG d   1      -6.536  91.326 116.846  0.00  0.00     0.028 C 
ATOM     10  C   LIG d   1      -6.744  92.440 115.806  0.00  0.00     0.006 C 
ENDBRANCH   8   9
BRANCH   8  11
ATOM     11  C   LIG d   1      -4.425  90.651 117.873  0.00  0.00     0.028 C 
ATOM     12  C   LIG d   1      -3.974  90.179 119.265  0.00  0.00     0.006 C 
ENDBRANCH   8  11
ENDBRANCH   7   8
ENDBRANCH   1   7
BRANCH   6  13
ATOM     13  N   LIG d   1      -4.178  93.654 120.257  0.00  0.00    -0.311 N 
ATOM     14  C   LIG d   1      -2.935  93.683 119.778  0.00  0.00     0.210 C 
ATOM     15  C   LIG d   1      -1.847  93.287 120.782  0.00  0.00     0.109 C 
ATOM     16  O   LIG d   1      -2.627  94.029 118.628  0.00  0.00    -0.276 OA
ATOM     17  H   LIG d   1      -4.333  93.392 121.210  0.00  0.00     0.149 HD
ENDBRANCH   6  13
BRANCH   5  18
ATOM     18  N   LIG d   1      -4.852  96.438 119.195  0.00  0.00     0.381 N 
ATOM     19  H   LIG d   1      -4.485  96.933 119.983  0.00  0.00    -0.090 HD
ATOM     20  H   LIG d   1      -5.307  97.100 118.592  0.00  0.00    -0.090 HD
ATOM     21  H   LIG d   1      -4.113  95.984 118.705  0.00  0.00    -0.090 HD
ENDBRANCH   5  18
BRANCH   3  22
ATOM     22  C   LIG d   1      -9.440  95.081 118.973  0.00  0.00     0.382 C 
ATOM     23  O   LIG d   1      -9.791  95.870 118.063  0.00  0.00    -0.241 OA
ATOM     24  O   LIG d   1     -10.285  94.677 119.794  0.00  0.00    -0.241 OA
ENDBRANCH   3  22
TORSDOF 7
ENDMDL
MODEL 6
REMARK VINA RESULT:      -4.2     20.203     22.067
REMARK  7 active torsions:
REMARK  status: ('A' for Active; 'I' for Inactive)
REMARK    1  A    between atoms: C_2  and  C_3 
REMARK    2  A    between atoms: C_3  and  O_6 
REMARK    3  A    between atoms: C_3  and  C_4 
REMARK    4  A    between atoms: C_7  and  O_6 
REMARK    5  A    between atoms: C_9  and  C_10 
REMARK    6  A    between atoms: N_15  and  C_14 
REMARK    7  A    between atoms: N_20  and  C_19 
REMARK       I    between atoms: C_22  and  N_20 
ROOT
ATOM      1  C   LIG d   1     -20.263  96.627 119.717  0.00  0.00     0.161 C 
ATOM      2  C   LIG d   1     -20.071  95.365 120.303  0.00  0.00     0.016 C 
ATOM      3  C   LIG d   1     -20.848  94.229 119.979  0.00  0.00     0.038 C 
ATOM      4  C   LIG d   1     -21.778  94.242 118.929  0.00  0.00     0.028 C 
ATOM      5  C   LIG d   1     -22.359  95.625 118.652  0.00  0.00    -0.047 C 
ATOM      6  C   LIG d   1     -21.198  96.633 118.490  0.00  0.00     0.091 C 
ENDROOT
BRANCH   1   7
ATOM      7  O   LIG d   1     -18.988  97.208 119.379  0.00  0.00    -0.368 OA
BRANCH   7   8
ATOM      8  C   LIG d   1     -18.259  96.564 118.306  0.00  0.00     0.119 C 
BRANCH   8   9
ATOM      9  C   LIG d   1     -16.854  96.223 118.840  0.00  0.00     0.028 C 
ATOM     10  C   LIG d   1     -16.474  97.065 120.070  0.00  0.00     0.006 C 
ENDBRANCH   8   9
BRANCH   8  11
ATOM     11  C   LIG d   1     -18.026  97.524 117.135  0.00  0.00     0.028 C 
ATOM     12  C   LIG d   1     -18.576  96.986 115.805  0.00  0.00     0.006 C 
ENDBRANCH   8  11
ENDBRANCH   7   8
ENDBRANCH   1   7
BRANCH   6  13
ATOM     13  N   LIG d   1     -21.681  98.026 118.300  0.00  0.00    -0.311 N 
ATOM     14  C   LIG d   1     -21.928  98.560 117.105  0.00  0.00     0.210 C 
ATOM     15  C   LIG d   1     -22.398 100.018 117.132  0.00  0.00     0.109 C 
ATOM     16  O   LIG d   1     -21.833  97.954 116.026  0.00  0.00    -0.276 OA
ATOM     17  H   LIG d   1     -21.814  98.579 119.124  0.00  0.00     0.149 HD
ENDBRANCH   6  13
BRANCH   5  18
ATOM     18  N   LIG d   1     -23.205  95.520 117.448  0.00  0.00     0.381 N 
ATOM     19  H   LIG d   1     -24.089  95.957 117.617  0.00  0.00    -0.090 HD
ATOM     20  H   LIG d   1     -23.367  94.548 117.249  0.00  0.00    -0.090 HD
ATOM     21  H   LIG d   1     -22.753  95.955 116.674  0.00  0.00    -0.090 HD
ENDBRANCH   5  18
BRANCH   3  22
ATOM     22  C   LIG d   1     -20.726  93.074 120.736  0.00  0.00     0.382 C 
ATOM     23  O   LIG d   1     -21.184  93.038 121.904  0.00  0.00    -0.241 OA
ATOM     24  O   LIG d   1     -20.125  92.082 120.283  0.00  0.00    -0.241 OA
ENDBRANCH   3  22
TORSDOF 7
ENDMDL
MODEL 7
REMARK VINA RESULT:      -4.2      2.202      3.921
REMARK  7 active torsions:
REMARK  status: ('A' for Active; 'I' for Inactive)
REMARK    1  A    between atoms: C_2  and  C_3 
REMARK    2  A    between atoms: C_3  and  O_6 
REMARK    3  A    between atoms: C_3  and  C_4 
REMARK    4  A    between atoms: C_7  and  O_6 
REMARK    5  A    between atoms: C_9  and  C_10 
REMARK    6  A    between atoms: N_15  and  C_14 
REMARK    7  A    between atoms: N_20  and  C_19 
REMARK       I    between atoms: C_22  and  N_20 
ROOT
ATOM      1  C   LIG d   1      -6.652  79.413 117.818  0.00  0.00     0.161 C 
ATOM      2  C   LIG d   1      -7.512  78.341 117.525  0.00  0.00     0.016 C 
ATOM      3  C   LIG d   1      -7.675  77.220 118.371  0.00  0.00     0.038 C 
ATOM      4  C   LIG d   1      -7.097  77.166 119.649  0.00  0.00     0.028 C 
ATOM      5  C   LIG d   1      -5.822  77.993 119.773  0.00  0.00    -0.047 C 
ATOM      6  C   LIG d   1      -6.099  79.423 119.258  0.00  0.00     0.091 C 
ENDROOT
BRANCH   1   7
ATOM      7  O   LIG d   1      -7.310  80.661 117.524  0.00  0.00    -0.368 OA
BRANCH   7   8
ATOM      8  C   LIG d   1      -8.108  81.228 118.592  0.00  0.00     0.119 C 
BRANCH   8   9
ATOM      9  C   LIG d   1      -9.572  81.259 118.110  0.00  0.00     0.028 C 
ATOM     10  C   LIG d   1      -9.855  82.442 117.169  0.00  0.00     0.006 C 
ENDBRANCH   8   9
BRANCH   8  11
ATOM     11  C   LIG d   1      -7.736  82.691 118.851  0.00  0.00     0.028 C 
ATOM     12  C   LIG d   1      -7.849  83.081 120.333  0.00  0.00     0.006 C 
ENDBRANCH   8  11
ENDBRANCH   7   8
ENDBRANCH   1   7
BRANCH   6  13
ATOM     13  N   LIG d   1      -4.881  80.275 119.266  0.00  0.00    -0.311 N 
ATOM     14  C   LIG d   1      -4.552  81.074 120.279  0.00  0.00     0.210 C 
ATOM     15  C   LIG d   1      -3.265  81.880 120.074  0.00  0.00     0.109 C 
ATOM     16  O   LIG d   1      -5.185  81.168 121.341  0.00  0.00    -0.276 OA
ATOM     17  H   LIG d   1      -4.293  80.237 118.456  0.00  0.00     0.149 HD
ENDBRANCH   6  13
BRANCH   5  18
ATOM     18  N   LIG d   1      -5.404  77.958 121.187  0.00  0.00     0.381 N 
ATOM     19  H   LIG d   1      -6.211  77.949 121.779  0.00  0.00    -0.090 HD
ATOM     20  H   LIG d   1      -4.873  78.786 121.390  0.00  0.00    -0.090 HD
ATOM     21  H   LIG d   1      -4.848  77.149 121.358  0.00  0.00    -0.090 HD
ENDBRANCH   5  18
BRANCH   3  22
ATOM     22  C   LIG d   1      -8.390  76.120 117.925  0.00  0.00     0.382 C 
ATOM     23  O   LIG d   1      -7.802  75.030 117.722  0.00  0.00    -0.241 OA
ATOM     24  O   LIG d   1      -9.608  76.215 117.679  0.00  0.00    -0.241 OA
ENDBRANCH   3  22
TORSDOF 7
ENDMDL
MODEL 8
REMARK VINA RESULT:      -4.1     12.278     14.461
REMARK  7 active torsions:
REMARK  status: ('A' for Active; 'I' for Inactive)
REMARK    1  A    between atoms: C_2  and  C_3 
REMARK    2  A    between atoms: C_3  and  O_6 
REMARK    3  A    between atoms: C_3  and  C_4 
REMARK    4  A    between atoms: C_7  and  O_6 
REMARK    5  A    between atoms: C_9  and  C_10 
REMARK    6  A    between atoms: N_15  and  C_14 
REMARK    7  A    between atoms: N_20  and  C_19 
REMARK       I    between atoms: C_22  and  N_20 
ROOT
ATOM      1  C   LIG d   1      -3.281  92.515 117.737  0.00  0.00     0.161 C 
ATOM      2  C   LIG d   1      -4.600  92.719 118.176  0.00  0.00     0.016 C 
ATOM      3  C   LIG d   1      -5.365  91.726 118.831  0.00  0.00     0.038 C 
ATOM      4  C   LIG d   1      -4.805  90.503 119.230  0.00  0.00     0.028 C 
ATOM      5  C   LIG d   1      -3.631  90.063 118.362  0.00  0.00    -0.047 C 
ATOM      6  C   LIG d   1      -2.617  91.225 118.262  0.00  0.00     0.091 C 
ENDROOT
BRANCH   1   7
ATOM      7  O   LIG d   1      -2.475  93.664 118.066  0.00  0.00    -0.368 OA
BRANCH   7   8
ATOM      8  C   LIG d   1      -1.960  93.715 119.419  0.00  0.00     0.119 C 
BRANCH   8   9
ATOM      9  C   LIG d   1      -2.656  94.889 120.135  0.00  0.00     0.028 C 
ATOM     10  C   LIG d   1      -2.765  96.138 119.245  0.00  0.00     0.006 C 
ENDBRANCH   8   9
BRANCH   8  11
ATOM     11  C   LIG d   1      -0.467  94.058 119.435  0.00  0.00     0.028 C 
ATOM     12  C   LIG d   1       0.148  94.108 118.027  0.00  0.00     0.006 C 
ENDBRANCH   8  11
ENDBRANCH   7   8
ENDBRANCH   1   7
BRANCH   6  13
ATOM     13  N   LIG d   1      -1.478  90.908 117.363  0.00  0.00    -0.311 N 
ATOM     14  C   LIG d   1      -0.298  90.471 117.800  0.00  0.00     0.210 C 
ATOM     15  C   LIG d   1       0.746  90.223 116.706  0.00  0.00     0.109 C 
ATOM     16  O   LIG d   1      -0.027  90.235 118.987  0.00  0.00    -0.276 OA
ATOM     17  H   LIG d   1      -1.621  91.042 116.381  0.00  0.00     0.149 HD
ENDBRANCH   6  13
BRANCH   5  18
ATOM     18  N   LIG d   1      -3.058  88.847 118.971  0.00  0.00     0.381 N 
ATOM     19  H   LIG d   1      -3.178  88.877 119.964  0.00  0.00    -0.090 HD
ATOM     20  H   LIG d   1      -2.073  88.818 118.774  0.00  0.00    -0.090 HD
ATOM     21  H   LIG d   1      -3.504  88.037 118.600  0.00  0.00    -0.090 HD
ENDBRANCH   5  18
BRANCH   3  22
ATOM     22  C   LIG d   1      -6.716  91.938 119.058  0.00  0.00     0.382 C 
ATOM     23  O   LIG d   1      -7.519  91.950 118.095  0.00  0.00    -0.241 OA
ATOM     24  O   LIG d   1      -7.136  92.160 120.210  0.00  0.00    -0.241 OA
ENDBRANCH   3  22
TORSDOF 7
ENDMDL
MODEL 9
REMARK VINA RESULT:      -4.1     12.759     14.901
REMARK  7 active torsions:
REMARK  status: ('A' for Active; 'I' for Inactive)
REMARK    1  A    between atoms: C_2  and  C_3 
REMARK    2  A    between atoms: C_3  and  O_6 
REMARK    3  A    between atoms: C_3  and  C_4 
REMARK    4  A    between atoms: C_7  and  O_6 
REMARK    5  A    between atoms: C_9  and  C_10 
REMARK    6  A    between atoms: N_15  and  C_14 
REMARK    7  A    between atoms: N_20  and  C_19 
REMARK       I    between atoms: C_22  and  N_20 
ROOT
ATOM      1  C   LIG d   1      -3.999  92.953 118.912  0.00  0.00     0.161 C 
ATOM      2  C   LIG d   1      -5.259  93.535 119.131  0.00  0.00     0.016 C 
ATOM      3  C   LIG d   1      -6.430  93.136 118.447  0.00  0.00     0.038 C 
ATOM      4  C   LIG d   1      -6.449  92.017 117.601  0.00  0.00     0.028 C 
ATOM      5  C   LIG d   1      -5.096  91.716 116.965  0.00  0.00    -0.047 C 
ATOM      6  C   LIG d   1      -4.022  91.658 118.074  0.00  0.00     0.091 C 
ENDROOT
BRANCH   1   7
ATOM      7  O   LIG d   1      -3.341  92.723 120.174  0.00  0.00    -0.368 OA
BRANCH   7   8
ATOM      8  C   LIG d   1      -2.060  93.374 120.353  0.00  0.00     0.119 C 
BRANCH   8   9
ATOM      9  C   LIG d   1      -2.130  94.183 121.663  0.00  0.00     0.028 C 
ATOM     10  C   LIG d   1      -2.991  95.450 121.525  0.00  0.00     0.006 C 
ENDBRANCH   8   9
BRANCH   8  11
ATOM     11  C   LIG d   1      -1.801  94.408 119.252  0.00  0.00     0.028 C 
ATOM     12  C   LIG d   1      -0.350  94.389 118.746  0.00  0.00     0.006 C 
ENDBRANCH   8  11
ENDBRANCH   7   8
ENDBRANCH   1   7
BRANCH   6  13
ATOM     13  N   LIG d   1      -2.655  91.451 117.529  0.00  0.00    -0.311 N 
ATOM     14  C   LIG d   1      -1.816  90.522 117.985  0.00  0.00     0.210 C 
ATOM     15  C   LIG d   1      -0.448  90.491 117.296  0.00  0.00     0.109 C 
ATOM     16  O   LIG d   1      -2.088  89.699 118.872  0.00  0.00    -0.276 OA
ATOM     17  H   LIG d   1      -2.364  92.055 116.785  0.00  0.00     0.149 HD
ENDBRANCH   6  13
BRANCH   5  18
ATOM     18  N   LIG d   1      -5.227  90.449 116.219  0.00  0.00     0.381 N 
ATOM     19  H   LIG d   1      -5.918  89.870 116.653  0.00  0.00    -0.090 HD
ATOM     20  H   LIG d   1      -4.347  89.964 116.246  0.00  0.00    -0.090 HD
ATOM     21  H   LIG d   1      -5.483  90.634 115.275  0.00  0.00    -0.090 HD
ENDBRANCH   5  18
BRANCH   3  22
ATOM     22  C   LIG d   1      -7.590  93.883 118.577  0.00  0.00     0.382 C 
ATOM     23  O   LIG d   1      -8.028  94.536 117.598  0.00  0.00    -0.241 OA
ATOM     24  O   LIG d   1      -8.180  93.950 119.672  0.00  0.00    -0.241 OA
ENDBRANCH   3  22
TORSDOF 7
ENDMDL
