MODEL 1
REMARK VINA RESULT:      -4.9      0.000      0.000
REMARK  7 active torsions:
REMARK  status: ('A' for Active; 'I' for Inactive)
REMARK    1  A    between atoms: C_2  and  C_3 
REMARK    2  A    between atoms: C_3  and  O_6 
REMARK    3  A    between atoms: C_3  and  C_4 
REMARK    4  A    between atoms: C_7  and  O_6 
REMARK    5  A    between atoms: C_9  and  C_10 
REMARK    6  A    between atoms: N_15  and  C_14 
REMARK    7  A    between atoms: N_20  and  C_19 
REMARK       I    between atoms: C_22  and  N_20 
ROOT
ATOM      1  C   LIG d   1      -5.279  92.858 119.575  0.00  0.00     0.161 C 
ATOM      2  C   LIG d   1      -4.152  92.156 119.116  0.00  0.00     0.016 C 
ATOM      3  C   LIG d   1      -4.002  91.710 117.783  0.00  0.00     0.038 C 
ATOM      4  C   LIG d   1      -4.908  92.071 116.775  0.00  0.00     0.028 C 
ATOM      5  C   LIG d   1      -6.314  92.350 117.295  0.00  0.00    -0.047 C 
ATOM      6  C   LIG d   1      -6.226  93.357 118.464  0.00  0.00     0.091 C 
ENDROOT
BRANCH   1   7
ATOM      7  O   LIG d   1      -4.864  93.956 120.411  0.00  0.00    -0.368 OA
BRANCH   7   8
ATOM      8  C   LIG d   1      -4.360  95.126 119.721  0.00  0.00     0.119 C 
BRANCH   8   9
ATOM      9  C   LIG d   1      -2.859  95.246 120.049  0.00  0.00     0.028 C 
ATOM     10  C   LIG d   1      -1.974  95.144 118.795  0.00  0.00     0.006 C 
ENDBRANCH   8   9
BRANCH   8  11
ATOM     11  C   LIG d   1      -4.997  96.410 120.262  0.00  0.00     0.028 C 
ATOM     12  C   LIG d   1      -5.866  96.165 121.505  0.00  0.00     0.006 C 
ENDBRANCH   8  11
ENDBRANCH   7   8
ENDBRANCH   1   7
BRANCH   6  13
ATOM     13  N   LIG d   1      -7.550  93.620 119.086  0.00  0.00    -0.311 N 
ATOM     14  C   LIG d   1      -8.192  94.782 118.979  0.00  0.00     0.210 C 
ATOM     15  C   LIG d   1      -9.534  94.849 119.714  0.00  0.00     0.109 C 
ATOM     16  O   LIG d   1      -7.792  95.753 118.319  0.00  0.00    -0.276 OA
ATOM     17  H   LIG d   1      -7.962  92.876 119.614  0.00  0.00     0.149 HD
ENDBRANCH   6  13
BRANCH   5  18
ATOM     18  N   LIG d   1      -7.117  92.847 116.162  0.00  0.00     0.381 N 
ATOM     19  H   LIG d   1      -6.703  92.556 115.299  0.00  0.00    -0.090 HD
ATOM     20  H   LIG d   1      -7.125  93.851 116.185  0.00  0.00    -0.090 HD
ATOM     21  H   LIG d   1      -8.049  92.499 116.226  0.00  0.00    -0.090 HD
ENDBRANCH   5  18
BRANCH   3  22
ATOM     22  C   LIG d   1      -2.956  90.861 117.456  0.00  0.00     0.382 C 
ATOM     23  O   LIG d   1      -3.189  89.664 117.162  0.00  0.00    -0.241 OA
ATOM     24  O   LIG d   1      -1.778  91.264 117.494  0.00  0.00    -0.241 OA
ENDBRANCH   3  22
TORSDOF 7
ENDMDL
MODEL 2
REMARK VINA RESULT:      -4.6     14.440     17.222
REMARK  7 active torsions:
REMARK  status: ('A' for Active; 'I' for Inactive)
REMARK    1  A    between atoms: C_2  and  C_3 
REMARK    2  A    between atoms: C_3  and  O_6 
REMARK    3  A    between atoms: C_3  and  C_4 
REMARK    4  A    between atoms: C_7  and  O_6 
REMARK    5  A    between atoms: C_9  and  C_10 
REMARK    6  A    between atoms: N_15  and  C_14 
REMARK    7  A    between atoms: N_20  and  C_19 
REMARK       I    between atoms: C_22  and  N_20 
ROOT
ATOM      1  C   LIG d   1      -3.958  77.110 116.467  0.00  0.00     0.161 C 
ATOM      2  C   LIG d   1      -3.012  76.072 116.518  0.00  0.00     0.016 C 
ATOM      3  C   LIG d   1      -2.106  75.897 117.589  0.00  0.00     0.038 C 
ATOM      4  C   LIG d   1      -2.186  76.663 118.761  0.00  0.00     0.028 C 
ATOM      5  C   LIG d   1      -2.795  78.044 118.542  0.00  0.00    -0.047 C 
ATOM      6  C   LIG d   1      -4.135  77.888 117.788  0.00  0.00     0.091 C 
ENDROOT
BRANCH   1   7
ATOM      7  O   LIG d   1      -5.226  76.593 116.016  0.00  0.00    -0.368 OA
BRANCH   7   8
ATOM      8  C   LIG d   1      -5.785  75.507 116.795  0.00  0.00     0.119 C 
BRANCH   8   9
ATOM      9  C   LIG d   1      -6.271  74.430 115.805  0.00  0.00     0.028 C 
ATOM     10  C   LIG d   1      -7.117  73.343 116.489  0.00  0.00     0.006 C 
ENDBRANCH   8   9
BRANCH   8  11
ATOM     11  C   LIG d   1      -7.037  75.953 117.556  0.00  0.00     0.028 C 
ATOM     12  C   LIG d   1      -7.847  77.017 116.798  0.00  0.00     0.006 C 
ENDBRANCH   8  11
ENDBRANCH   7   8
ENDBRANCH   1   7
BRANCH   6  13
ATOM     13  N   LIG d   1      -4.756  79.197 117.458  0.00  0.00    -0.311 N 
ATOM     14  C   LIG d   1      -5.697  79.772 118.206  0.00  0.00     0.210 C 
ATOM     15  C   LIG d   1      -6.216  81.112 117.676  0.00  0.00     0.109 C 
ATOM     16  O   LIG d   1      -6.127  79.314 119.275  0.00  0.00    -0.276 OA
ATOM     17  H   LIG d   1      -4.443  79.654 116.624  0.00  0.00     0.149 HD
ENDBRANCH   6  13
BRANCH   5  18
ATOM     18  N   LIG d   1      -2.945  78.680 119.864  0.00  0.00     0.381 N 
ATOM     19  H   LIG d   1      -2.059  78.711 120.328  0.00  0.00    -0.090 HD
ATOM     20  H   LIG d   1      -3.573  78.127 120.421  0.00  0.00    -0.090 HD
ATOM     21  H   LIG d   1      -3.307  79.602 119.760  0.00  0.00    -0.090 HD
ENDBRANCH   5  18
BRANCH   3  22
ATOM     22  C   LIG d   1      -1.080  74.971 117.476  0.00  0.00     0.382 C 
ATOM     23  O   LIG d   1      -1.148  74.061 116.615  0.00  0.00    -0.241 OA
ATOM     24  O   LIG d   1      -0.107  75.009 118.253  0.00  0.00    -0.241 OA
ENDBRANCH   3  22
TORSDOF 7
ENDMDL
MODEL 3
REMARK VINA RESULT:      -4.6     12.790     15.764
REMARK  7 active torsions:
REMARK  status: ('A' for Active; 'I' for Inactive)
REMARK    1  A    between atoms: C_2  and  C_3 
REMARK    2  A    between atoms: C_3  and  O_6 
REMARK    3  A    between atoms: C_3  and  C_4 
REMARK    4  A    between atoms: C_7  and  O_6 
REMARK    5  A    between atoms: C_9  and  C_10 
REMARK    6  A    between atoms: N_15  and  C_14 
REMARK    7  A    between atoms: N_20  and  C_19 
REMARK       I    between atoms: C_22  and  N_20 
ROOT
ATOM      1  C   LIG d   1      -6.537  78.798 117.644  0.00  0.00     0.161 C 
ATOM      2  C   LIG d   1      -7.928  78.996 117.665  0.00  0.00     0.016 C 
ATOM      3  C   LIG d   1      -8.536  80.205 118.074  0.00  0.00     0.038 C 
ATOM      4  C   LIG d   1      -7.785  81.357 118.348  0.00  0.00     0.028 C 
ATOM      5  C   LIG d   1      -6.368  81.057 118.827  0.00  0.00    -0.047 C 
ATOM      6  C   LIG d   1      -5.699  80.080 117.833  0.00  0.00     0.091 C 
ENDROOT
BRANCH   1   7
ATOM      7  O   LIG d   1      -6.157  78.126 116.427  0.00  0.00    -0.368 OA
BRANCH   7   8
ATOM      8  C   LIG d   1      -5.872  76.711 116.543  0.00  0.00     0.119 C 
BRANCH   8   9
ATOM      9  C   LIG d   1      -4.546  76.443 115.805  0.00  0.00     0.028 C 
ATOM     10  C   LIG d   1      -3.450  75.907 116.742  0.00  0.00     0.006 C 
ENDBRANCH   8   9
BRANCH   8  11
ATOM     11  C   LIG d   1      -6.921  75.869 115.810  0.00  0.00     0.028 C 
ATOM     12  C   LIG d   1      -6.815  74.371 116.135  0.00  0.00     0.006 C 
ENDBRANCH   8  11
ENDBRANCH   7   8
ENDBRANCH   1   7
BRANCH   6  13
ATOM     13  N   LIG d   1      -4.340  79.668 118.272  0.00  0.00    -0.311 N 
ATOM     14  C   LIG d   1      -3.303  79.562 117.443  0.00  0.00     0.210 C 
ATOM     15  C   LIG d   1      -1.996  79.103 118.098  0.00  0.00     0.109 C 
ATOM     16  O   LIG d   1      -3.333  79.836 116.234  0.00  0.00    -0.276 OA
ATOM     17  H   LIG d   1      -4.219  79.458 119.243  0.00  0.00     0.149 HD
ENDBRANCH   6  13
BRANCH   5  18
ATOM     18  N   LIG d   1      -5.655  82.343 118.942  0.00  0.00     0.381 N 
ATOM     19  H   LIG d   1      -5.896  82.935 118.172  0.00  0.00    -0.090 HD
ATOM     20  H   LIG d   1      -4.666  82.171 118.909  0.00  0.00    -0.090 HD
ATOM     21  H   LIG d   1      -5.893  82.790 119.801  0.00  0.00    -0.090 HD
ENDBRANCH   5  18
BRANCH   3  22
ATOM     22  C   LIG d   1      -9.910  80.257 118.250  0.00  0.00     0.382 C 
ATOM     23  O   LIG d   1     -10.508  79.306 118.809  0.00  0.00    -0.241 OA
ATOM     24  O   LIG d   1     -10.567  81.224 117.819  0.00  0.00    -0.241 OA
ENDBRANCH   3  22
TORSDOF 7
ENDMDL
MODEL 4
REMARK VINA RESULT:      -4.5      1.962      3.203
REMARK  7 active torsions:
REMARK  status: ('A' for Active; 'I' for Inactive)
REMARK    1  A    between atoms: C_2  and  C_3 
REMARK    2  A    between atoms: C_3  and  O_6 
REMARK    3  A    between atoms: C_3  and  C_4 
REMARK    4  A    between atoms: C_7  and  O_6 
REMARK    5  A    between atoms: C_9  and  C_10 
REMARK    6  A    between atoms: N_15  and  C_14 
REMARK    7  A    between atoms: N_20  and  C_19 
REMARK       I    between atoms: C_22  and  N_20 
ROOT
ATOM      1  C   LIG d   1      -5.019  93.533 119.113  0.00  0.00     0.161 C 
ATOM      2  C   LIG d   1      -4.991  92.581 118.081  0.00  0.00     0.016 C 
ATOM      3  C   LIG d   1      -6.034  92.423 117.139  0.00  0.00     0.038 C 
ATOM      4  C   LIG d   1      -7.115  93.315 117.074  0.00  0.00     0.028 C 
ATOM      5  C   LIG d   1      -7.434  93.979 118.409  0.00  0.00    -0.047 C 
ATOM      6  C   LIG d   1      -6.138  94.589 118.989  0.00  0.00     0.091 C 
ENDROOT
BRANCH   1   7
ATOM      7  O   LIG d   1      -3.733  94.176 119.218  0.00  0.00    -0.368 OA
BRANCH   7   8
ATOM      8  C   LIG d   1      -2.579  93.340 118.960  0.00  0.00     0.119 C 
BRANCH   8   9
ATOM      9  C   LIG d   1      -1.839  93.146 120.297  0.00  0.00     0.028 C 
ATOM     10  C   LIG d   1      -2.036  94.333 121.255  0.00  0.00     0.006 C 
ENDBRANCH   8   9
BRANCH   8  11
ATOM     11  C   LIG d   1      -1.576  94.042 118.040  0.00  0.00     0.028 C 
ATOM     12  C   LIG d   1      -0.197  93.363 118.032  0.00  0.00     0.006 C 
ENDBRANCH   8  11
ENDBRANCH   7   8
ENDBRANCH   1   7
BRANCH   6  13
ATOM     13  N   LIG d   1      -6.344  95.185 120.335  0.00  0.00    -0.311 N 
ATOM     14  C   LIG d   1      -6.625  96.472 120.531  0.00  0.00     0.210 C 
ATOM     15  C   LIG d   1      -6.780  96.883 121.999  0.00  0.00     0.109 C 
ATOM     16  O   LIG d   1      -6.792  97.305 119.628  0.00  0.00    -0.276 OA
ATOM     17  H   LIG d   1      -6.258  94.573 121.123  0.00  0.00     0.149 HD
ENDBRANCH   6  13
BRANCH   5  18
ATOM     18  N   LIG d   1      -8.487  94.983 118.167  0.00  0.00     0.381 N 
ATOM     19  H   LIG d   1      -9.353  94.667 118.556  0.00  0.00    -0.090 HD
ATOM     20  H   LIG d   1      -8.609  95.094 117.176  0.00  0.00    -0.090 HD
ATOM     21  H   LIG d   1      -8.229  95.854 118.577  0.00  0.00    -0.090 HD
ENDBRANCH   5  18
BRANCH   3  22
ATOM     22  C   LIG d   1      -6.022  91.339 116.275  0.00  0.00     0.382 C 
ATOM     23  O   LIG d   1      -7.103  90.846 115.872  0.00  0.00    -0.241 OA
ATOM     24  O   LIG d   1      -4.944  90.820 115.928  0.00  0.00    -0.241 OA
ENDBRANCH   3  22
TORSDOF 7
ENDMDL
MODEL 5
REMARK VINA RESULT:      -4.5     12.564     14.997
REMARK  7 active torsions:
REMARK  status: ('A' for Active; 'I' for Inactive)
REMARK    1  A    between atoms: C_2  and  C_3 
REMARK    2  A    between atoms: C_3  and  O_6 
REMARK    3  A    between atoms: C_3  and  C_4 
REMARK    4  A    between atoms: C_7  and  O_6 
REMARK    5  A    between atoms: C_9  and  C_10 
REMARK    6  A    between atoms: N_15  and  C_14 
REMARK    7  A    between atoms: N_20  and  C_19 
REMARK       I    between atoms: C_22  and  N_20 
ROOT
ATOM      1  C   LIG d   1      -5.262  78.796 117.184  0.00  0.00     0.161 C 
ATOM      2  C   LIG d   1      -5.318  77.462 116.748  0.00  0.00     0.016 C 
ATOM      3  C   LIG d   1      -6.512  76.705 116.712  0.00  0.00     0.038 C 
ATOM      4  C   LIG d   1      -7.764  77.283 116.968  0.00  0.00     0.028 C 
ATOM      5  C   LIG d   1      -7.696  78.489 117.898  0.00  0.00    -0.047 C 
ATOM      6  C   LIG d   1      -6.635  79.477 117.361  0.00  0.00     0.091 C 
ENDROOT
BRANCH   1   7
ATOM      7  O   LIG d   1      -4.432  79.566 116.292  0.00  0.00    -0.368 OA
BRANCH   7   8
ATOM      8  C   LIG d   1      -3.157  80.002 116.824  0.00  0.00     0.119 C 
BRANCH   8   9
ATOM      9  C   LIG d   1      -2.063  79.133 116.175  0.00  0.00     0.028 C 
ATOM     10  C   LIG d   1      -1.618  77.975 117.085  0.00  0.00     0.006 C 
ENDBRANCH   8   9
BRANCH   8  11
ATOM     11  C   LIG d   1      -3.057  79.726 118.327  0.00  0.00     0.028 C 
ATOM     12  C   LIG d   1      -2.908  81.009 119.160  0.00  0.00     0.006 C 
ENDBRANCH   8  11
ENDBRANCH   7   8
ENDBRANCH   1   7
BRANCH   6  13
ATOM     13  N   LIG d   1      -6.444  80.647 118.258  0.00  0.00    -0.311 N 
ATOM     14  C   LIG d   1      -6.873  81.873 117.965  0.00  0.00     0.210 C 
ATOM     15  C   LIG d   1      -6.555  82.938 119.019  0.00  0.00     0.109 C 
ATOM     16  O   LIG d   1      -7.515  82.173 116.947  0.00  0.00    -0.276 OA
ATOM     17  H   LIG d   1      -5.960  80.487 119.120  0.00  0.00     0.149 HD
ENDBRANCH   6  13
BRANCH   5  18
ATOM     18  N   LIG d   1      -9.048  79.075 117.969  0.00  0.00     0.381 N 
ATOM     19  H   LIG d   1      -8.982  80.065 118.099  0.00  0.00    -0.090 HD
ATOM     20  H   LIG d   1      -9.530  78.685 118.760  0.00  0.00    -0.090 HD
ATOM     21  H   LIG d   1      -9.550  78.875 117.132  0.00  0.00    -0.090 HD
ENDBRANCH   5  18
BRANCH   3  22
ATOM     22  C   LIG d   1      -6.455  75.343 116.455  0.00  0.00     0.382 C 
ATOM     23  O   LIG d   1      -7.515  74.688 116.309  0.00  0.00    -0.241 OA
ATOM     24  O   LIG d   1      -5.359  74.754 116.412  0.00  0.00    -0.241 OA
ENDBRANCH   3  22
TORSDOF 7
ENDMDL
MODEL 6
REMARK VINA RESULT:      -4.4     10.383     12.472
REMARK  7 active torsions:
REMARK  status: ('A' for Active; 'I' for Inactive)
REMARK    1  A    between atoms: C_2  and  C_3 
REMARK    2  A    between atoms: C_3  and  O_6 
REMARK    3  A    between atoms: C_3  and  C_4 
REMARK    4  A    between atoms: C_7  and  O_6 
REMARK    5  A    between atoms: C_9  and  C_10 
REMARK    6  A    between atoms: N_15  and  C_14 
REMARK    7  A    between atoms: N_20  and  C_19 
REMARK       I    between atoms: C_22  and  N_20 
ROOT
ATOM      1  C   LIG d   1      -8.025  83.035 120.557  0.00  0.00     0.161 C 
ATOM      2  C   LIG d   1      -8.563  84.142 121.234  0.00  0.00     0.016 C 
ATOM      3  C   LIG d   1      -9.815  84.716 120.915  0.00  0.00     0.038 C 
ATOM      4  C   LIG d   1     -10.689  84.123 119.991  0.00  0.00     0.028 C 
ATOM      5  C   LIG d   1      -9.974  83.298 118.926  0.00  0.00    -0.047 C 
ATOM      6  C   LIG d   1      -9.012  82.307 119.620  0.00  0.00     0.091 C 
ENDROOT
BRANCH   1   7
ATOM      7  O   LIG d   1      -7.460  82.110 121.506  0.00  0.00    -0.368 OA
BRANCH   7   8
ATOM      8  C   LIG d   1      -6.013  82.054 121.558  0.00  0.00     0.119 C 
BRANCH   8   9
ATOM      9  C   LIG d   1      -5.477  82.768 120.302  0.00  0.00     0.028 C 
ATOM     10  C   LIG d   1      -4.623  81.841 119.419  0.00  0.00     0.006 C 
ENDBRANCH   8   9
BRANCH   8  11
ATOM     11  C   LIG d   1      -5.506  80.612 121.452  0.00  0.00     0.028 C 
ATOM     12  C   LIG d   1      -6.417  79.607 122.174  0.00  0.00     0.006 C 
ENDBRANCH   8  11
ENDBRANCH   7   8
ENDBRANCH   1   7
BRANCH   6  13
ATOM     13  N   LIG d   1      -8.211  81.519 118.648  0.00  0.00    -0.311 N 
ATOM     14  C   LIG d   1      -8.097  80.193 118.696  0.00  0.00     0.210 C 
ATOM     15  C   LIG d   1      -7.207  79.580 117.610  0.00  0.00     0.109 C 
ATOM     16  O   LIG d   1      -8.674  79.463 119.517  0.00  0.00    -0.276 OA
ATOM     17  H   LIG d   1      -7.735  82.029 117.930  0.00  0.00     0.149 HD
ENDBRANCH   6  13
BRANCH   5  18
ATOM     18  N   LIG d   1     -11.008  82.627 118.114  0.00  0.00     0.381 N 
ATOM     19  H   LIG d   1     -10.656  82.454 117.194  0.00  0.00    -0.090 HD
ATOM     20  H   LIG d   1     -11.805  83.234 118.038  0.00  0.00    -0.090 HD
ATOM     21  H   LIG d   1     -11.274  81.768 118.543  0.00  0.00    -0.090 HD
ENDBRANCH   5  18
BRANCH   3  22
ATOM     22  C   LIG d   1     -10.188  85.918 121.496  0.00  0.00     0.382 C 
ATOM     23  O   LIG d   1      -9.313  86.757 121.818  0.00  0.00    -0.241 OA
ATOM     24  O   LIG d   1     -11.386  86.157 121.742  0.00  0.00    -0.241 OA
ENDBRANCH   3  22
TORSDOF 7
ENDMDL
MODEL 7
REMARK VINA RESULT:      -4.4     11.317     13.879
REMARK  7 active torsions:
REMARK  status: ('A' for Active; 'I' for Inactive)
REMARK    1  A    between atoms: C_2  and  C_3 
REMARK    2  A    between atoms: C_3  and  O_6 
REMARK    3  A    between atoms: C_3  and  C_4 
REMARK    4  A    between atoms: C_7  and  O_6 
REMARK    5  A    between atoms: C_9  and  C_10 
REMARK    6  A    between atoms: N_15  and  C_14 
REMARK    7  A    between atoms: N_20  and  C_19 
REMARK       I    between atoms: C_22  and  N_20 
ROOT
ATOM      1  C   LIG d   1      -6.463  81.300 117.765  0.00  0.00     0.161 C 
ATOM      2  C   LIG d   1      -7.830  81.315 118.090  0.00  0.00     0.016 C 
ATOM      3  C   LIG d   1      -8.634  80.153 118.129  0.00  0.00     0.038 C 
ATOM      4  C   LIG d   1      -8.086  78.868 117.992  0.00  0.00     0.028 C 
ATOM      5  C   LIG d   1      -6.806  78.840 117.164  0.00  0.00    -0.047 C 
ATOM      6  C   LIG d   1      -5.825  79.896 117.722  0.00  0.00     0.091 C 
ENDROOT
BRANCH   1   7
ATOM      7  O   LIG d   1      -5.736  82.154 118.671  0.00  0.00    -0.368 OA
BRANCH   7   8
ATOM      8  C   LIG d   1      -5.667  81.709 120.049  0.00  0.00     0.119 C 
BRANCH   8   9
ATOM      9  C   LIG d   1      -6.216  82.847 120.931  0.00  0.00     0.028 C 
ATOM     10  C   LIG d   1      -6.348  84.173 120.163  0.00  0.00     0.006 C 
ENDBRANCH   8   9
BRANCH   8  11
ATOM     11  C   LIG d   1      -4.216  81.511 120.498  0.00  0.00     0.028 C 
ATOM     12  C   LIG d   1      -3.207  82.221 119.581  0.00  0.00     0.006 C 
ENDBRANCH   8  11
ENDBRANCH   7   8
ENDBRANCH   1   7
BRANCH   6  13
ATOM     13  N   LIG d   1      -4.579  79.993 116.917  0.00  0.00    -0.311 N 
ATOM     14  C   LIG d   1      -3.448  79.368 117.239  0.00  0.00     0.210 C 
ATOM     15  C   LIG d   1      -2.276  79.619 116.284  0.00  0.00     0.109 C 
ATOM     16  O   LIG d   1      -3.312  78.604 118.206  0.00  0.00    -0.276 OA
ATOM     17  H   LIG d   1      -4.609  80.568 116.098  0.00  0.00     0.149 HD
ENDBRANCH   6  13
BRANCH   5  18
ATOM     18  N   LIG d   1      -6.270  77.467 117.218  0.00  0.00     0.381 N 
ATOM     19  H   LIG d   1      -6.928  76.831 116.813  0.00  0.00    -0.090 HD
ATOM     20  H   LIG d   1      -6.133  77.209 118.180  0.00  0.00    -0.090 HD
ATOM     21  H   LIG d   1      -5.405  77.419 116.728  0.00  0.00    -0.090 HD
ENDBRANCH   5  18
BRANCH   3  22
ATOM     22  C   LIG d   1     -10.008  80.272 118.267  0.00  0.00     0.382 C 
ATOM     23  O   LIG d   1     -10.669  79.341 118.787  0.00  0.00    -0.241 OA
ATOM     24  O   LIG d   1     -10.601  81.280 117.838  0.00  0.00    -0.241 OA
ENDBRANCH   3  22
TORSDOF 7
ENDMDL
MODEL 8
REMARK VINA RESULT:      -4.3     12.125     14.154
REMARK  7 active torsions:
REMARK  status: ('A' for Active; 'I' for Inactive)
REMARK    1  A    between atoms: C_2  and  C_3 
REMARK    2  A    between atoms: C_3  and  O_6 
REMARK    3  A    between atoms: C_3  and  C_4 
REMARK    4  A    between atoms: C_7  and  O_6 
REMARK    5  A    between atoms: C_9  and  C_10 
REMARK    6  A    between atoms: N_15  and  C_14 
REMARK    7  A    between atoms: N_20  and  C_19 
REMARK       I    between atoms: C_22  and  N_20 
ROOT
ATOM      1  C   LIG d   1      -8.241  79.782 118.245  0.00  0.00     0.161 C 
ATOM      2  C   LIG d   1      -8.303  78.494 117.688  0.00  0.00     0.016 C 
ATOM      3  C   LIG d   1      -7.178  77.819 117.161  0.00  0.00     0.038 C 
ATOM      4  C   LIG d   1      -5.878  78.329 117.295  0.00  0.00     0.028 C 
ATOM      5  C   LIG d   1      -5.831  79.850 117.398  0.00  0.00    -0.047 C 
ATOM      6  C   LIG d   1      -6.813  80.308 118.500  0.00  0.00     0.091 C 
ENDROOT
BRANCH   1   7
ATOM      7  O   LIG d   1      -9.016  79.827 119.460  0.00  0.00    -0.368 OA
BRANCH   7   8
ATOM      8  C   LIG d   1     -10.252  80.581 119.400  0.00  0.00     0.119 C 
BRANCH   8   9
ATOM      9  C   LIG d   1     -10.275  81.325 118.051  0.00  0.00     0.028 C 
ATOM     10  C   LIG d   1     -10.470  82.841 118.221  0.00  0.00     0.006 C 
ENDBRANCH   8   9
BRANCH   8  11
ATOM     11  C   LIG d   1     -10.288  81.677 120.469  0.00  0.00     0.028 C 
ATOM     12  C   LIG d   1      -9.491  81.307 121.730  0.00  0.00     0.006 C 
ENDBRANCH   8  11
ENDBRANCH   7   8
ENDBRANCH   1   7
BRANCH   6  13
ATOM     13  N   LIG d   1      -6.891  81.788 118.609  0.00  0.00    -0.311 N 
ATOM     14  C   LIG d   1      -6.574  82.460 119.715  0.00  0.00     0.210 C 
ATOM     15  C   LIG d   1      -6.745  83.979 119.620  0.00  0.00     0.109 C 
ATOM     16  O   LIG d   1      -6.136  81.945 120.754  0.00  0.00    -0.276 OA
ATOM     17  H   LIG d   1      -7.208  82.289 117.802  0.00  0.00     0.149 HD
ENDBRANCH   6  13
BRANCH   5  18
ATOM     18  N   LIG d   1      -4.434  80.235 117.671  0.00  0.00     0.381 N 
ATOM     19  H   LIG d   1      -4.413  81.096 118.180  0.00  0.00    -0.090 HD
ATOM     20  H   LIG d   1      -3.958  80.374 116.797  0.00  0.00    -0.090 HD
ATOM     21  H   LIG d   1      -3.979  79.520 118.195  0.00  0.00    -0.090 HD
ENDBRANCH   5  18
BRANCH   3  22
ATOM     22  C   LIG d   1      -7.353  76.638 116.457  0.00  0.00     0.382 C 
ATOM     23  O   LIG d   1      -8.452  76.033 116.509  0.00  0.00    -0.241 OA
ATOM     24  O   LIG d   1      -6.413  76.145 115.806  0.00  0.00    -0.241 OA
ENDBRANCH   3  22
TORSDOF 7
ENDMDL
MODEL 9
REMARK VINA RESULT:      -4.3      1.295      2.134
REMARK  7 active torsions:
REMARK  status: ('A' for Active; 'I' for Inactive)
REMARK    1  A    between atoms: C_2  and  C_3 
REMARK    2  A    between atoms: C_3  and  O_6 
REMARK    3  A    between atoms: C_3  and  C_4 
REMARK    4  A    between atoms: C_7  and  O_6 
REMARK    5  A    between atoms: C_9  and  C_10 
REMARK    6  A    between atoms: N_15  and  C_14 
REMARK    7  A    between atoms: N_20  and  C_19 
REMARK       I    between atoms: C_22  and  N_20 
ROOT
ATOM      1  C   LIG d   1      -4.366  93.693 119.560  0.00  0.00     0.161 C 
ATOM      2  C   LIG d   1      -3.500  92.757 118.970  0.00  0.00     0.016 C 
ATOM      3  C   LIG d   1      -3.818  92.035 117.797  0.00  0.00     0.038 C 
ATOM      4  C   LIG d   1      -4.969  92.312 117.045  0.00  0.00     0.028 C 
ATOM      5  C   LIG d   1      -6.110  92.891 117.874  0.00  0.00    -0.047 C 
ATOM      6  C   LIG d   1      -5.578  94.090 118.692  0.00  0.00     0.091 C 
ENDROOT
BRANCH   1   7
ATOM      7  O   LIG d   1      -3.624  94.866 119.951  0.00  0.00    -0.368 OA
BRANCH   7   8
ATOM      8  C   LIG d   1      -2.219  94.878 119.599  0.00  0.00     0.119 C 
BRANCH   8   9
ATOM      9  C   LIG d   1      -1.422  95.167 120.886  0.00  0.00     0.028 C 
ATOM     10  C   LIG d   1      -0.948  93.881 121.584  0.00  0.00     0.006 C 
ENDBRANCH   8   9
BRANCH   8  11
ATOM     11  C   LIG d   1      -1.892  96.035 118.651  0.00  0.00     0.028 C 
ATOM     12  C   LIG d   1      -0.489  96.618 118.884  0.00  0.00     0.006 C 
ENDBRANCH   8  11
ENDBRANCH   7   8
ENDBRANCH   1   7
BRANCH   6  13
ATOM     13  N   LIG d   1      -6.610  94.662 119.595  0.00  0.00    -0.311 N 
ATOM     14  C   LIG d   1      -7.364  95.712 119.274  0.00  0.00     0.210 C 
ATOM     15  C   LIG d   1      -8.353  96.154 120.358  0.00  0.00     0.109 C 
ATOM     16  O   LIG d   1      -7.331  96.300 118.183  0.00  0.00    -0.276 OA
ATOM     17  H   LIG d   1      -6.726  94.227 120.489  0.00  0.00     0.149 HD
ENDBRANCH   6  13
BRANCH   5  18
ATOM     18  N   LIG d   1      -7.194  93.260 116.944  0.00  0.00     0.381 N 
ATOM     19  H   LIG d   1      -8.059  92.867 117.259  0.00  0.00    -0.090 HD
ATOM     20  H   LIG d   1      -6.987  92.882 116.037  0.00  0.00    -0.090 HD
ATOM     21  H   LIG d   1      -7.272  94.252 116.889  0.00  0.00    -0.090 HD
ENDBRANCH   5  18
BRANCH   3  22
ATOM     22  C   LIG d   1      -2.998  90.994 117.388  0.00  0.00     0.382 C 
ATOM     23  O   LIG d   1      -1.751  91.114 117.457  0.00  0.00    -0.241 OA
ATOM     24  O   LIG d   1      -3.489  89.954 116.908  0.00  0.00    -0.241 OA
ENDBRANCH   3  22
TORSDOF 7
ENDMDL
