MODEL 1
REMARK VINA RESULT:      -5.2      0.000      0.000
REMARK  7 active torsions:
REMARK  status: ('A' for Active; 'I' for Inactive)
REMARK    1  A    between atoms: C_2  and  C_3 
REMARK    2  A    between atoms: C_3  and  O_6 
REMARK    3  A    between atoms: C_3  and  C_4 
REMARK    4  A    between atoms: C_7  and  O_6 
REMARK    5  A    between atoms: C_9  and  C_10 
REMARK    6  A    between atoms: N_15  and  C_14 
REMARK    7  A    between atoms: N_20  and  C_19 
REMARK       I    between atoms: C_22  and  N_20 
ROOT
ATOM      1  C   LIG d   1      -4.856  93.840 117.210  0.00  0.00     0.161 C 
ATOM      2  C   LIG d   1      -6.124  93.267 117.020  0.00  0.00     0.016 C 
ATOM      3  C   LIG d   1      -6.334  91.880 116.842  0.00  0.00     0.038 C 
ATOM      4  C   LIG d   1      -5.296  90.949 116.993  0.00  0.00     0.028 C 
ATOM      5  C   LIG d   1      -3.917  91.522 116.684  0.00  0.00    -0.047 C 
ATOM      6  C   LIG d   1      -3.725  92.828 117.488  0.00  0.00     0.091 C 
ENDROOT
BRANCH   1   7
ATOM      7  O   LIG d   1      -4.916  94.825 118.260  0.00  0.00    -0.368 OA
BRANCH   7   8
ATOM      8  C   LIG d   1      -6.050  94.731 119.158  0.00  0.00     0.119 C 
BRANCH   8   9
ATOM      9  C   LIG d   1      -6.579  96.160 119.386  0.00  0.00     0.028 C 
ATOM     10  C   LIG d   1      -6.736  96.945 118.073  0.00  0.00     0.006 C 
ENDBRANCH   8   9
BRANCH   8  11
ATOM     11  C   LIG d   1      -5.625  94.230 120.541  0.00  0.00     0.028 C 
ATOM     12  C   LIG d   1      -5.734  92.703 120.681  0.00  0.00     0.006 C 
ENDBRANCH   8  11
ENDBRANCH   7   8
ENDBRANCH   1   7
BRANCH   6  13
ATOM     13  N   LIG d   1      -2.435  93.499 117.180  0.00  0.00    -0.311 N 
ATOM     14  C   LIG d   1      -1.321  93.304 117.883  0.00  0.00     0.210 C 
ATOM     15  C   LIG d   1      -0.107  94.110 117.409  0.00  0.00     0.109 C 
ATOM     16  O   LIG d   1      -1.214  92.517 118.835  0.00  0.00    -0.276 OA
ATOM     17  H   LIG d   1      -2.424  94.131 116.404  0.00  0.00     0.149 HD
ENDBRANCH   6  13
BRANCH   5  18
ATOM     18  N   LIG d   1      -2.919  90.487 117.014  0.00  0.00     0.381 N 
ATOM     19  H   LIG d   1      -2.116  90.912 117.433  0.00  0.00    -0.090 HD
ATOM     20  H   LIG d   1      -2.629  90.033 116.166  0.00  0.00    -0.090 HD
ATOM     21  H   LIG d   1      -3.315  89.819 117.638  0.00  0.00    -0.090 HD
ENDBRANCH   5  18
BRANCH   3  22
ATOM     22  C   LIG d   1      -7.586  91.416 116.469  0.00  0.00     0.382 C 
ATOM     23  O   LIG d   1      -8.380  92.174 115.862  0.00  0.00    -0.241 OA
ATOM     24  O   LIG d   1      -7.949  90.264 116.772  0.00  0.00    -0.241 OA
ENDBRANCH   3  22
TORSDOF 7
ENDMDL
MODEL 2
REMARK VINA RESULT:      -4.8      1.478      2.102
REMARK  7 active torsions:
REMARK  status: ('A' for Active; 'I' for Inactive)
REMARK    1  A    between atoms: C_2  and  C_3 
REMARK    2  A    between atoms: C_3  and  O_6 
REMARK    3  A    between atoms: C_3  and  C_4 
REMARK    4  A    between atoms: C_7  and  O_6 
REMARK    5  A    between atoms: C_9  and  C_10 
REMARK    6  A    between atoms: N_15  and  C_14 
REMARK    7  A    between atoms: N_20  and  C_19 
REMARK       I    between atoms: C_22  and  N_20 
ROOT
ATOM      1  C   LIG d   1      -4.622  93.889 117.541  0.00  0.00     0.161 C 
ATOM      2  C   LIG d   1      -6.003  93.764 117.318  0.00  0.00     0.016 C 
ATOM      3  C   LIG d   1      -6.613  92.574 116.859  0.00  0.00     0.038 C 
ATOM      4  C   LIG d   1      -5.897  91.374 116.735  0.00  0.00     0.028 C 
ATOM      5  C   LIG d   1      -4.410  91.582 116.464  0.00  0.00    -0.047 C 
ATOM      6  C   LIG d   1      -3.840  92.559 117.517  0.00  0.00     0.091 C 
ENDROOT
BRANCH   1   7
ATOM      7  O   LIG d   1      -4.388  94.586 118.780  0.00  0.00    -0.368 OA
BRANCH   7   8
ATOM      8  C   LIG d   1      -4.021  95.983 118.667  0.00  0.00     0.119 C 
BRANCH   8   9
ATOM      9  C   LIG d   1      -2.518  96.095 118.990  0.00  0.00     0.028 C 
ATOM     10  C   LIG d   1      -2.090  95.147 120.123  0.00  0.00     0.006 C 
ENDBRANCH   8   9
BRANCH   8  11
ATOM     11  C   LIG d   1      -4.728  96.833 119.727  0.00  0.00     0.028 C 
ATOM     12  C   LIG d   1      -6.012  96.175 120.259  0.00  0.00     0.006 C 
ENDBRANCH   8  11
ENDBRANCH   7   8
ENDBRANCH   1   7
BRANCH   6  13
ATOM     13  N   LIG d   1      -2.410  92.882 117.274  0.00  0.00    -0.311 N 
ATOM     14  C   LIG d   1      -1.403  92.247 117.872  0.00  0.00     0.210 C 
ATOM     15  C   LIG d   1      -0.006  92.751 117.495  0.00  0.00     0.109 C 
ATOM     16  O   LIG d   1      -1.534  91.293 118.654  0.00  0.00    -0.276 OA
ATOM     17  H   LIG d   1      -2.213  93.623 116.630  0.00  0.00     0.149 HD
ENDBRANCH   6  13
BRANCH   5  18
ATOM     18  N   LIG d   1      -3.763  90.257 116.495  0.00  0.00     0.381 N 
ATOM     19  H   LIG d   1      -2.991  90.271 117.132  0.00  0.00    -0.090 HD
ATOM     20  H   LIG d   1      -3.411  90.046 115.578  0.00  0.00    -0.090 HD
ATOM     21  H   LIG d   1      -4.420  89.562 116.774  0.00  0.00    -0.090 HD
ENDBRANCH   5  18
BRANCH   3  22
ATOM     22  C   LIG d   1      -7.947  92.587 116.480  0.00  0.00     0.382 C 
ATOM     23  O   LIG d   1      -8.696  93.521 116.856  0.00  0.00    -0.241 OA
ATOM     24  O   LIG d   1      -8.421  91.654 115.805  0.00  0.00    -0.241 OA
ENDBRANCH   3  22
TORSDOF 7
ENDMDL
MODEL 3
REMARK VINA RESULT:      -4.8      2.193      4.182
REMARK  7 active torsions:
REMARK  status: ('A' for Active; 'I' for Inactive)
REMARK    1  A    between atoms: C_2  and  C_3 
REMARK    2  A    between atoms: C_3  and  O_6 
REMARK    3  A    between atoms: C_3  and  C_4 
REMARK    4  A    between atoms: C_7  and  O_6 
REMARK    5  A    between atoms: C_9  and  C_10 
REMARK    6  A    between atoms: N_15  and  C_14 
REMARK    7  A    between atoms: N_20  and  C_19 
REMARK       I    between atoms: C_22  and  N_20 
ROOT
ATOM      1  C   LIG d   1      -4.508  92.594 117.800  0.00  0.00     0.161 C 
ATOM      2  C   LIG d   1      -5.674  92.157 117.149  0.00  0.00     0.016 C 
ATOM      3  C   LIG d   1      -6.739  93.018 116.799  0.00  0.00     0.038 C 
ATOM      4  C   LIG d   1      -6.644  94.410 116.941  0.00  0.00     0.028 C 
ATOM      5  C   LIG d   1      -5.695  94.842 118.054  0.00  0.00    -0.047 C 
ATOM      6  C   LIG d   1      -4.339  94.126 117.863  0.00  0.00     0.091 C 
ENDROOT
BRANCH   1   7
ATOM      7  O   LIG d   1      -3.352  91.986 117.190  0.00  0.00    -0.368 OA
BRANCH   7   8
ATOM      8  C   LIG d   1      -2.542  91.149 118.052  0.00  0.00     0.119 C 
BRANCH   8   9
ATOM      9  C   LIG d   1      -1.175  90.964 117.367  0.00  0.00     0.028 C 
ATOM     10  C   LIG d   1      -0.106  90.417 118.327  0.00  0.00     0.006 C 
ENDBRANCH   8   9
BRANCH   8  11
ATOM     11  C   LIG d   1      -3.130  89.740 118.172  0.00  0.00     0.028 C 
ATOM     12  C   LIG d   1      -3.539  89.385 119.611  0.00  0.00     0.006 C 
ENDBRANCH   8  11
ENDBRANCH   7   8
ENDBRANCH   1   7
BRANCH   6  13
ATOM     13  N   LIG d   1      -3.380  94.427 118.958  0.00  0.00    -0.311 N 
ATOM     14  C   LIG d   1      -2.101  94.734 118.748  0.00  0.00     0.210 C 
ATOM     15  C   LIG d   1      -1.280  94.990 120.016  0.00  0.00     0.109 C 
ATOM     16  O   LIG d   1      -1.575  94.850 117.630  0.00  0.00    -0.276 OA
ATOM     17  H   LIG d   1      -3.729  94.387 119.895  0.00  0.00     0.149 HD
ENDBRANCH   6  13
BRANCH   5  18
ATOM     18  N   LIG d   1      -5.586  96.312 118.002  0.00  0.00     0.381 N 
ATOM     19  H   LIG d   1      -5.672  96.691 118.923  0.00  0.00    -0.090 HD
ATOM     20  H   LIG d   1      -6.336  96.674 117.440  0.00  0.00    -0.090 HD
ATOM     21  H   LIG d   1      -4.710  96.575 117.607  0.00  0.00    -0.090 HD
ENDBRANCH   5  18
BRANCH   3  22
ATOM     22  C   LIG d   1      -7.932  92.483 116.336  0.00  0.00     0.382 C 
ATOM     23  O   LIG d   1      -8.057  91.240 116.218  0.00  0.00    -0.241 OA
ATOM     24  O   LIG d   1      -8.868  93.230 115.993  0.00  0.00    -0.241 OA
ENDBRANCH   3  22
TORSDOF 7
ENDMDL
MODEL 4
REMARK VINA RESULT:      -4.4     14.952     17.008
REMARK  7 active torsions:
REMARK  status: ('A' for Active; 'I' for Inactive)
REMARK    1  A    between atoms: C_2  and  C_3 
REMARK    2  A    between atoms: C_3  and  O_6 
REMARK    3  A    between atoms: C_3  and  C_4 
REMARK    4  A    between atoms: C_7  and  O_6 
REMARK    5  A    between atoms: C_9  and  C_10 
REMARK    6  A    between atoms: N_15  and  C_14 
REMARK    7  A    between atoms: N_20  and  C_19 
REMARK       I    between atoms: C_22  and  N_20 
ROOT
ATOM      1  C   LIG d   1      -6.884  76.919 116.629  0.00  0.00     0.161 C 
ATOM      2  C   LIG d   1      -8.087  76.201 116.732  0.00  0.00     0.016 C 
ATOM      3  C   LIG d   1      -8.152  74.788 116.735  0.00  0.00     0.038 C 
ATOM      4  C   LIG d   1      -6.998  73.993 116.788  0.00  0.00     0.028 C 
ATOM      5  C   LIG d   1      -5.772  74.663 116.176  0.00  0.00    -0.047 C 
ATOM      6  C   LIG d   1      -5.607  76.069 116.797  0.00  0.00     0.091 C 
ENDROOT
BRANCH   1   7
ATOM      7  O   LIG d   1      -6.885  78.012 117.568  0.00  0.00    -0.368 OA
BRANCH   7   8
ATOM      8  C   LIG d   1      -7.794  77.888 118.690  0.00  0.00     0.119 C 
BRANCH   8   9
ATOM      9  C   LIG d   1      -8.557  79.220 118.817  0.00  0.00     0.028 C 
ATOM     10  C   LIG d   1     -10.074  79.016 118.966  0.00  0.00     0.006 C 
ENDBRANCH   8   9
BRANCH   8  11
ATOM     11  C   LIG d   1      -7.033  77.729 120.009  0.00  0.00     0.028 C 
ATOM     12  C   LIG d   1      -6.703  76.263 120.334  0.00  0.00     0.006 C 
ENDBRANCH   8  11
ENDBRANCH   7   8
ENDBRANCH   1   7
BRANCH   6  13
ATOM     13  N   LIG d   1      -4.480  76.827 116.193  0.00  0.00    -0.311 N 
ATOM     14  C   LIG d   1      -3.253  76.854 116.712  0.00  0.00     0.210 C 
ATOM     15  C   LIG d   1      -2.244  77.712 115.943  0.00  0.00     0.109 C 
ATOM     16  O   LIG d   1      -2.897  76.222 117.718  0.00  0.00    -0.276 OA
ATOM     17  H   LIG d   1      -4.673  77.342 115.357  0.00  0.00     0.149 HD
ENDBRANCH   6  13
BRANCH   5  18
ATOM     18  N   LIG d   1      -4.614  73.783 116.422  0.00  0.00     0.381 N 
ATOM     19  H   LIG d   1      -4.821  73.151 117.169  0.00  0.00    -0.090 HD
ATOM     20  H   LIG d   1      -3.829  74.348 116.695  0.00  0.00    -0.090 HD
ATOM     21  H   LIG d   1      -4.393  73.272 115.596  0.00  0.00    -0.090 HD
ENDBRANCH   5  18
BRANCH   3  22
ATOM     22  C   LIG d   1      -9.383  74.157 116.645  0.00  0.00     0.382 C 
ATOM     23  O   LIG d   1     -10.435  74.839 116.591  0.00  0.00    -0.241 OA
ATOM     24  O   LIG d   1      -9.459  72.914 116.662  0.00  0.00    -0.241 OA
ENDBRANCH   3  22
TORSDOF 7
ENDMDL
MODEL 5
REMARK VINA RESULT:      -4.3      2.716      5.586
REMARK  7 active torsions:
REMARK  status: ('A' for Active; 'I' for Inactive)
REMARK    1  A    between atoms: C_2  and  C_3 
REMARK    2  A    between atoms: C_3  and  O_6 
REMARK    3  A    between atoms: C_3  and  C_4 
REMARK    4  A    between atoms: C_7  and  O_6 
REMARK    5  A    between atoms: C_9  and  C_10 
REMARK    6  A    between atoms: N_15  and  C_14 
REMARK    7  A    between atoms: N_20  and  C_19 
REMARK       I    between atoms: C_22  and  N_20 
ROOT
ATOM      1  C   LIG d   1      -2.487  94.082 117.564  0.00  0.00     0.161 C 
ATOM      2  C   LIG d   1      -1.483  93.125 117.344  0.00  0.00     0.016 C 
ATOM      3  C   LIG d   1      -0.154  93.270 117.805  0.00  0.00     0.038 C 
ATOM      4  C   LIG d   1       0.225  94.320 118.655  0.00  0.00     0.028 C 
ATOM      5  C   LIG d   1      -0.628  95.573 118.487  0.00  0.00    -0.047 C 
ATOM      6  C   LIG d   1      -2.120  95.181 118.584  0.00  0.00     0.091 C 
ENDROOT
BRANCH   1   7
ATOM      7  O   LIG d   1      -3.710  93.427 117.953  0.00  0.00    -0.368 OA
BRANCH   7   8
ATOM      8  C   LIG d   1      -4.725  93.310 116.925  0.00  0.00     0.119 C 
BRANCH   8   9
ATOM      9  C   LIG d   1      -5.871  94.272 117.295  0.00  0.00     0.028 C 
ATOM     10  C   LIG d   1      -6.102  94.353 118.813  0.00  0.00     0.006 C 
ENDBRANCH   8   9
BRANCH   8  11
ATOM     11  C   LIG d   1      -5.354  91.914 116.918  0.00  0.00     0.028 C 
ATOM     12  C   LIG d   1      -4.336  90.803 116.613  0.00  0.00     0.006 C 
ENDBRANCH   8  11
ENDBRANCH   7   8
ENDBRANCH   1   7
BRANCH   6  13
ATOM     13  N   LIG d   1      -3.026  96.335 118.346  0.00  0.00    -0.311 N 
ATOM     14  C   LIG d   1      -3.553  97.067 119.326  0.00  0.00     0.210 C 
ATOM     15  C   LIG d   1      -4.476  98.198 118.864  0.00  0.00     0.109 C 
ATOM     16  O   LIG d   1      -3.318  96.907 120.534  0.00  0.00    -0.276 OA
ATOM     17  H   LIG d   1      -3.245  96.555 117.394  0.00  0.00     0.149 HD
ENDBRANCH   6  13
BRANCH   5  18
ATOM     18  N   LIG d   1      -0.215  96.536 119.525  0.00  0.00     0.381 N 
ATOM     19  H   LIG d   1      -0.694  97.403 119.393  0.00  0.00    -0.090 HD
ATOM     20  H   LIG d   1       0.772  96.704 119.438  0.00  0.00    -0.090 HD
ATOM     21  H   LIG d   1      -0.418  96.170 120.430  0.00  0.00    -0.090 HD
ENDBRANCH   5  18
BRANCH   3  22
ATOM     22  C   LIG d   1       0.821  92.379 117.384  0.00  0.00     0.382 C 
ATOM     23  O   LIG d   1       2.034  92.653 117.548  0.00  0.00    -0.241 OA
ATOM     24  O   LIG d   1       0.504  91.324 116.802  0.00  0.00    -0.241 OA
ENDBRANCH   3  22
TORSDOF 7
ENDMDL
MODEL 6
REMARK VINA RESULT:      -4.2      2.660      4.619
REMARK  7 active torsions:
REMARK  status: ('A' for Active; 'I' for Inactive)
REMARK    1  A    between atoms: C_2  and  C_3 
REMARK    2  A    between atoms: C_3  and  O_6 
REMARK    3  A    between atoms: C_3  and  C_4 
REMARK    4  A    between atoms: C_7  and  O_6 
REMARK    5  A    between atoms: C_9  and  C_10 
REMARK    6  A    between atoms: N_15  and  C_14 
REMARK    7  A    between atoms: N_20  and  C_19 
REMARK       I    between atoms: C_22  and  N_20 
ROOT
ATOM      1  C   LIG d   1      -3.202  91.426 118.776  0.00  0.00     0.161 C 
ATOM      2  C   LIG d   1      -4.525  91.107 118.425  0.00  0.00     0.016 C 
ATOM      3  C   LIG d   1      -5.442  92.051 117.909  0.00  0.00     0.038 C 
ATOM      4  C   LIG d   1      -5.050  93.354 117.564  0.00  0.00     0.028 C 
ATOM      5  C   LIG d   1      -3.860  93.861 118.371  0.00  0.00    -0.047 C 
ATOM      6  C   LIG d   1      -2.725  92.815 118.303  0.00  0.00     0.091 C 
ENDROOT
BRANCH   1   7
ATOM      7  O   LIG d   1      -2.309  90.400 118.298  0.00  0.00    -0.368 OA
BRANCH   7   8
ATOM      8  C   LIG d   1      -1.493  89.748 119.302  0.00  0.00     0.119 C 
BRANCH   8   9
ATOM      9  C   LIG d   1      -0.056  89.672 118.752  0.00  0.00     0.028 C 
ATOM     10  C   LIG d   1      -0.014  89.684 117.214  0.00  0.00     0.006 C 
ENDBRANCH   8   9
BRANCH   8  11
ATOM     11  C   LIG d   1      -1.924  88.293 119.513  0.00  0.00     0.028 C 
ATOM     12  C   LIG d   1      -2.964  88.137 120.633  0.00  0.00     0.006 C 
ENDBRANCH   8  11
ENDBRANCH   7   8
ENDBRANCH   1   7
BRANCH   6  13
ATOM     13  N   LIG d   1      -1.553  93.195 119.135  0.00  0.00    -0.311 N 
ATOM     14  C   LIG d   1      -0.326  93.358 118.642  0.00  0.00     0.210 C 
ATOM     15  C   LIG d   1       0.741  93.731 119.676  0.00  0.00     0.109 C 
ATOM     16  O   LIG d   1      -0.027  93.262 117.443  0.00  0.00    -0.276 OA
ATOM     17  H   LIG d   1      -1.712  93.323 120.115  0.00  0.00     0.149 HD
ENDBRANCH   6  13
BRANCH   5  18
ATOM     18  N   LIG d   1      -3.472  95.172 117.816  0.00  0.00     0.381 N 
ATOM     19  H   LIG d   1      -3.366  95.836 118.557  0.00  0.00    -0.090 HD
ATOM     20  H   LIG d   1      -4.202  95.495 117.205  0.00  0.00    -0.090 HD
ATOM     21  H   LIG d   1      -2.618  95.089 117.310  0.00  0.00    -0.090 HD
ENDBRANCH   5  18
BRANCH   3  22
ATOM     22  C   LIG d   1      -6.778  91.706 117.770  0.00  0.00     0.382 C 
ATOM     23  O   LIG d   1      -7.093  90.646 117.178  0.00  0.00    -0.241 OA
ATOM     24  O   LIG d   1      -7.673  92.464 118.189  0.00  0.00    -0.241 OA
ENDBRANCH   3  22
TORSDOF 7
ENDMDL
MODEL 7
REMARK VINA RESULT:      -4.2     14.291     16.385
REMARK  7 active torsions:
REMARK  status: ('A' for Active; 'I' for Inactive)
REMARK    1  A    between atoms: C_2  and  C_3 
REMARK    2  A    between atoms: C_3  and  O_6 
REMARK    3  A    between atoms: C_3  and  C_4 
REMARK    4  A    between atoms: C_7  and  O_6 
REMARK    5  A    between atoms: C_9  and  C_10 
REMARK    6  A    between atoms: N_15  and  C_14 
REMARK    7  A    between atoms: N_20  and  C_19 
REMARK       I    between atoms: C_22  and  N_20 
ROOT
ATOM      1  C   LIG d   1      -7.030  77.122 117.195  0.00  0.00     0.161 C 
ATOM      2  C   LIG d   1      -8.191  76.331 117.183  0.00  0.00     0.016 C 
ATOM      3  C   LIG d   1      -8.193  74.957 116.850  0.00  0.00     0.038 C 
ATOM      4  C   LIG d   1      -7.003  74.240 116.652  0.00  0.00     0.028 C 
ATOM      5  C   LIG d   1      -5.849  75.107 116.159  0.00  0.00    -0.047 C 
ATOM      6  C   LIG d   1      -5.708  76.332 117.090  0.00  0.00     0.091 C 
ENDROOT
BRANCH   1   7
ATOM      7  O   LIG d   1      -7.021  77.959 118.368  0.00  0.00    -0.368 OA
BRANCH   7   8
ATOM      8  C   LIG d   1      -7.083  79.387 118.133  0.00  0.00     0.119 C 
BRANCH   8   9
ATOM      9  C   LIG d   1      -5.748  79.993 118.608  0.00  0.00     0.028 C 
ATOM     10  C   LIG d   1      -5.189  81.030 117.620  0.00  0.00     0.006 C 
ENDBRANCH   8   9
BRANCH   8  11
ATOM     11  C   LIG d   1      -8.159  80.049 118.998  0.00  0.00     0.028 C 
ATOM     12  C   LIG d   1      -9.512  79.324 118.924  0.00  0.00     0.006 C 
ENDBRANCH   8  11
ENDBRANCH   7   8
ENDBRANCH   1   7
BRANCH   6  13
ATOM     13  N   LIG d   1      -4.656  77.276 116.630  0.00  0.00    -0.311 N 
ATOM     14  C   LIG d   1      -3.406  77.262 117.091  0.00  0.00     0.210 C 
ATOM     15  C   LIG d   1      -2.487  78.334 116.498  0.00  0.00     0.109 C 
ATOM     16  O   LIG d   1      -2.964  76.443 117.910  0.00  0.00    -0.276 OA
ATOM     17  H   LIG d   1      -4.921  77.954 115.943  0.00  0.00     0.149 HD
ENDBRANCH   6  13
BRANCH   5  18
ATOM     18  N   LIG d   1      -4.640  74.263 116.127  0.00  0.00     0.381 N 
ATOM     19  H   LIG d   1      -4.884  73.313 116.327  0.00  0.00    -0.090 HD
ATOM     20  H   LIG d   1      -4.003  74.581 116.836  0.00  0.00    -0.090 HD
ATOM     21  H   LIG d   1      -4.207  74.320 115.232  0.00  0.00    -0.090 HD
ENDBRANCH   5  18
BRANCH   3  22
ATOM     22  C   LIG d   1      -9.398  74.294 116.673  0.00  0.00     0.382 C 
ATOM     23  O   LIG d   1      -9.421  73.041 116.614  0.00  0.00    -0.241 OA
ATOM     24  O   LIG d   1     -10.456  74.935 116.528  0.00  0.00    -0.241 OA
ENDBRANCH   3  22
TORSDOF 7
ENDMDL
MODEL 8
REMARK VINA RESULT:      -4.1     26.759     29.632
REMARK  7 active torsions:
REMARK  status: ('A' for Active; 'I' for Inactive)
REMARK    1  A    between atoms: C_2  and  C_3 
REMARK    2  A    between atoms: C_3  and  O_6 
REMARK    3  A    between atoms: C_3  and  C_4 
REMARK    4  A    between atoms: C_7  and  O_6 
REMARK    5  A    between atoms: C_9  and  C_10 
REMARK    6  A    between atoms: N_15  and  C_14 
REMARK    7  A    between atoms: N_20  and  C_19 
REMARK       I    between atoms: C_22  and  N_20 
ROOT
ATOM      1  C   LIG d   1     -15.027  66.133 118.989  0.00  0.00     0.161 C 
ATOM      2  C   LIG d   1     -14.198  66.822 119.891  0.00  0.00     0.016 C 
ATOM      3  C   LIG d   1     -14.542  68.065 120.470  0.00  0.00     0.038 C 
ATOM      4  C   LIG d   1     -15.812  68.635 120.302  0.00  0.00     0.028 C 
ATOM      5  C   LIG d   1     -16.492  68.227 118.999  0.00  0.00    -0.047 C 
ATOM      6  C   LIG d   1     -16.463  66.686 118.880  0.00  0.00     0.091 C 
ENDROOT
BRANCH   1   7
ATOM      7  O   LIG d   1     -15.053  64.731 119.322  0.00  0.00    -0.368 OA
BRANCH   7   8
ATOM      8  C   LIG d   1     -14.377  63.844 118.397  0.00  0.00     0.119 C 
BRANCH   8   9
ATOM      9  C   LIG d   1     -15.413  62.815 117.903  0.00  0.00     0.028 C 
ATOM     10  C   LIG d   1     -16.404  62.404 119.004  0.00  0.00     0.006 C 
ENDBRANCH   8   9
BRANCH   8  11
ATOM     11  C   LIG d   1     -13.295  63.022 119.103  0.00  0.00     0.028 C 
ATOM     12  C   LIG d   1     -13.188  63.341 120.603  0.00  0.00     0.006 C 
ENDBRANCH   8  11
ENDBRANCH   7   8
ENDBRANCH   1   7
BRANCH   6  13
ATOM     13  N   LIG d   1     -17.033  66.206 117.594  0.00  0.00    -0.311 N 
ATOM     14  C   LIG d   1     -18.097  65.409 117.515  0.00  0.00     0.210 C 
ATOM     15  C   LIG d   1     -18.507  65.017 116.092  0.00  0.00     0.109 C 
ATOM     16  O   LIG d   1     -18.759  65.015 118.487  0.00  0.00    -0.276 OA
ATOM     17  H   LIG d   1     -16.576  66.503 116.754  0.00  0.00     0.149 HD
ENDBRANCH   6  13
BRANCH   5  18
ATOM     18  N   LIG d   1     -17.859  68.780 119.017  0.00  0.00     0.381 N 
ATOM     19  H   LIG d   1     -17.843  69.734 118.715  0.00  0.00    -0.090 HD
ATOM     20  H   LIG d   1     -18.208  68.753 119.959  0.00  0.00    -0.090 HD
ATOM     21  H   LIG d   1     -18.451  68.245 118.420  0.00  0.00    -0.090 HD
ENDBRANCH   5  18
BRANCH   3  22
ATOM     22  C   LIG d   1     -13.594  68.770 121.196  0.00  0.00     0.382 C 
ATOM     23  O   LIG d   1     -12.520  69.120 120.650  0.00  0.00    -0.241 OA
ATOM     24  O   LIG d   1     -13.781  69.023 122.401  0.00  0.00    -0.241 OA
ENDBRANCH   3  22
TORSDOF 7
ENDMDL
MODEL 9
REMARK VINA RESULT:      -4.1      4.305      8.207
REMARK  7 active torsions:
REMARK  status: ('A' for Active; 'I' for Inactive)
REMARK    1  A    between atoms: C_2  and  C_3 
REMARK    2  A    between atoms: C_3  and  O_6 
REMARK    3  A    between atoms: C_3  and  C_4 
REMARK    4  A    between atoms: C_7  and  O_6 
REMARK    5  A    between atoms: C_9  and  C_10 
REMARK    6  A    between atoms: N_15  and  C_14 
REMARK    7  A    between atoms: N_20  and  C_19 
REMARK       I    between atoms: C_22  and  N_20 
ROOT
ATOM      1  C   LIG d   1       0.241  89.846 117.262  0.00  0.00     0.161 C 
ATOM      2  C   LIG d   1       1.628  90.046 117.361  0.00  0.00     0.016 C 
ATOM      3  C   LIG d   1       2.229  91.325 117.398  0.00  0.00     0.038 C 
ATOM      4  C   LIG d   1       1.468  92.500 117.492  0.00  0.00     0.028 C 
ATOM      5  C   LIG d   1       0.074  92.368 116.887  0.00  0.00    -0.047 C 
ATOM      6  C   LIG d   1      -0.612  91.114 117.476  0.00  0.00     0.091 C 
ENDROOT
BRANCH   1   7
ATOM      7  O   LIG d   1      -0.169  88.808 118.174  0.00  0.00    -0.368 OA
BRANCH   7   8
ATOM      8  C   LIG d   1       0.890  88.163 118.924  0.00  0.00     0.119 C 
BRANCH   8   9
ATOM      9  C   LIG d   1       0.838  86.658 118.597  0.00  0.00     0.028 C 
ATOM     10  C   LIG d   1      -0.273  85.928 119.370  0.00  0.00     0.006 C 
ENDBRANCH   8   9
BRANCH   8  11
ATOM     11  C   LIG d   1       0.643  88.260 120.432  0.00  0.00     0.028 C 
ATOM     12  C   LIG d   1      -0.297  89.416 120.809  0.00  0.00     0.006 C 
ENDBRANCH   8  11
ENDBRANCH   7   8
ENDBRANCH   1   7
BRANCH   6  13
ATOM     13  N   LIG d   1      -1.948  90.864 116.875  0.00  0.00    -0.311 N 
ATOM     14  C   LIG d   1      -3.085  91.318 117.400  0.00  0.00     0.210 C 
ATOM     15  C   LIG d   1      -4.352  90.929 116.632  0.00  0.00     0.109 C 
ATOM     16  O   LIG d   1      -3.162  92.032 118.411  0.00  0.00    -0.276 OA
ATOM     17  H   LIG d   1      -1.976  90.319 116.035  0.00  0.00     0.149 HD
ENDBRANCH   6  13
BRANCH   5  18
ATOM     18  N   LIG d   1      -0.657  93.616 117.176  0.00  0.00     0.381 N 
ATOM     19  H   LIG d   1      -0.204  94.110 117.919  0.00  0.00    -0.090 HD
ATOM     20  H   LIG d   1      -1.589  93.386 117.473  0.00  0.00    -0.090 HD
ATOM     21  H   LIG d   1      -0.692  94.188 116.360  0.00  0.00    -0.090 HD
ENDBRANCH   5  18
BRANCH   3  22
ATOM     22  C   LIG d   1       3.607  91.440 117.300  0.00  0.00     0.382 C 
ATOM     23  O   LIG d   1       4.346  90.832 118.113  0.00  0.00    -0.241 OA
ATOM     24  O   LIG d   1       4.121  92.178 116.438  0.00  0.00    -0.241 OA
ENDBRANCH   3  22
TORSDOF 7
ENDMDL
