MODEL 1
REMARK VINA RESULT:      -5.4      0.000      0.000
REMARK  7 active torsions:
REMARK  status: ('A' for Active; 'I' for Inactive)
REMARK    1  A    between atoms: C_2  and  C_3 
REMARK    2  A    between atoms: C_3  and  O_6 
REMARK    3  A    between atoms: C_3  and  C_4 
REMARK    4  A    between atoms: C_7  and  O_6 
REMARK    5  A    between atoms: C_9  and  C_10 
REMARK    6  A    between atoms: N_15  and  C_14 
REMARK    7  A    between atoms: N_20  and  C_19 
REMARK       I    between atoms: C_22  and  N_20 
ROOT
ATOM      1  C   LIG d   1       0.871  57.964 117.454  0.00  0.00     0.161 C 
ATOM      2  C   LIG d   1       0.030  59.060 117.713  0.00  0.00     0.016 C 
ATOM      3  C   LIG d   1      -1.362  59.048 117.465  0.00  0.00     0.038 C 
ATOM      4  C   LIG d   1      -2.037  57.881 117.078  0.00  0.00     0.028 C 
ATOM      5  C   LIG d   1      -1.154  56.894 116.321  0.00  0.00    -0.047 C 
ATOM      6  C   LIG d   1       0.135  56.645 117.137  0.00  0.00     0.091 C 
ENDROOT
BRANCH   1   7
ATOM      7  O   LIG d   1       1.783  57.778 118.554  0.00  0.00    -0.368 OA
BRANCH   7   8
ATOM      8  C   LIG d   1       2.691  58.874 118.822  0.00  0.00     0.119 C 
BRANCH   8   9
ATOM      9  C   LIG d   1       4.090  58.445 118.341  0.00  0.00     0.028 C 
ATOM     10  C   LIG d   1       5.069  58.223 119.507  0.00  0.00     0.006 C 
ENDBRANCH   8   9
BRANCH   8  11
ATOM     11  C   LIG d   1       2.837  59.121 120.327  0.00  0.00     0.028 C 
ATOM     12  C   LIG d   1       1.557  59.683 120.965  0.00  0.00     0.006 C 
ENDBRANCH   8  11
ENDBRANCH   7   8
ENDBRANCH   1   7
BRANCH   6  13
ATOM     13  N   LIG d   1       1.092  55.756 116.428  0.00  0.00    -0.311 N 
ATOM     14  C   LIG d   1       1.151  54.440 116.623  0.00  0.00     0.210 C 
ATOM     15  C   LIG d   1       2.223  53.713 115.805  0.00  0.00     0.109 C 
ATOM     16  O   LIG d   1       0.396  53.801 117.371  0.00  0.00    -0.276 OA
ATOM     17  H   LIG d   1       1.721  56.187 115.779  0.00  0.00     0.149 HD
ENDBRANCH   6  13
BRANCH   5  18
ATOM     18  N   LIG d   1      -1.945  55.667 116.102  0.00  0.00     0.381 N 
ATOM     19  H   LIG d   1      -2.306  55.660 115.169  0.00  0.00    -0.090 HD
ATOM     20  H   LIG d   1      -2.720  55.661 116.741  0.00  0.00    -0.090 HD
ATOM     21  H   LIG d   1      -1.375  54.864 116.251  0.00  0.00    -0.090 HD
ENDBRANCH   5  18
BRANCH   3  22
ATOM     22  C   LIG d   1      -2.087  60.226 117.564  0.00  0.00     0.382 C 
ATOM     23  O   LIG d   1      -1.489  61.325 117.660  0.00  0.00    -0.241 OA
ATOM     24  O   LIG d   1      -3.332  60.200 117.604  0.00  0.00    -0.241 OA
ENDBRANCH   3  22
TORSDOF 7
ENDMDL
MODEL 2
REMARK VINA RESULT:      -5.1     33.164     34.965
REMARK  7 active torsions:
REMARK  status: ('A' for Active; 'I' for Inactive)
REMARK    1  A    between atoms: C_2  and  C_3 
REMARK    2  A    between atoms: C_3  and  O_6 
REMARK    3  A    between atoms: C_3  and  C_4 
REMARK    4  A    between atoms: C_7  and  O_6 
REMARK    5  A    between atoms: C_9  and  C_10 
REMARK    6  A    between atoms: N_15  and  C_14 
REMARK    7  A    between atoms: N_20  and  C_19 
REMARK       I    between atoms: C_22  and  N_20 
ROOT
ATOM      1  C   LIG d   1      -5.005  92.179 119.241  0.00  0.00     0.161 C 
ATOM      2  C   LIG d   1      -6.046  91.788 118.383  0.00  0.00     0.016 C 
ATOM      3  C   LIG d   1      -5.848  90.988 117.234  0.00  0.00     0.038 C 
ATOM      4  C   LIG d   1      -4.609  90.396 116.947  0.00  0.00     0.028 C 
ATOM      5  C   LIG d   1      -3.422  91.174 117.505  0.00  0.00    -0.047 C 
ATOM      6  C   LIG d   1      -3.665  91.451 119.006  0.00  0.00     0.091 C 
ENDROOT
BRANCH   1   7
ATOM      7  O   LIG d   1      -5.421  92.031 120.613  0.00  0.00    -0.368 OA
BRANCH   7   8
ATOM      8  C   LIG d   1      -5.640  93.260 121.349  0.00  0.00     0.119 C 
BRANCH   8   9
ATOM      9  C   LIG d   1      -7.162  93.443 121.503  0.00  0.00     0.028 C 
ATOM     10  C   LIG d   1      -7.853  92.182 122.048  0.00  0.00     0.006 C 
ENDBRANCH   8   9
BRANCH   8  11
ATOM     11  C   LIG d   1      -5.163  94.479 120.552  0.00  0.00     0.028 C 
ATOM     12  C   LIG d   1      -6.297  95.470 120.245  0.00  0.00     0.006 C 
ENDBRANCH   8  11
ENDBRANCH   7   8
ENDBRANCH   1   7
BRANCH   6  13
ATOM     13  N   LIG d   1      -2.590  92.281 119.611  0.00  0.00    -0.311 N 
ATOM     14  C   LIG d   1      -1.941  91.942 120.724  0.00  0.00     0.210 C 
ATOM     15  C   LIG d   1      -0.884  92.949 121.187  0.00  0.00     0.109 C 
ATOM     16  O   LIG d   1      -2.119  90.889 121.354  0.00  0.00    -0.276 OA
ATOM     17  H   LIG d   1      -2.360  93.138 119.147  0.00  0.00     0.149 HD
ENDBRANCH   6  13
BRANCH   5  18
ATOM     18  N   LIG d   1      -2.208  90.376 117.253  0.00  0.00     0.381 N 
ATOM     19  H   LIG d   1      -1.663  90.314 118.090  0.00  0.00    -0.090 HD
ATOM     20  H   LIG d   1      -1.656  90.836 116.551  0.00  0.00    -0.090 HD
ATOM     21  H   LIG d   1      -2.458  89.463 116.943  0.00  0.00    -0.090 HD
ENDBRANCH   5  18
BRANCH   3  22
ATOM     22  C   LIG d   1      -6.889  90.807 116.335  0.00  0.00     0.382 C 
ATOM     23  O   LIG d   1      -7.453  91.802 115.821  0.00  0.00    -0.241 OA
ATOM     24  O   LIG d   1      -7.299  89.662 116.067  0.00  0.00    -0.241 OA
ENDBRANCH   3  22
TORSDOF 7
ENDMDL
MODEL 3
REMARK VINA RESULT:      -5.1     32.678     35.291
REMARK  7 active torsions:
REMARK  status: ('A' for Active; 'I' for Inactive)
REMARK    1  A    between atoms: C_2  and  C_3 
REMARK    2  A    between atoms: C_3  and  O_6 
REMARK    3  A    between atoms: C_3  and  C_4 
REMARK    4  A    between atoms: C_7  and  O_6 
REMARK    5  A    between atoms: C_9  and  C_10 
REMARK    6  A    between atoms: N_15  and  C_14 
REMARK    7  A    between atoms: N_20  and  C_19 
REMARK       I    between atoms: C_22  and  N_20 
ROOT
ATOM      1  C   LIG d   1      -5.336  92.020 119.203  0.00  0.00     0.161 C 
ATOM      2  C   LIG d   1      -4.267  91.338 118.598  0.00  0.00     0.016 C 
ATOM      3  C   LIG d   1      -4.347  90.746 117.317  0.00  0.00     0.038 C 
ATOM      4  C   LIG d   1      -5.461  90.929 116.484  0.00  0.00     0.028 C 
ATOM      5  C   LIG d   1      -6.755  91.182 117.251  0.00  0.00    -0.047 C 
ATOM      6  C   LIG d   1      -6.522  92.325 118.265  0.00  0.00     0.091 C 
ENDROOT
BRANCH   1   7
ATOM      7  O   LIG d   1      -4.857  93.234 119.815  0.00  0.00    -0.368 OA
BRANCH   7   8
ATOM      8  C   LIG d   1      -3.431  93.304 120.061  0.00  0.00     0.119 C 
BRANCH   8   9
ATOM      9  C   LIG d   1      -3.219  93.219 121.585  0.00  0.00     0.028 C 
ATOM     10  C   LIG d   1      -2.936  91.784 122.059  0.00  0.00     0.006 C 
ENDBRANCH   8   9
BRANCH   8  11
ATOM     11  C   LIG d   1      -2.860  94.664 119.647  0.00  0.00     0.028 C 
ATOM     12  C   LIG d   1      -3.928  95.769 119.601  0.00  0.00     0.006 C 
ENDBRANCH   8  11
ENDBRANCH   7   8
ENDBRANCH   1   7
BRANCH   6  13
ATOM     13  N   LIG d   1      -7.714  92.580 119.115  0.00  0.00    -0.311 N 
ATOM     14  C   LIG d   1      -8.702  93.403 118.765  0.00  0.00     0.210 C 
ATOM     15  C   LIG d   1      -9.827  93.538 119.796  0.00  0.00     0.109 C 
ATOM     16  O   LIG d   1      -8.769  94.008 117.685  0.00  0.00    -0.276 OA
ATOM     17  H   LIG d   1      -7.757  92.105 119.995  0.00  0.00     0.149 HD
ENDBRANCH   6  13
BRANCH   5  18
ATOM     18  N   LIG d   1      -7.806  91.491 116.262  0.00  0.00     0.381 N 
ATOM     19  H   LIG d   1      -8.599  90.901 116.415  0.00  0.00    -0.090 HD
ATOM     20  H   LIG d   1      -7.449  91.307 115.341  0.00  0.00    -0.090 HD
ATOM     21  H   LIG d   1      -8.074  92.447 116.338  0.00  0.00    -0.090 HD
ENDBRANCH   5  18
BRANCH   3  22
ATOM     22  C   LIG d   1      -3.319  89.929 116.872  0.00  0.00     0.382 C 
ATOM     23  O   LIG d   1      -2.148  90.114 117.282  0.00  0.00    -0.241 OA
ATOM     24  O   LIG d   1      -3.541  89.036 116.032  0.00  0.00    -0.241 OA
ENDBRANCH   3  22
TORSDOF 7
ENDMDL
MODEL 4
REMARK VINA RESULT:      -4.9      2.074      4.978
REMARK  7 active torsions:
REMARK  status: ('A' for Active; 'I' for Inactive)
REMARK    1  A    between atoms: C_2  and  C_3 
REMARK    2  A    between atoms: C_3  and  O_6 
REMARK    3  A    between atoms: C_3  and  C_4 
REMARK    4  A    between atoms: C_7  and  O_6 
REMARK    5  A    between atoms: C_9  and  C_10 
REMARK    6  A    between atoms: N_15  and  C_14 
REMARK    7  A    between atoms: N_20  and  C_19 
REMARK       I    between atoms: C_22  and  N_20 
ROOT
ATOM      1  C   LIG d   1       0.586  58.693 118.321  0.00  0.00     0.161 C 
ATOM      2  C   LIG d   1       0.607  59.380 119.547  0.00  0.00     0.016 C 
ATOM      3  C   LIG d   1       1.734  59.417 120.399  0.00  0.00     0.038 C 
ATOM      4  C   LIG d   1       2.975  58.892 120.011  0.00  0.00     0.028 C 
ATOM      5  C   LIG d   1       2.862  57.753 119.003  0.00  0.00    -0.047 C 
ATOM      6  C   LIG d   1       1.966  58.208 117.829  0.00  0.00     0.091 C 
ENDROOT
BRANCH   1   7
ATOM      7  O   LIG d   1      -0.046  59.508 117.315  0.00  0.00    -0.368 OA
BRANCH   7   8
ATOM      8  C   LIG d   1      -1.397  59.134 116.949  0.00  0.00     0.119 C 
BRANCH   8   9
ATOM      9  C   LIG d   1      -2.354  60.136 117.624  0.00  0.00     0.028 C 
ATOM     10  C   LIG d   1      -3.820  59.917 117.212  0.00  0.00     0.006 C 
ENDBRANCH   8   9
BRANCH   8  11
ATOM     11  C   LIG d   1      -1.772  57.765 117.524  0.00  0.00     0.028 C 
ATOM     12  C   LIG d   1      -2.101  56.731 116.436  0.00  0.00     0.006 C 
ENDBRANCH   8  11
ENDBRANCH   7   8
ENDBRANCH   1   7
BRANCH   6  13
ATOM     13  N   LIG d   1       1.734  57.124 116.839  0.00  0.00    -0.311 N 
ATOM     14  C   LIG d   1       1.332  55.899 117.174  0.00  0.00     0.210 C 
ATOM     15  C   LIG d   1       1.174  54.927 116.000  0.00  0.00     0.109 C 
ATOM     16  O   LIG d   1       1.061  55.534 118.328  0.00  0.00    -0.276 OA
ATOM     17  H   LIG d   1       1.901  57.342 115.876  0.00  0.00     0.149 HD
ENDBRANCH   6  13
BRANCH   5  18
ATOM     18  N   LIG d   1       4.229  57.393 118.582  0.00  0.00     0.381 N 
ATOM     19  H   LIG d   1       4.191  56.798 117.778  0.00  0.00    -0.090 HD
ATOM     20  H   LIG d   1       4.677  56.889 119.326  0.00  0.00    -0.090 HD
ATOM     21  H   LIG d   1       4.748  58.217 118.370  0.00  0.00    -0.090 HD
ENDBRANCH   5  18
BRANCH   3  22
ATOM     22  C   LIG d   1       1.614  59.950 121.674  0.00  0.00     0.382 C 
ATOM     23  O   LIG d   1       0.848  59.412 122.509  0.00  0.00    -0.241 OA
ATOM     24  O   LIG d   1       2.229  60.988 121.985  0.00  0.00    -0.241 OA
ENDBRANCH   3  22
TORSDOF 7
ENDMDL
MODEL 5
REMARK VINA RESULT:      -4.9      2.496      5.243
REMARK  7 active torsions:
REMARK  status: ('A' for Active; 'I' for Inactive)
REMARK    1  A    between atoms: C_2  and  C_3 
REMARK    2  A    between atoms: C_3  and  O_6 
REMARK    3  A    between atoms: C_3  and  C_4 
REMARK    4  A    between atoms: C_7  and  O_6 
REMARK    5  A    between atoms: C_9  and  C_10 
REMARK    6  A    between atoms: N_15  and  C_14 
REMARK    7  A    between atoms: N_20  and  C_19 
REMARK       I    between atoms: C_22  and  N_20 
ROOT
ATOM      1  C   LIG d   1       0.598  57.635 119.449  0.00  0.00     0.161 C 
ATOM      2  C   LIG d   1       1.907  57.152 119.613  0.00  0.00     0.016 C 
ATOM      3  C   LIG d   1       2.931  57.341 118.657  0.00  0.00     0.038 C 
ATOM      4  C   LIG d   1       2.754  58.161 117.532  0.00  0.00     0.028 C 
ATOM      5  C   LIG d   1       1.303  58.253 117.072  0.00  0.00    -0.047 C 
ATOM      6  C   LIG d   1       0.416  58.627 118.281  0.00  0.00     0.091 C 
ENDROOT
BRANCH   1   7
ATOM      7  O   LIG d   1       0.136  58.223 120.682  0.00  0.00    -0.368 OA
BRANCH   7   8
ATOM      8  C   LIG d   1       0.381  59.642 120.843  0.00  0.00     0.119 C 
BRANCH   8   9
ATOM      9  C   LIG d   1       1.335  59.814 122.040  0.00  0.00     0.028 C 
ATOM     10  C   LIG d   1       2.784  60.086 121.602  0.00  0.00     0.006 C 
ENDBRANCH   8   9
BRANCH   8  11
ATOM     11  C   LIG d   1      -0.899  60.387 121.233  0.00  0.00     0.028 C 
ATOM     12  C   LIG d   1      -2.106  59.451 121.402  0.00  0.00     0.006 C 
ENDBRANCH   8  11
ENDBRANCH   7   8
ENDBRANCH   1   7
BRANCH   6  13
ATOM     13  N   LIG d   1      -1.030  58.656 117.937  0.00  0.00    -0.311 N 
ATOM     14  C   LIG d   1      -1.694  59.775 117.654  0.00  0.00     0.210 C 
ATOM     15  C   LIG d   1      -3.182  59.583 117.345  0.00  0.00     0.109 C 
ATOM     16  O   LIG d   1      -1.185  60.905 117.599  0.00  0.00    -0.276 OA
ATOM     17  H   LIG d   1      -1.514  57.779 117.928  0.00  0.00     0.149 HD
ENDBRANCH   6  13
BRANCH   5  18
ATOM     18  N   LIG d   1       1.243  59.245 115.982  0.00  0.00     0.381 N 
ATOM     19  H   LIG d   1       2.118  59.724 115.912  0.00  0.00    -0.090 HD
ATOM     20  H   LIG d   1       0.530  59.920 116.195  0.00  0.00    -0.090 HD
ATOM     21  H   LIG d   1       1.034  58.791 115.120  0.00  0.00    -0.090 HD
ENDBRANCH   5  18
BRANCH   3  22
ATOM     22  C   LIG d   1       4.137  56.672 118.800  0.00  0.00     0.382 C 
ATOM     23  O   LIG d   1       5.067  57.191 119.464  0.00  0.00    -0.241 OA
ATOM     24  O   LIG d   1       4.323  55.576 118.238  0.00  0.00    -0.241 OA
ENDBRANCH   3  22
TORSDOF 7
ENDMDL
MODEL 6
REMARK VINA RESULT:      -4.6      2.396      5.206
REMARK  7 active torsions:
REMARK  status: ('A' for Active; 'I' for Inactive)
REMARK    1  A    between atoms: C_2  and  C_3 
REMARK    2  A    between atoms: C_3  and  O_6 
REMARK    3  A    between atoms: C_3  and  C_4 
REMARK    4  A    between atoms: C_7  and  O_6 
REMARK    5  A    between atoms: C_9  and  C_10 
REMARK    6  A    between atoms: N_15  and  C_14 
REMARK    7  A    between atoms: N_20  and  C_19 
REMARK       I    between atoms: C_22  and  N_20 
ROOT
ATOM      1  C   LIG d   1       0.991  58.564 119.246  0.00  0.00     0.161 C 
ATOM      2  C   LIG d   1       1.645  59.368 120.194  0.00  0.00     0.016 C 
ATOM      3  C   LIG d   1       3.019  59.244 120.502  0.00  0.00     0.038 C 
ATOM      4  C   LIG d   1       3.871  58.405 119.769  0.00  0.00     0.028 C 
ATOM      5  C   LIG d   1       3.156  57.211 119.146  0.00  0.00    -0.047 C 
ATOM      6  C   LIG d   1       1.927  57.719 118.357  0.00  0.00     0.091 C 
ENDROOT
BRANCH   1   7
ATOM      7  O   LIG d   1       0.125  59.378 118.429  0.00  0.00    -0.368 OA
BRANCH   7   8
ATOM      8  C   LIG d   1      -1.296  59.128 118.562  0.00  0.00     0.119 C 
BRANCH   8   9
ATOM      9  C   LIG d   1      -1.966  59.556 117.241  0.00  0.00     0.028 C 
ATOM     10  C   LIG d   1      -3.492  59.689 117.374  0.00  0.00     0.006 C 
ENDBRANCH   8   9
BRANCH   8  11
ATOM     11  C   LIG d   1      -1.920  60.019 119.640  0.00  0.00     0.028 C 
ATOM     12  C   LIG d   1      -2.041  59.312 121.000  0.00  0.00     0.006 C 
ENDBRANCH   8  11
ENDBRANCH   7   8
ENDBRANCH   1   7
BRANCH   6  13
ATOM     13  N   LIG d   1       1.123  56.608 117.785  0.00  0.00    -0.311 N 
ATOM     14  C   LIG d   1       0.531  56.670 116.593  0.00  0.00     0.210 C 
ATOM     15  C   LIG d   1      -0.267  55.422 116.202  0.00  0.00     0.109 C 
ATOM     16  O   LIG d   1       0.617  57.627 115.809  0.00  0.00    -0.276 OA
ATOM     17  H   LIG d   1       1.027  55.781 118.340  0.00  0.00     0.149 HD
ENDBRANCH   6  13
BRANCH   5  18
ATOM     18  N   LIG d   1       4.132  56.499 118.299  0.00  0.00     0.381 N 
ATOM     19  H   LIG d   1       3.901  56.628 117.335  0.00  0.00    -0.090 HD
ATOM     20  H   LIG d   1       4.086  55.517 118.506  0.00  0.00    -0.090 HD
ATOM     21  H   LIG d   1       5.051  56.841 118.477  0.00  0.00    -0.090 HD
ENDBRANCH   5  18
BRANCH   3  22
ATOM     22  C   LIG d   1       3.546  59.937 121.581  0.00  0.00     0.382 C 
ATOM     23  O   LIG d   1       2.783  60.548 122.368  0.00  0.00    -0.241 OA
ATOM     24  O   LIG d   1       4.779  59.997 121.753  0.00  0.00    -0.241 OA
ENDBRANCH   3  22
TORSDOF 7
ENDMDL
MODEL 7
REMARK VINA RESULT:      -4.6     30.566     32.923
REMARK  7 active torsions:
REMARK  status: ('A' for Active; 'I' for Inactive)
REMARK    1  A    between atoms: C_2  and  C_3 
REMARK    2  A    between atoms: C_3  and  O_6 
REMARK    3  A    between atoms: C_3  and  C_4 
REMARK    4  A    between atoms: C_7  and  O_6 
REMARK    5  A    between atoms: C_9  and  C_10 
REMARK    6  A    between atoms: N_15  and  C_14 
REMARK    7  A    between atoms: N_20  and  C_19 
REMARK       I    between atoms: C_22  and  N_20 
ROOT
ATOM      1  C   LIG d   1      -0.566  90.282 117.267  0.00  0.00     0.161 C 
ATOM      2  C   LIG d   1       0.613  90.743 117.876  0.00  0.00     0.016 C 
ATOM      3  C   LIG d   1       0.652  91.843 118.763  0.00  0.00     0.038 C 
ATOM      4  C   LIG d   1      -0.517  92.468 119.222  0.00  0.00     0.028 C 
ATOM      5  C   LIG d   1      -1.684  92.362 118.245  0.00  0.00    -0.047 C 
ATOM      6  C   LIG d   1      -1.867  90.881 117.842  0.00  0.00     0.091 C 
ENDROOT
BRANCH   1   7
ATOM      7  O   LIG d   1      -0.612  88.843 117.317  0.00  0.00    -0.368 OA
BRANCH   7   8
ATOM      8  C   LIG d   1       0.661  88.160 117.212  0.00  0.00     0.119 C 
BRANCH   8   9
ATOM      9  C   LIG d   1       0.738  87.537 115.805  0.00  0.00     0.028 C 
ATOM     10  C   LIG d   1       1.114  86.047 115.843  0.00  0.00     0.006 C 
ENDBRANCH   8   9
BRANCH   8  11
ATOM     11  C   LIG d   1       0.743  86.979 118.184  0.00  0.00     0.028 C 
ATOM     12  C   LIG d   1       1.135  87.404 119.608  0.00  0.00     0.006 C 
ENDBRANCH   8  11
ENDBRANCH   7   8
ENDBRANCH   1   7
BRANCH   6  13
ATOM     13  N   LIG d   1      -2.934  90.699 116.823  0.00  0.00    -0.311 N 
ATOM     14  C   LIG d   1      -4.205  90.443 117.130  0.00  0.00     0.210 C 
ATOM     15  C   LIG d   1      -5.139  90.271 115.928  0.00  0.00     0.109 C 
ATOM     16  O   LIG d   1      -4.653  90.373 118.284  0.00  0.00    -0.276 OA
ATOM     17  H   LIG d   1      -2.664  90.770 115.862  0.00  0.00     0.149 HD
ENDBRANCH   6  13
BRANCH   5  18
ATOM     18  N   LIG d   1      -2.872  92.933 118.907  0.00  0.00     0.381 N 
ATOM     19  H   LIG d   1      -2.614  93.319 119.793  0.00  0.00    -0.090 HD
ATOM     20  H   LIG d   1      -3.540  92.199 119.065  0.00  0.00    -0.090 HD
ATOM     21  H   LIG d   1      -3.275  93.640 118.333  0.00  0.00    -0.090 HD
ENDBRANCH   5  18
BRANCH   3  22
ATOM     22  C   LIG d   1       1.875  92.355 119.169  0.00  0.00     0.382 C 
ATOM     23  O   LIG d   1       2.900  92.158 118.472  0.00  0.00    -0.241 OA
ATOM     24  O   LIG d   1       1.975  92.974 120.246  0.00  0.00    -0.241 OA
ENDBRANCH   3  22
TORSDOF 7
ENDMDL
MODEL 8
REMARK VINA RESULT:      -4.6     31.895     33.805
REMARK  7 active torsions:
REMARK  status: ('A' for Active; 'I' for Inactive)
REMARK    1  A    between atoms: C_2  and  C_3 
REMARK    2  A    between atoms: C_3  and  O_6 
REMARK    3  A    between atoms: C_3  and  C_4 
REMARK    4  A    between atoms: C_7  and  O_6 
REMARK    5  A    between atoms: C_9  and  C_10 
REMARK    6  A    between atoms: N_15  and  C_14 
REMARK    7  A    between atoms: N_20  and  C_19 
REMARK       I    between atoms: C_22  and  N_20 
ROOT
ATOM      1  C   LIG d   1      -2.071  91.762 118.796  0.00  0.00     0.161 C 
ATOM      2  C   LIG d   1      -3.295  92.126 119.381  0.00  0.00     0.016 C 
ATOM      3  C   LIG d   1      -4.546  91.645 118.929  0.00  0.00     0.038 C 
ATOM      4  C   LIG d   1      -4.647  90.644 117.951  0.00  0.00     0.028 C 
ATOM      5  C   LIG d   1      -3.466  90.619 116.986  0.00  0.00    -0.047 C 
ATOM      6  C   LIG d   1      -2.153  90.586 117.801  0.00  0.00     0.091 C 
ENDROOT
BRANCH   1   7
ATOM      7  O   LIG d   1      -1.102  91.481 119.826  0.00  0.00    -0.368 OA
BRANCH   7   8
ATOM      8  C   LIG d   1       0.015  92.399 119.919  0.00  0.00     0.119 C 
BRANCH   8   9
ATOM      9  C   LIG d   1       1.308  91.563 119.860  0.00  0.00     0.028 C 
ATOM     10  C   LIG d   1       2.284  92.067 118.783  0.00  0.00     0.006 C 
ENDBRANCH   8   9
BRANCH   8  11
ATOM     11  C   LIG d   1       0.047  93.101 121.279  0.00  0.00     0.028 C 
ATOM     12  C   LIG d   1      -0.357  94.581 121.196  0.00  0.00     0.006 C 
ENDBRANCH   8  11
ENDBRANCH   7   8
ENDBRANCH   1   7
BRANCH   6  13
ATOM     13  N   LIG d   1      -0.947  90.645 116.934  0.00  0.00    -0.311 N 
ATOM     14  C   LIG d   1      -0.050  89.663 116.858  0.00  0.00     0.210 C 
ATOM     15  C   LIG d   1       1.129  89.936 115.919  0.00  0.00     0.109 C 
ATOM     16  O   LIG d   1      -0.136  88.579 117.454  0.00  0.00    -0.276 OA
ATOM     17  H   LIG d   1      -0.815  91.477 116.392  0.00  0.00     0.149 HD
ENDBRANCH   6  13
BRANCH   5  18
ATOM     18  N   LIG d   1      -3.632  89.445 116.109  0.00  0.00     0.381 N 
ATOM     19  H   LIG d   1      -4.420  88.907 116.409  0.00  0.00    -0.090 HD
ATOM     20  H   LIG d   1      -2.812  88.869 116.178  0.00  0.00    -0.090 HD
ATOM     21  H   LIG d   1      -3.762  89.740 115.166  0.00  0.00    -0.090 HD
ENDBRANCH   5  18
BRANCH   3  22
ATOM     22  C   LIG d   1      -5.716  92.197 119.429  0.00  0.00     0.382 C 
ATOM     23  O   LIG d   1      -5.782  92.539 120.635  0.00  0.00    -0.241 OA
ATOM     24  O   LIG d   1      -6.720  92.316 118.702  0.00  0.00    -0.241 OA
ENDBRANCH   3  22
TORSDOF 7
ENDMDL
MODEL 9
REMARK VINA RESULT:      -4.5     32.810     34.211
REMARK  7 active torsions:
REMARK  status: ('A' for Active; 'I' for Inactive)
REMARK    1  A    between atoms: C_2  and  C_3 
REMARK    2  A    between atoms: C_3  and  O_6 
REMARK    3  A    between atoms: C_3  and  C_4 
REMARK    4  A    between atoms: C_7  and  O_6 
REMARK    5  A    between atoms: C_9  and  C_10 
REMARK    6  A    between atoms: N_15  and  C_14 
REMARK    7  A    between atoms: N_20  and  C_19 
REMARK       I    between atoms: C_22  and  N_20 
ROOT
ATOM      1  C   LIG d   1      -3.832  91.995 119.145  0.00  0.00     0.161 C 
ATOM      2  C   LIG d   1      -5.067  91.689 118.550  0.00  0.00     0.016 C 
ATOM      3  C   LIG d   1      -5.199  90.857 117.414  0.00  0.00     0.038 C 
ATOM      4  C   LIG d   1      -4.110  90.148 116.884  0.00  0.00     0.028 C 
ATOM      5  C   LIG d   1      -2.766  90.821 117.141  0.00  0.00    -0.047 C 
ATOM      6  C   LIG d   1      -2.646  91.142 118.648  0.00  0.00     0.091 C 
ENDROOT
BRANCH   1   7
ATOM      7  O   LIG d   1      -3.946  91.907 120.579  0.00  0.00    -0.368 OA
BRANCH   7   8
ATOM      8  C   LIG d   1      -3.721  93.136 121.312  0.00  0.00     0.119 C 
BRANCH   8   9
ATOM      9  C   LIG d   1      -2.879  92.787 122.555  0.00  0.00     0.028 C 
ATOM     10  C   LIG d   1      -2.247  91.388 122.461  0.00  0.00     0.006 C 
ENDBRANCH   8   9
BRANCH   8  11
ATOM     11  C   LIG d   1      -5.032  93.707 121.859  0.00  0.00     0.028 C 
ATOM     12  C   LIG d   1      -6.113  92.633 122.059  0.00  0.00     0.006 C 
ENDBRANCH   8  11
ENDBRANCH   7   8
ENDBRANCH   1   7
BRANCH   6  13
ATOM     13  N   LIG d   1      -1.396  91.878 118.973  0.00  0.00    -0.311 N 
ATOM     14  C   LIG d   1      -0.255  91.275 119.304  0.00  0.00     0.210 C 
ATOM     15  C   LIG d   1       0.908  92.220 119.620  0.00  0.00     0.109 C 
ATOM     16  O   LIG d   1      -0.087  90.046 119.334  0.00  0.00    -0.276 OA
ATOM     17  H   LIG d   1      -1.434  92.878 118.942  0.00  0.00     0.149 HD
ENDBRANCH   6  13
BRANCH   5  18
ATOM     18  N   LIG d   1      -1.712  89.910 116.657  0.00  0.00     0.381 N 
ATOM     19  H   LIG d   1      -1.706  89.899 115.657  0.00  0.00    -0.090 HD
ATOM     20  H   LIG d   1      -1.912  88.980 116.981  0.00  0.00    -0.090 HD
ATOM     21  H   LIG d   1      -0.824  90.204 116.999  0.00  0.00    -0.090 HD
ENDBRANCH   5  18
BRANCH   3  22
ATOM     22  C   LIG d   1      -6.424  90.759 116.772  0.00  0.00     0.382 C 
ATOM     23  O   LIG d   1      -6.724  89.712 116.149  0.00  0.00    -0.241 OA
ATOM     24  O   LIG d   1      -7.215  91.721 116.770  0.00  0.00    -0.241 OA
ENDBRANCH   3  22
TORSDOF 7
ENDMDL
