MODEL 1
REMARK VINA RESULT:      -5.9      0.000      0.000
REMARK  7 active torsions:
REMARK  status: ('A' for Active; 'I' for Inactive)
REMARK    1  A    between atoms: C_2  and  C_3 
REMARK    2  A    between atoms: C_3  and  O_6 
REMARK    3  A    between atoms: C_3  and  C_4 
REMARK    4  A    between atoms: C_7  and  O_6 
REMARK    5  A    between atoms: C_9  and  C_10 
REMARK    6  A    between atoms: N_15  and  C_14 
REMARK    7  A    between atoms: N_20  and  C_19 
REMARK       I    between atoms: C_22  and  N_20 
ROOT
ATOM      1  C   LIG d   1      -8.537  75.579 118.436  0.00  0.00     0.161 C 
ATOM      2  C   LIG d   1      -9.782  75.967 118.960  0.00  0.00     0.016 C 
ATOM      3  C   LIG d   1     -10.157  77.316 119.156  0.00  0.00     0.038 C 
ATOM      4  C   LIG d   1      -9.365  78.380 118.697  0.00  0.00     0.028 C 
ATOM      5  C   LIG d   1      -7.880  78.041 118.621  0.00  0.00    -0.047 C 
ATOM      6  C   LIG d   1      -7.706  76.727 117.826  0.00  0.00     0.091 C 
ENDROOT
BRANCH   1   7
ATOM      7  O   LIG d   1      -8.721  74.526 117.469  0.00  0.00    -0.368 OA
BRANCH   7   8
ATOM      8  C   LIG d   1      -8.782  73.179 117.998  0.00  0.00     0.119 C 
BRANCH   8   9
ATOM      9  C   LIG d   1      -7.429  72.504 117.700  0.00  0.00     0.028 C 
ATOM     10  C   LIG d   1      -6.803  72.998 116.386  0.00  0.00     0.006 C 
ENDBRANCH   8   9
BRANCH   8  11
ATOM     11  C   LIG d   1      -9.826  72.336 117.259  0.00  0.00     0.028 C 
ATOM     12  C   LIG d   1      -9.772  70.849 117.643  0.00  0.00     0.006 C 
ENDBRANCH   8  11
ENDBRANCH   7   8
ENDBRANCH   1   7
BRANCH   6  13
ATOM     13  N   LIG d   1      -6.289  76.279 117.776  0.00  0.00    -0.311 N 
ATOM     14  C   LIG d   1      -5.461  76.576 116.776  0.00  0.00     0.210 C 
ATOM     15  C   LIG d   1      -4.049  75.998 116.912  0.00  0.00     0.109 C 
ATOM     16  O   LIG d   1      -5.753  77.290 115.805  0.00  0.00    -0.276 OA
ATOM     17  H   LIG d   1      -5.960  75.721 118.540  0.00  0.00     0.149 HD
ENDBRANCH   6  13
BRANCH   5  18
ATOM     18  N   LIG d   1      -7.193  79.189 117.999  0.00  0.00     0.381 N 
ATOM     19  H   LIG d   1      -7.636  80.041 118.279  0.00  0.00    -0.090 HD
ATOM     20  H   LIG d   1      -7.266  79.109 117.000  0.00  0.00    -0.090 HD
ATOM     21  H   LIG d   1      -6.234  79.200 118.270  0.00  0.00    -0.090 HD
ENDBRANCH   5  18
BRANCH   3  22
ATOM     22  C   LIG d   1     -11.318  77.612 119.854  0.00  0.00     0.382 C 
ATOM     23  O   LIG d   1     -12.376  76.986 119.604  0.00  0.00    -0.241 OA
ATOM     24  O   LIG d   1     -11.331  78.527 120.699  0.00  0.00    -0.241 OA
ENDBRANCH   3  22
TORSDOF 7
ENDMDL
MODEL 2
REMARK VINA RESULT:      -5.5      1.885      5.105
REMARK  7 active torsions:
REMARK  status: ('A' for Active; 'I' for Inactive)
REMARK    1  A    between atoms: C_2  and  C_3 
REMARK    2  A    between atoms: C_3  and  O_6 
REMARK    3  A    between atoms: C_3  and  C_4 
REMARK    4  A    between atoms: C_7  and  O_6 
REMARK    5  A    between atoms: C_9  and  C_10 
REMARK    6  A    between atoms: N_15  and  C_14 
REMARK    7  A    between atoms: N_20  and  C_19 
REMARK       I    between atoms: C_22  and  N_20 
ROOT
ATOM      1  C   LIG d   1      -8.774  74.835 117.724  0.00  0.00     0.161 C 
ATOM      2  C   LIG d   1      -9.455  73.607 117.762  0.00  0.00     0.016 C 
ATOM      3  C   LIG d   1      -8.849  72.371 117.438  0.00  0.00     0.038 C 
ATOM      4  C   LIG d   1      -7.471  72.261 117.199  0.00  0.00     0.028 C 
ATOM      5  C   LIG d   1      -6.847  73.542 116.656  0.00  0.00    -0.047 C 
ATOM      6  C   LIG d   1      -7.243  74.721 117.573  0.00  0.00     0.091 C 
ENDROOT
BRANCH   1   7
ATOM      7  O   LIG d   1      -9.106  75.614 118.890  0.00  0.00    -0.368 OA
BRANCH   7   8
ATOM      8  C   LIG d   1      -9.807  76.859 118.648  0.00  0.00     0.119 C 
BRANCH   8   9
ATOM      9  C   LIG d   1      -9.050  77.970 119.399  0.00  0.00     0.028 C 
ATOM     10  C   LIG d   1      -8.406  78.991 118.445  0.00  0.00     0.006 C 
ENDBRANCH   8   9
BRANCH   8  11
ATOM     11  C   LIG d   1     -11.210  76.837 119.261  0.00  0.00     0.028 C 
ATOM     12  C   LIG d   1     -11.362  77.819 120.434  0.00  0.00     0.006 C 
ENDBRANCH   8  11
ENDBRANCH   7   8
ENDBRANCH   1   7
BRANCH   6  13
ATOM     13  N   LIG d   1      -6.743  76.026 117.066  0.00  0.00    -0.311 N 
ATOM     14  C   LIG d   1      -5.585  76.565 117.445  0.00  0.00     0.210 C 
ATOM     15  C   LIG d   1      -5.269  77.926 116.817  0.00  0.00     0.109 C 
ATOM     16  O   LIG d   1      -4.775  76.029 118.216  0.00  0.00    -0.276 OA
ATOM     17  H   LIG d   1      -7.323  76.514 116.412  0.00  0.00     0.149 HD
ENDBRANCH   6  13
BRANCH   5  18
ATOM     18  N   LIG d   1      -5.388  73.331 116.583  0.00  0.00     0.381 N 
ATOM     19  H   LIG d   1      -5.096  73.313 115.626  0.00  0.00    -0.090 HD
ATOM     20  H   LIG d   1      -5.168  72.442 116.997  0.00  0.00    -0.090 HD
ATOM     21  H   LIG d   1      -4.914  74.059 117.069  0.00  0.00    -0.090 HD
ENDBRANCH   5  18
BRANCH   3  22
ATOM     22  C   LIG d   1      -9.632  71.234 117.313  0.00  0.00     0.382 C 
ATOM     23  O   LIG d   1      -9.874  70.762 116.176  0.00  0.00    -0.241 OA
ATOM     24  O   LIG d   1     -10.136  70.700 118.318  0.00  0.00    -0.241 OA
ENDBRANCH   3  22
TORSDOF 7
ENDMDL
MODEL 3
REMARK VINA RESULT:      -5.2     15.950     18.151
REMARK  7 active torsions:
REMARK  status: ('A' for Active; 'I' for Inactive)
REMARK    1  A    between atoms: C_2  and  C_3 
REMARK    2  A    between atoms: C_3  and  O_6 
REMARK    3  A    between atoms: C_3  and  C_4 
REMARK    4  A    between atoms: C_7  and  O_6 
REMARK    5  A    between atoms: C_9  and  C_10 
REMARK    6  A    between atoms: N_15  and  C_14 
REMARK    7  A    between atoms: N_20  and  C_19 
REMARK       I    between atoms: C_22  and  N_20 
ROOT
ATOM      1  C   LIG d   1      -5.945  93.441 118.480  0.00  0.00     0.161 C 
ATOM      2  C   LIG d   1      -7.203  93.990 118.183  0.00  0.00     0.016 C 
ATOM      3  C   LIG d   1      -7.613  95.274 118.609  0.00  0.00     0.038 C 
ATOM      4  C   LIG d   1      -6.729  96.163 119.238  0.00  0.00     0.028 C 
ATOM      5  C   LIG d   1      -5.610  95.465 120.003  0.00  0.00    -0.047 C 
ATOM      6  C   LIG d   1      -4.927  94.440 119.070  0.00  0.00     0.091 C 
ENDROOT
BRANCH   1   7
ATOM      7  O   LIG d   1      -5.400  92.804 117.308  0.00  0.00    -0.368 OA
BRANCH   7   8
ATOM      8  C   LIG d   1      -5.337  91.357 117.340  0.00  0.00     0.119 C 
BRANCH   8   9
ATOM      9  C   LIG d   1      -3.849  90.958 117.351  0.00  0.00     0.028 C 
ATOM     10  C   LIG d   1      -3.510  89.991 118.498  0.00  0.00     0.006 C 
ENDBRANCH   8   9
BRANCH   8  11
ATOM     11  C   LIG d   1      -5.911  90.746 116.058  0.00  0.00     0.028 C 
ATOM     12  C   LIG d   1      -7.411  90.431 116.167  0.00  0.00     0.006 C 
ENDBRANCH   8  11
ENDBRANCH   7   8
ENDBRANCH   1   7
BRANCH   6  13
ATOM     13  N   LIG d   1      -3.876  93.652 119.765  0.00  0.00    -0.311 N 
ATOM     14  C   LIG d   1      -2.586  93.702 119.438  0.00  0.00     0.210 C 
ATOM     15  C   LIG d   1      -1.672  92.795 120.269  0.00  0.00     0.109 C 
ATOM     16  O   LIG d   1      -2.107  94.435 118.559  0.00  0.00    -0.276 OA
ATOM     17  H   LIG d   1      -4.172  93.055 120.512  0.00  0.00     0.149 HD
ENDBRANCH   6  13
BRANCH   5  18
ATOM     18  N   LIG d   1      -4.687  96.507 120.492  0.00  0.00     0.381 N 
ATOM     19  H   LIG d   1      -3.882  96.079 120.904  0.00  0.00    -0.090 HD
ATOM     20  H   LIG d   1      -5.153  97.049 121.198  0.00  0.00    -0.090 HD
ATOM     21  H   LIG d   1      -4.409  97.097 119.739  0.00  0.00    -0.090 HD
ENDBRANCH   5  18
BRANCH   3  22
ATOM     22  C   LIG d   1      -8.932  95.665 118.442  0.00  0.00     0.382 C 
ATOM     23  O   LIG d   1      -9.861  94.854 118.672  0.00  0.00    -0.241 OA
ATOM     24  O   LIG d   1      -9.205  96.806 118.021  0.00  0.00    -0.241 OA
ENDBRANCH   3  22
TORSDOF 7
ENDMDL
MODEL 4
REMARK VINA RESULT:      -5.1      2.070      5.024
REMARK  7 active torsions:
REMARK  status: ('A' for Active; 'I' for Inactive)
REMARK    1  A    between atoms: C_2  and  C_3 
REMARK    2  A    between atoms: C_3  and  O_6 
REMARK    3  A    between atoms: C_3  and  C_4 
REMARK    4  A    between atoms: C_7  and  O_6 
REMARK    5  A    between atoms: C_9  and  C_10 
REMARK    6  A    between atoms: N_15  and  C_14 
REMARK    7  A    between atoms: N_20  and  C_19 
REMARK       I    between atoms: C_22  and  N_20 
ROOT
ATOM      1  C   LIG d   1      -8.025  75.637 116.752  0.00  0.00     0.161 C 
ATOM      2  C   LIG d   1      -8.862  74.525 116.940  0.00  0.00     0.016 C 
ATOM      3  C   LIG d   1      -8.381  73.204 117.088  0.00  0.00     0.038 C 
ATOM      4  C   LIG d   1      -7.011  72.923 117.211  0.00  0.00     0.028 C 
ATOM      5  C   LIG d   1      -6.119  73.950 116.522  0.00  0.00    -0.047 C 
ATOM      6  C   LIG d   1      -6.525  75.365 116.994  0.00  0.00     0.091 C 
ENDROOT
BRANCH   1   7
ATOM      7  O   LIG d   1      -8.474  76.732 117.575  0.00  0.00    -0.368 OA
BRANCH   7   8
ATOM      8  C   LIG d   1      -8.007  76.733 118.946  0.00  0.00     0.119 C 
BRANCH   8   9
ATOM      9  C   LIG d   1      -9.246  76.639 119.857  0.00  0.00     0.028 C 
ATOM     10  C   LIG d   1     -10.545  77.005 119.121  0.00  0.00     0.006 C 
ENDBRANCH   8   9
BRANCH   8  11
ATOM     11  C   LIG d   1      -7.339  78.064 119.306  0.00  0.00     0.028 C 
ATOM     12  C   LIG d   1      -7.431  79.101 118.175  0.00  0.00     0.006 C 
ENDBRANCH   8  11
ENDBRANCH   7   8
ENDBRANCH   1   7
BRANCH   6  13
ATOM     13  N   LIG d   1      -5.757  76.435 116.305  0.00  0.00    -0.311 N 
ATOM     14  C   LIG d   1      -4.657  76.990 116.812  0.00  0.00     0.210 C 
ATOM     15  C   LIG d   1      -4.031  78.089 115.948  0.00  0.00     0.109 C 
ATOM     16  O   LIG d   1      -4.122  76.654 117.879  0.00  0.00    -0.276 OA
ATOM     17  H   LIG d   1      -6.103  76.746 115.419  0.00  0.00     0.149 HD
ENDBRANCH   6  13
BRANCH   5  18
ATOM     18  N   LIG d   1      -4.720  73.613 116.846  0.00  0.00     0.381 N 
ATOM     19  H   LIG d   1      -4.669  72.675 117.191  0.00  0.00    -0.090 HD
ATOM     20  H   LIG d   1      -4.394  74.232 117.566  0.00  0.00    -0.090 HD
ATOM     21  H   LIG d   1      -4.150  73.707 116.034  0.00  0.00    -0.090 HD
ENDBRANCH   5  18
BRANCH   3  22
ATOM     22  C   LIG d   1      -9.272  72.142 117.076  0.00  0.00     0.382 C 
ATOM     23  O   LIG d   1     -10.218  72.108 117.899  0.00  0.00    -0.241 OA
ATOM     24  O   LIG d   1      -9.116  71.196 116.281  0.00  0.00    -0.241 OA
ENDBRANCH   3  22
TORSDOF 7
ENDMDL
MODEL 5
REMARK VINA RESULT:      -4.9      2.067      5.325
REMARK  7 active torsions:
REMARK  status: ('A' for Active; 'I' for Inactive)
REMARK    1  A    between atoms: C_2  and  C_3 
REMARK    2  A    between atoms: C_3  and  O_6 
REMARK    3  A    between atoms: C_3  and  C_4 
REMARK    4  A    between atoms: C_7  and  O_6 
REMARK    5  A    between atoms: C_9  and  C_10 
REMARK    6  A    between atoms: N_15  and  C_14 
REMARK    7  A    between atoms: N_20  and  C_19 
REMARK       I    between atoms: C_22  and  N_20 
ROOT
ATOM      1  C   LIG d   1      -7.268  75.491 117.664  0.00  0.00     0.161 C 
ATOM      2  C   LIG d   1      -7.417  74.195 117.141  0.00  0.00     0.016 C 
ATOM      3  C   LIG d   1      -8.629  73.469 117.194  0.00  0.00     0.038 C 
ATOM      4  C   LIG d   1      -9.824  74.052 117.642  0.00  0.00     0.028 C 
ATOM      5  C   LIG d   1      -9.608  75.182 118.643  0.00  0.00    -0.047 C 
ATOM      6  C   LIG d   1      -8.589  76.185 118.056  0.00  0.00     0.091 C 
ENDROOT
BRANCH   1   7
ATOM      7  O   LIG d   1      -6.528  76.309 116.738  0.00  0.00    -0.368 OA
BRANCH   7   8
ATOM      8  C   LIG d   1      -5.135  76.540 117.064  0.00  0.00     0.119 C 
BRANCH   8   9
ATOM      9  C   LIG d   1      -4.804  77.995 116.676  0.00  0.00     0.028 C 
ATOM     10  C   LIG d   1      -5.795  79.003 117.280  0.00  0.00     0.006 C 
ENDBRANCH   8   9
BRANCH   8  11
ATOM     11  C   LIG d   1      -4.210  75.671 116.207  0.00  0.00     0.028 C 
ATOM     12  C   LIG d   1      -3.579  74.514 116.997  0.00  0.00     0.006 C 
ENDBRANCH   8  11
ENDBRANCH   7   8
ENDBRANCH   1   7
BRANCH   6  13
ATOM     13  N   LIG d   1      -8.257  77.278 119.007  0.00  0.00    -0.311 N 
ATOM     14  C   LIG d   1      -8.981  78.389 119.129  0.00  0.00     0.210 C 
ATOM     15  C   LIG d   1      -8.452  79.397 120.154  0.00  0.00     0.109 C 
ATOM     16  O   LIG d   1     -10.029  78.622 118.507  0.00  0.00    -0.276 OA
ATOM     17  H   LIG d   1      -7.440  77.158 119.573  0.00  0.00     0.149 HD
ENDBRANCH   6  13
BRANCH   5  18
ATOM     18  N   LIG d   1     -10.924  75.790 118.920  0.00  0.00     0.381 N 
ATOM     19  H   LIG d   1     -10.883  76.775 118.753  0.00  0.00    -0.090 HD
ATOM     20  H   LIG d   1     -11.153  75.642 119.887  0.00  0.00    -0.090 HD
ATOM     21  H   LIG d   1     -11.619  75.375 118.340  0.00  0.00    -0.090 HD
ENDBRANCH   5  18
BRANCH   3  22
ATOM     22  C   LIG d   1      -8.645  72.131 116.833  0.00  0.00     0.382 C 
ATOM     23  O   LIG d   1      -9.739  71.537 116.672  0.00  0.00    -0.241 OA
ATOM     24  O   LIG d   1      -7.580  71.497 116.709  0.00  0.00    -0.241 OA
ENDBRANCH   3  22
TORSDOF 7
ENDMDL
MODEL 6
REMARK VINA RESULT:      -4.9      1.737      2.112
REMARK  7 active torsions:
REMARK  status: ('A' for Active; 'I' for Inactive)
REMARK    1  A    between atoms: C_2  and  C_3 
REMARK    2  A    between atoms: C_3  and  O_6 
REMARK    3  A    between atoms: C_3  and  C_4 
REMARK    4  A    between atoms: C_7  and  O_6 
REMARK    5  A    between atoms: C_9  and  C_10 
REMARK    6  A    between atoms: N_15  and  C_14 
REMARK    7  A    between atoms: N_20  and  C_19 
REMARK       I    between atoms: C_22  and  N_20 
ROOT
ATOM      1  C   LIG d   1      -7.398  77.044 117.856  0.00  0.00     0.161 C 
ATOM      2  C   LIG d   1      -8.592  77.666 118.260  0.00  0.00     0.016 C 
ATOM      3  C   LIG d   1      -8.706  79.056 118.489  0.00  0.00     0.038 C 
ATOM      4  C   LIG d   1      -7.666  79.946 118.183  0.00  0.00     0.028 C 
ATOM      5  C   LIG d   1      -6.282  79.308 118.253  0.00  0.00    -0.047 C 
ATOM      6  C   LIG d   1      -6.284  78.013 117.409  0.00  0.00     0.091 C 
ENDROOT
BRANCH   1   7
ATOM      7  O   LIG d   1      -7.675  76.085 116.816  0.00  0.00    -0.368 OA
BRANCH   7   8
ATOM      8  C   LIG d   1      -7.963  74.735 117.255  0.00  0.00     0.119 C 
BRANCH   8   9
ATOM      9  C   LIG d   1      -7.217  73.771 116.312  0.00  0.00     0.028 C 
ATOM     10  C   LIG d   1      -5.792  74.252 115.990  0.00  0.00     0.006 C 
ENDBRANCH   8   9
BRANCH   8  11
ATOM     11  C   LIG d   1      -9.448  74.399 117.086  0.00  0.00     0.028 C 
ATOM     12  C   LIG d   1      -9.819  73.026 117.669  0.00  0.00     0.006 C 
ENDBRANCH   8  11
ENDBRANCH   7   8
ENDBRANCH   1   7
BRANCH   6  13
ATOM     13  N   LIG d   1      -4.992  77.282 117.491  0.00  0.00    -0.311 N 
ATOM     14  C   LIG d   1      -3.963  77.519 116.681  0.00  0.00     0.210 C 
ATOM     15  C   LIG d   1      -2.733  76.639 116.923  0.00  0.00     0.109 C 
ATOM     16  O   LIG d   1      -3.939  78.397 115.805  0.00  0.00    -0.276 OA
ATOM     17  H   LIG d   1      -4.913  76.573 118.195  0.00  0.00     0.149 HD
ENDBRANCH   6  13
BRANCH   5  18
ATOM     18  N   LIG d   1      -5.307  80.307 117.777  0.00  0.00     0.381 N 
ATOM     19  H   LIG d   1      -4.569  79.850 117.279  0.00  0.00    -0.090 HD
ATOM     20  H   LIG d   1      -4.908  80.775 118.572  0.00  0.00    -0.090 HD
ATOM     21  H   LIG d   1      -5.757  80.969 117.184  0.00  0.00    -0.090 HD
ENDBRANCH   5  18
BRANCH   3  22
ATOM     22  C   LIG d   1      -9.858  79.564 119.070  0.00  0.00     0.382 C 
ATOM     23  O   LIG d   1     -10.911  78.882 119.075  0.00  0.00    -0.241 OA
ATOM     24  O   LIG d   1      -9.870  80.714 119.549  0.00  0.00    -0.241 OA
ENDBRANCH   3  22
TORSDOF 7
ENDMDL
MODEL 7
REMARK VINA RESULT:      -4.9     15.076     17.331
REMARK  7 active torsions:
REMARK  status: ('A' for Active; 'I' for Inactive)
REMARK    1  A    between atoms: C_2  and  C_3 
REMARK    2  A    between atoms: C_3  and  O_6 
REMARK    3  A    between atoms: C_3  and  C_4 
REMARK    4  A    between atoms: C_7  and  O_6 
REMARK    5  A    between atoms: C_9  and  C_10 
REMARK    6  A    between atoms: N_15  and  C_14 
REMARK    7  A    between atoms: N_20  and  C_19 
REMARK       I    between atoms: C_22  and  N_20 
ROOT
ATOM      1  C   LIG d   1      -4.397  92.047 118.276  0.00  0.00     0.161 C 
ATOM      2  C   LIG d   1      -5.162  91.268 117.392  0.00  0.00     0.016 C 
ATOM      3  C   LIG d   1      -6.377  91.708 116.820  0.00  0.00     0.038 C 
ATOM      4  C   LIG d   1      -6.836  93.024 116.975  0.00  0.00     0.028 C 
ATOM      5  C   LIG d   1      -6.358  93.684 118.264  0.00  0.00    -0.047 C 
ATOM      6  C   LIG d   1      -4.824  93.527 118.369  0.00  0.00     0.091 C 
ENDROOT
BRANCH   1   7
ATOM      7  O   LIG d   1      -3.001  91.949 117.929  0.00  0.00    -0.368 OA
BRANCH   7   8
ATOM      8  C   LIG d   1      -2.141  91.327 118.916  0.00  0.00     0.119 C 
BRANCH   8   9
ATOM      9  C   LIG d   1      -1.463  90.119 118.241  0.00  0.00     0.028 C 
ATOM     10  C   LIG d   1      -2.363  88.872 118.227  0.00  0.00     0.006 C 
ENDBRANCH   8   9
BRANCH   8  11
ATOM     11  C   LIG d   1      -2.955  90.740 120.073  0.00  0.00     0.028 C 
ATOM     12  C   LIG d   1      -2.538  91.305 121.440  0.00  0.00     0.006 C 
ENDBRANCH   8  11
ENDBRANCH   7   8
ENDBRANCH   1   7
BRANCH   6  13
ATOM     13  N   LIG d   1      -4.285  94.071 119.642  0.00  0.00    -0.311 N 
ATOM     14  C   LIG d   1      -3.198  94.838 119.710  0.00  0.00     0.210 C 
ATOM     15  C   LIG d   1      -2.802  95.276 121.123  0.00  0.00     0.109 C 
ATOM     16  O   LIG d   1      -2.542  95.223 118.730  0.00  0.00    -0.276 OA
ATOM     17  H   LIG d   1      -4.773  93.833 120.484  0.00  0.00     0.149 HD
ENDBRANCH   6  13
BRANCH   5  18
ATOM     18  N   LIG d   1      -6.794  95.093 118.231  0.00  0.00     0.381 N 
ATOM     19  H   LIG d   1      -6.000  95.690 118.113  0.00  0.00    -0.090 HD
ATOM     20  H   LIG d   1      -7.230  95.319 119.107  0.00  0.00    -0.090 HD
ATOM     21  H   LIG d   1      -7.438  95.234 117.484  0.00  0.00    -0.090 HD
ENDBRANCH   5  18
BRANCH   3  22
ATOM     22  C   LIG d   1      -7.168  90.813 116.114  0.00  0.00     0.382 C 
ATOM     23  O   LIG d   1      -8.348  91.120 115.815  0.00  0.00    -0.241 OA
ATOM     24  O   LIG d   1      -6.732  89.687 115.811  0.00  0.00    -0.241 OA
ENDBRANCH   3  22
TORSDOF 7
ENDMDL
MODEL 8
REMARK VINA RESULT:      -4.7      2.199      5.470
REMARK  7 active torsions:
REMARK  status: ('A' for Active; 'I' for Inactive)
REMARK    1  A    between atoms: C_2  and  C_3 
REMARK    2  A    between atoms: C_3  and  O_6 
REMARK    3  A    between atoms: C_3  and  C_4 
REMARK    4  A    between atoms: C_7  and  O_6 
REMARK    5  A    between atoms: C_9  and  C_10 
REMARK    6  A    between atoms: N_15  and  C_14 
REMARK    7  A    between atoms: N_20  and  C_19 
REMARK       I    between atoms: C_22  and  N_20 
ROOT
ATOM      1  C   LIG d   1      -7.701  76.569 118.203  0.00  0.00     0.161 C 
ATOM      2  C   LIG d   1      -7.775  75.236 117.765  0.00  0.00     0.016 C 
ATOM      3  C   LIG d   1      -8.949  74.453 117.848  0.00  0.00     0.038 C 
ATOM      4  C   LIG d   1     -10.180  75.002 118.239  0.00  0.00     0.028 C 
ATOM      5  C   LIG d   1     -10.040  76.204 119.166  0.00  0.00    -0.047 C 
ATOM      6  C   LIG d   1      -9.062  77.218 118.529  0.00  0.00     0.091 C 
ENDROOT
BRANCH   1   7
ATOM      7  O   LIG d   1      -6.986  77.362 117.235  0.00  0.00    -0.368 OA
BRANCH   7   8
ATOM      8  C   LIG d   1      -5.579  77.579 117.503  0.00  0.00     0.119 C 
BRANCH   8   9
ATOM      9  C   LIG d   1      -5.380  77.499 119.029  0.00  0.00     0.028 C 
ATOM     10  C   LIG d   1      -3.963  77.044 119.413  0.00  0.00     0.006 C 
ENDBRANCH   8   9
BRANCH   8  11
ATOM     11  C   LIG d   1      -5.149  78.995 117.111  0.00  0.00     0.028 C 
ATOM     12  C   LIG d   1      -6.079  80.079 117.678  0.00  0.00     0.006 C 
ENDBRANCH   8  11
ENDBRANCH   7   8
ENDBRANCH   1   7
BRANCH   6  13
ATOM     13  N   LIG d   1      -8.804  78.387 119.410  0.00  0.00    -0.311 N 
ATOM     14  C   LIG d   1      -9.498  79.521 119.346  0.00  0.00     0.210 C 
ATOM     15  C   LIG d   1      -9.055  80.607 120.331  0.00  0.00     0.109 C 
ATOM     16  O   LIG d   1     -10.460  79.720 118.588  0.00  0.00    -0.276 OA
ATOM     17  H   LIG d   1      -8.061  78.300 120.076  0.00  0.00     0.149 HD
ENDBRANCH   6  13
BRANCH   5  18
ATOM     18  N   LIG d   1     -11.389  76.759 119.383  0.00  0.00     0.381 N 
ATOM     19  H   LIG d   1     -11.625  76.707 120.353  0.00  0.00    -0.090 HD
ATOM     20  H   LIG d   1     -12.053  76.210 118.866  0.00  0.00    -0.090 HD
ATOM     21  H   LIG d   1     -11.421  77.707 119.076  0.00  0.00    -0.090 HD
ENDBRANCH   5  18
BRANCH   3  22
ATOM     22  C   LIG d   1      -8.890  73.095 117.576  0.00  0.00     0.382 C 
ATOM     23  O   LIG d   1      -9.927  72.479 117.229  0.00  0.00    -0.241 OA
ATOM     24  O   LIG d   1      -7.823  72.468 117.717  0.00  0.00    -0.241 OA
ENDBRANCH   3  22
TORSDOF 7
ENDMDL
MODEL 9
REMARK VINA RESULT:      -4.7     15.943     18.567
REMARK  7 active torsions:
REMARK  status: ('A' for Active; 'I' for Inactive)
REMARK    1  A    between atoms: C_2  and  C_3 
REMARK    2  A    between atoms: C_3  and  O_6 
REMARK    3  A    between atoms: C_3  and  C_4 
REMARK    4  A    between atoms: C_7  and  O_6 
REMARK    5  A    between atoms: C_9  and  C_10 
REMARK    6  A    between atoms: N_15  and  C_14 
REMARK    7  A    between atoms: N_20  and  C_19 
REMARK       I    between atoms: C_22  and  N_20 
ROOT
ATOM      1  C   LIG d   1      -5.012  92.850 119.245  0.00  0.00     0.161 C 
ATOM      2  C   LIG d   1      -5.336  91.862 118.301  0.00  0.00     0.016 C 
ATOM      3  C   LIG d   1      -6.354  92.015 117.331  0.00  0.00     0.038 C 
ATOM      4  C   LIG d   1      -7.020  93.236 117.143  0.00  0.00     0.028 C 
ATOM      5  C   LIG d   1      -7.078  94.095 118.401  0.00  0.00    -0.047 C 
ATOM      6  C   LIG d   1      -5.652  94.229 118.983  0.00  0.00     0.091 C 
ENDROOT
BRANCH   1   7
ATOM      7  O   LIG d   1      -3.580  92.974 119.351  0.00  0.00    -0.368 OA
BRANCH   7   8
ATOM      8  C   LIG d   1      -2.864  93.177 118.108  0.00  0.00     0.119 C 
BRANCH   8   9
ATOM      9  C   LIG d   1      -1.729  92.137 118.053  0.00  0.00     0.028 C 
ATOM     10  C   LIG d   1      -1.734  91.197 119.270  0.00  0.00     0.006 C 
ENDBRANCH   8   9
BRANCH   8  11
ATOM     11  C   LIG d   1      -2.167  94.540 118.082  0.00  0.00     0.028 C 
ATOM     12  C   LIG d   1      -0.808  94.501 117.367  0.00  0.00     0.006 C 
ENDBRANCH   8  11
ENDBRANCH   7   8
ENDBRANCH   1   7
BRANCH   6  13
ATOM     13  N   LIG d   1      -5.632  94.985 120.263  0.00  0.00    -0.311 N 
ATOM     14  C   LIG d   1      -5.385  96.292 120.338  0.00  0.00     0.210 C 
ATOM     15  C   LIG d   1      -5.391  96.870 121.757  0.00  0.00     0.109 C 
ATOM     16  O   LIG d   1      -5.193  97.033 119.362  0.00  0.00    -0.276 OA
ATOM     17  H   LIG d   1      -5.808  94.468 121.101  0.00  0.00     0.149 HD
ENDBRANCH   6  13
BRANCH   5  18
ATOM     18  N   LIG d   1      -7.675  95.391 118.028  0.00  0.00     0.381 N 
ATOM     19  H   LIG d   1      -8.645  95.269 117.815  0.00  0.00    -0.090 HD
ATOM     20  H   LIG d   1      -7.213  95.738 117.206  0.00  0.00    -0.090 HD
ATOM     21  H   LIG d   1      -7.572  96.042 118.775  0.00  0.00    -0.090 HD
ENDBRANCH   5  18
BRANCH   3  22
ATOM     22  C   LIG d   1      -6.742  90.927 116.565  0.00  0.00     0.382 C 
ATOM     23  O   LIG d   1      -7.949  90.775 116.258  0.00  0.00    -0.241 OA
ATOM     24  O   LIG d   1      -5.908  90.072 116.213  0.00  0.00    -0.241 OA
ENDBRANCH   3  22
TORSDOF 7
ENDMDL
