MODEL 1
REMARK VINA RESULT:      -5.5      0.000      0.000
REMARK  7 active torsions:
REMARK  status: ('A' for Active; 'I' for Inactive)
REMARK    1  A    between atoms: C_2  and  C_3 
REMARK    2  A    between atoms: C_3  and  O_6 
REMARK    3  A    between atoms: C_3  and  C_4 
REMARK    4  A    between atoms: C_7  and  O_6 
REMARK    5  A    between atoms: C_9  and  C_10 
REMARK    6  A    between atoms: N_15  and  C_14 
REMARK    7  A    between atoms: N_20  and  C_19 
REMARK       I    between atoms: C_22  and  N_20 
ROOT
ATOM      1  C   LIG d   1      -7.494  74.737 118.815  0.00  0.00     0.161 C 
ATOM      2  C   LIG d   1      -8.783  75.219 119.094  0.00  0.00     0.016 C 
ATOM      3  C   LIG d   1      -9.232  76.504 118.712  0.00  0.00     0.038 C 
ATOM      4  C   LIG d   1      -8.467  77.343 117.888  0.00  0.00     0.028 C 
ATOM      5  C   LIG d   1      -6.966  77.102 118.006  0.00  0.00    -0.047 C 
ATOM      6  C   LIG d   1      -6.683  75.594 117.821  0.00  0.00     0.091 C 
ENDROOT
BRANCH   1   7
ATOM      7  O   LIG d   1      -7.571  73.373 118.354  0.00  0.00    -0.368 OA
BRANCH   7   8
ATOM      8  C   LIG d   1      -8.308  73.157 117.125  0.00  0.00     0.119 C 
BRANCH   8   9
ATOM      9  C   LIG d   1      -9.264  71.972 117.361  0.00  0.00     0.028 C 
ATOM     10  C   LIG d   1      -9.257  71.494 118.822  0.00  0.00     0.006 C 
ENDBRANCH   8   9
BRANCH   8  11
ATOM     11  C   LIG d   1      -7.380  72.710 115.991  0.00  0.00     0.028 C 
ATOM     12  C   LIG d   1      -6.709  71.356 116.269  0.00  0.00     0.006 C 
ENDBRANCH   8  11
ENDBRANCH   7   8
ENDBRANCH   1   7
BRANCH   6  13
ATOM     13  N   LIG d   1      -5.247  75.259 118.006  0.00  0.00    -0.311 N 
ATOM     14  C   LIG d   1      -4.439  74.916 117.004  0.00  0.00     0.210 C 
ATOM     15  C   LIG d   1      -3.000  74.591 117.415  0.00  0.00     0.109 C 
ATOM     16  O   LIG d   1      -4.770  74.880 115.809  0.00  0.00    -0.276 OA
ATOM     17  H   LIG d   1      -4.887  75.293 118.939  0.00  0.00     0.149 HD
ENDBRANCH   6  13
BRANCH   5  18
ATOM     18  N   LIG d   1      -6.298  77.944 116.996  0.00  0.00     0.381 N 
ATOM     19  H   LIG d   1      -5.788  77.367 116.357  0.00  0.00    -0.090 HD
ATOM     20  H   LIG d   1      -5.647  78.554 117.459  0.00  0.00    -0.090 HD
ATOM     21  H   LIG d   1      -6.974  78.483 116.501  0.00  0.00    -0.090 HD
ENDBRANCH   5  18
BRANCH   3  22
ATOM     22  C   LIG d   1     -10.445  76.979 119.189  0.00  0.00     0.382 C 
ATOM     23  O   LIG d   1     -10.774  76.769 120.382  0.00  0.00    -0.241 OA
ATOM     24  O   LIG d   1     -11.233  77.575 118.431  0.00  0.00    -0.241 OA
ENDBRANCH   3  22
TORSDOF 7
ENDMDL
MODEL 2
REMARK VINA RESULT:      -5.3      1.753      2.226
REMARK  7 active torsions:
REMARK  status: ('A' for Active; 'I' for Inactive)
REMARK    1  A    between atoms: C_2  and  C_3 
REMARK    2  A    between atoms: C_3  and  O_6 
REMARK    3  A    between atoms: C_3  and  C_4 
REMARK    4  A    between atoms: C_7  and  O_6 
REMARK    5  A    between atoms: C_9  and  C_10 
REMARK    6  A    between atoms: N_15  and  C_14 
REMARK    7  A    between atoms: N_20  and  C_19 
REMARK       I    between atoms: C_22  and  N_20 
ROOT
ATOM      1  C   LIG d   1      -8.011  75.744 119.508  0.00  0.00     0.161 C 
ATOM      2  C   LIG d   1      -9.281  75.927 120.080  0.00  0.00     0.016 C 
ATOM      3  C   LIG d   1     -10.027  77.121 119.952  0.00  0.00     0.038 C 
ATOM      4  C   LIG d   1      -9.615  78.166 119.111  0.00  0.00     0.028 C 
ATOM      5  C   LIG d   1      -8.104  78.228 118.917  0.00  0.00    -0.047 C 
ATOM      6  C   LIG d   1      -7.594  76.831 118.495  0.00  0.00     0.091 C 
ENDROOT
BRANCH   1   7
ATOM      7  O   LIG d   1      -7.931  74.438 118.903  0.00  0.00    -0.368 OA
BRANCH   7   8
ATOM      8  C   LIG d   1      -9.177  73.887 118.411  0.00  0.00     0.119 C 
BRANCH   8   9
ATOM      9  C   LIG d   1      -9.190  72.386 118.762  0.00  0.00     0.028 C 
ATOM     10  C   LIG d   1      -9.237  71.492 117.511  0.00  0.00     0.006 C 
ENDBRANCH   8   9
BRANCH   8  11
ATOM     11  C   LIG d   1      -9.248  73.946 116.882  0.00  0.00     0.028 C 
ATOM     12  C   LIG d   1      -9.874  75.252 116.365  0.00  0.00     0.006 C 
ENDBRANCH   8  11
ENDBRANCH   7   8
ENDBRANCH   1   7
BRANCH   6  13
ATOM     13  N   LIG d   1      -6.115  76.782 118.367  0.00  0.00    -0.311 N 
ATOM     14  C   LIG d   1      -5.471  76.993 117.219  0.00  0.00     0.210 C 
ATOM     15  C   LIG d   1      -3.946  76.876 117.302  0.00  0.00     0.109 C 
ATOM     16  O   LIG d   1      -6.017  77.297 116.148  0.00  0.00    -0.276 OA
ATOM     17  H   LIG d   1      -5.591  76.573 119.194  0.00  0.00     0.149 HD
ENDBRANCH   6  13
BRANCH   5  18
ATOM     18  N   LIG d   1      -7.826  79.272 117.914  0.00  0.00     0.381 N 
ATOM     19  H   LIG d   1      -7.645  78.849 117.025  0.00  0.00    -0.090 HD
ATOM     20  H   LIG d   1      -7.006  79.781 118.193  0.00  0.00    -0.090 HD
ATOM     21  H   LIG d   1      -8.602  79.893 117.842  0.00  0.00    -0.090 HD
ENDBRANCH   5  18
BRANCH   3  22
ATOM     22  C   LIG d   1     -11.180  77.295 120.702  0.00  0.00     0.382 C 
ATOM     23  O   LIG d   1     -11.689  78.436 120.815  0.00  0.00    -0.241 OA
ATOM     24  O   LIG d   1     -11.693  76.332 121.304  0.00  0.00    -0.241 OA
ENDBRANCH   3  22
TORSDOF 7
ENDMDL
MODEL 3
REMARK VINA RESULT:      -5.2      1.998      4.992
REMARK  7 active torsions:
REMARK  status: ('A' for Active; 'I' for Inactive)
REMARK    1  A    between atoms: C_2  and  C_3 
REMARK    2  A    between atoms: C_3  and  O_6 
REMARK    3  A    between atoms: C_3  and  C_4 
REMARK    4  A    between atoms: C_7  and  O_6 
REMARK    5  A    between atoms: C_9  and  C_10 
REMARK    6  A    between atoms: N_15  and  C_14 
REMARK    7  A    between atoms: N_20  and  C_19 
REMARK       I    between atoms: C_22  and  N_20 
ROOT
ATOM      1  C   LIG d   1      -8.573  74.834 118.442  0.00  0.00     0.161 C 
ATOM      2  C   LIG d   1      -9.180  73.575 118.586  0.00  0.00     0.016 C 
ATOM      3  C   LIG d   1      -8.512  72.355 118.328  0.00  0.00     0.038 C 
ATOM      4  C   LIG d   1      -7.138  72.306 118.053  0.00  0.00     0.028 C 
ATOM      5  C   LIG d   1      -6.604  73.579 117.404  0.00  0.00    -0.047 C 
ATOM      6  C   LIG d   1      -7.042  74.796 118.250  0.00  0.00     0.091 C 
ENDROOT
BRANCH   1   7
ATOM      7  O   LIG d   1      -8.917  75.673 119.562  0.00  0.00    -0.368 OA
BRANCH   7   8
ATOM      8  C   LIG d   1     -10.206  76.330 119.495  0.00  0.00     0.119 C 
BRANCH   8   9
ATOM      9  C   LIG d   1     -10.217  77.198 118.221  0.00  0.00     0.028 C 
ATOM     10  C   LIG d   1      -9.360  78.466 118.368  0.00  0.00     0.006 C 
ENDBRANCH   8   9
BRANCH   8  11
ATOM     11  C   LIG d   1     -10.393  77.311 120.656  0.00  0.00     0.028 C 
ATOM     12  C   LIG d   1     -11.587  76.950 121.554  0.00  0.00     0.006 C 
ENDBRANCH   8  11
ENDBRANCH   7   8
ENDBRANCH   1   7
BRANCH   6  13
ATOM     13  N   LIG d   1      -6.633  76.088 117.640  0.00  0.00    -0.311 N 
ATOM     14  C   LIG d   1      -5.513  76.730 117.965  0.00  0.00     0.210 C 
ATOM     15  C   LIG d   1      -5.291  78.056 117.231  0.00  0.00     0.109 C 
ATOM     16  O   LIG d   1      -4.665  76.312 118.768  0.00  0.00    -0.276 OA
ATOM     17  H   LIG d   1      -7.248  76.483 116.955  0.00  0.00     0.149 HD
ENDBRANCH   6  13
BRANCH   5  18
ATOM     18  N   LIG d   1      -5.139  73.445 117.299  0.00  0.00     0.381 N 
ATOM     19  H   LIG d   1      -4.884  73.239 116.354  0.00  0.00    -0.090 HD
ATOM     20  H   LIG d   1      -4.840  72.681 117.879  0.00  0.00    -0.090 HD
ATOM     21  H   LIG d   1      -4.697  74.288 117.594  0.00  0.00    -0.090 HD
ENDBRANCH   5  18
BRANCH   3  22
ATOM     22  C   LIG d   1      -9.231  71.170 118.306  0.00  0.00     0.382 C 
ATOM     23  O   LIG d   1      -9.481  70.609 117.212  0.00  0.00    -0.241 OA
ATOM     24  O   LIG d   1      -9.671  70.678 119.362  0.00  0.00    -0.241 OA
ENDBRANCH   3  22
TORSDOF 7
ENDMDL
MODEL 4
REMARK VINA RESULT:      -5.2      1.576      2.374
REMARK  7 active torsions:
REMARK  status: ('A' for Active; 'I' for Inactive)
REMARK    1  A    between atoms: C_2  and  C_3 
REMARK    2  A    between atoms: C_3  and  O_6 
REMARK    3  A    between atoms: C_3  and  C_4 
REMARK    4  A    between atoms: C_7  and  O_6 
REMARK    5  A    between atoms: C_9  and  C_10 
REMARK    6  A    between atoms: N_15  and  C_14 
REMARK    7  A    between atoms: N_20  and  C_19 
REMARK       I    between atoms: C_22  and  N_20 
ROOT
ATOM      1  C   LIG d   1      -8.386  75.532 119.004  0.00  0.00     0.161 C 
ATOM      2  C   LIG d   1      -9.580  75.642 119.735  0.00  0.00     0.016 C 
ATOM      3  C   LIG d   1     -10.162  76.880 120.091  0.00  0.00     0.038 C 
ATOM      4  C   LIG d   1      -9.667  78.100 119.605  0.00  0.00     0.028 C 
ATOM      5  C   LIG d   1      -8.177  78.063 119.283  0.00  0.00    -0.047 C 
ATOM      6  C   LIG d   1      -7.891  76.849 118.370  0.00  0.00     0.091 C 
ENDROOT
BRANCH   1   7
ATOM      7  O   LIG d   1      -8.524  74.511 117.995  0.00  0.00    -0.368 OA
BRANCH   7   8
ATOM      8  C   LIG d   1      -8.196  73.161 118.405  0.00  0.00     0.119 C 
BRANCH   8   9
ATOM      9  C   LIG d   1      -6.820  72.816 117.805  0.00  0.00     0.028 C 
ATOM     10  C   LIG d   1      -6.773  73.026 116.283  0.00  0.00     0.006 C 
ENDBRANCH   8   9
BRANCH   8  11
ATOM     11  C   LIG d   1      -9.169  72.144 117.800  0.00  0.00     0.028 C 
ATOM     12  C   LIG d   1      -9.292  70.864 118.642  0.00  0.00     0.006 C 
ENDBRANCH   8  11
ENDBRANCH   7   8
ENDBRANCH   1   7
BRANCH   6  13
ATOM     13  N   LIG d   1      -6.443  76.690 118.076  0.00  0.00    -0.311 N 
ATOM     14  C   LIG d   1      -5.942  76.682 116.841  0.00  0.00     0.210 C 
ATOM     15  C   LIG d   1      -4.425  76.486 116.760  0.00  0.00     0.109 C 
ATOM     16  O   LIG d   1      -6.606  76.851 115.808  0.00  0.00    -0.276 OA
ATOM     17  H   LIG d   1      -5.828  76.578 118.858  0.00  0.00     0.149 HD
ENDBRANCH   6  13
BRANCH   5  18
ATOM     18  N   LIG d   1      -7.824  79.352 118.659  0.00  0.00     0.381 N 
ATOM     19  H   LIG d   1      -6.829  79.457 118.638  0.00  0.00    -0.090 HD
ATOM     20  H   LIG d   1      -8.209  80.097 119.212  0.00  0.00    -0.090 HD
ATOM     21  H   LIG d   1      -8.189  79.393 117.732  0.00  0.00    -0.090 HD
ENDBRANCH   5  18
BRANCH   3  22
ATOM     22  C   LIG d   1     -11.231  76.909 120.974  0.00  0.00     0.382 C 
ATOM     23  O   LIG d   1     -11.904  77.958 121.110  0.00  0.00    -0.241 OA
ATOM     24  O   LIG d   1     -11.502  75.911 121.669  0.00  0.00    -0.241 OA
ENDBRANCH   3  22
TORSDOF 7
ENDMDL
MODEL 5
REMARK VINA RESULT:      -5.1     15.923     17.939
REMARK  7 active torsions:
REMARK  status: ('A' for Active; 'I' for Inactive)
REMARK    1  A    between atoms: C_2  and  C_3 
REMARK    2  A    between atoms: C_3  and  O_6 
REMARK    3  A    between atoms: C_3  and  C_4 
REMARK    4  A    between atoms: C_7  and  O_6 
REMARK    5  A    between atoms: C_9  and  C_10 
REMARK    6  A    between atoms: N_15  and  C_14 
REMARK    7  A    between atoms: N_20  and  C_19 
REMARK       I    between atoms: C_22  and  N_20 
ROOT
ATOM      1  C   LIG d   1      -4.392  92.731 118.808  0.00  0.00     0.161 C 
ATOM      2  C   LIG d   1      -5.563  93.495 118.947  0.00  0.00     0.016 C 
ATOM      3  C   LIG d   1      -6.697  93.339 118.118  0.00  0.00     0.038 C 
ATOM      4  C   LIG d   1      -6.794  92.297 117.183  0.00  0.00     0.028 C 
ATOM      5  C   LIG d   1      -5.442  91.822 116.663  0.00  0.00    -0.047 C 
ATOM      6  C   LIG d   1      -4.521  91.515 117.867  0.00  0.00     0.091 C 
ENDROOT
BRANCH   1   7
ATOM      7  O   LIG d   1      -3.925  92.312 120.106  0.00  0.00    -0.368 OA
BRANCH   7   8
ATOM      8  C   LIG d   1      -2.705  92.936 120.576  0.00  0.00     0.119 C 
BRANCH   8   9
ATOM      9  C   LIG d   1      -2.137  93.774 119.415  0.00  0.00     0.028 C 
ATOM     10  C   LIG d   1      -0.723  93.327 119.006  0.00  0.00     0.006 C 
ENDBRANCH   8   9
BRANCH   8  11
ATOM     11  C   LIG d   1      -1.629  91.892 120.887  0.00  0.00     0.028 C 
ATOM     12  C   LIG d   1      -2.216  90.564 121.393  0.00  0.00     0.006 C 
ENDBRANCH   8  11
ENDBRANCH   7   8
ENDBRANCH   1   7
BRANCH   6  13
ATOM     13  N   LIG d   1      -3.150  91.124 117.447  0.00  0.00    -0.311 N 
ATOM     14  C   LIG d   1      -2.609  89.939 117.724  0.00  0.00     0.210 C 
ATOM     15  C   LIG d   1      -1.176  89.748 117.215  0.00  0.00     0.109 C 
ATOM     16  O   LIG d   1      -3.190  89.016 118.314  0.00  0.00    -0.276 OA
ATOM     17  H   LIG d   1      -2.619  91.802 116.936  0.00  0.00     0.149 HD
ENDBRANCH   6  13
BRANCH   5  18
ATOM     18  N   LIG d   1      -5.682  90.646 115.805  0.00  0.00     0.381 N 
ATOM     19  H   LIG d   1      -5.238  89.842 116.201  0.00  0.00    -0.090 HD
ATOM     20  H   LIG d   1      -5.279  90.816 114.901  0.00  0.00    -0.090 HD
ATOM     21  H   LIG d   1      -6.661  90.484 115.715  0.00  0.00    -0.090 HD
ENDBRANCH   5  18
BRANCH   3  22
ATOM     22  C   LIG d   1      -7.734  94.256 118.192  0.00  0.00     0.382 C 
ATOM     23  O   LIG d   1      -8.925  93.859 118.173  0.00  0.00    -0.241 OA
ATOM     24  O   LIG d   1      -7.496  95.478 118.233  0.00  0.00    -0.241 OA
ENDBRANCH   3  22
TORSDOF 7
ENDMDL
MODEL 6
REMARK VINA RESULT:      -5.0     16.375     18.881
REMARK  7 active torsions:
REMARK  status: ('A' for Active; 'I' for Inactive)
REMARK    1  A    between atoms: C_2  and  C_3 
REMARK    2  A    between atoms: C_3  and  O_6 
REMARK    3  A    between atoms: C_3  and  C_4 
REMARK    4  A    between atoms: C_7  and  O_6 
REMARK    5  A    between atoms: C_9  and  C_10 
REMARK    6  A    between atoms: N_15  and  C_14 
REMARK    7  A    between atoms: N_20  and  C_19 
REMARK       I    between atoms: C_22  and  N_20 
ROOT
ATOM      1  C   LIG d   1      -4.720  92.759 119.035  0.00  0.00     0.161 C 
ATOM      2  C   LIG d   1      -4.852  91.760 118.056  0.00  0.00     0.016 C 
ATOM      3  C   LIG d   1      -5.925  91.709 117.137  0.00  0.00     0.038 C 
ATOM      4  C   LIG d   1      -6.865  92.745 117.036  0.00  0.00     0.028 C 
ATOM      5  C   LIG d   1      -7.058  93.517 118.337  0.00  0.00    -0.047 C 
ATOM      6  C   LIG d   1      -5.676  93.959 118.868  0.00  0.00     0.091 C 
ENDROOT
BRANCH   1   7
ATOM      7  O   LIG d   1      -3.353  93.212 119.090  0.00  0.00    -0.368 OA
BRANCH   7   8
ATOM      8  C   LIG d   1      -2.341  92.226 118.767  0.00  0.00     0.119 C 
BRANCH   8   9
ATOM      9  C   LIG d   1      -1.794  91.672 120.097  0.00  0.00     0.028 C 
ATOM     10  C   LIG d   1      -2.203  90.209 120.336  0.00  0.00     0.006 C 
ENDBRANCH   8   9
BRANCH   8  11
ATOM     11  C   LIG d   1      -1.139  92.868 118.070  0.00  0.00     0.028 C 
ATOM     12  C   LIG d   1      -1.428  94.295 117.577  0.00  0.00     0.006 C 
ENDBRANCH   8  11
ENDBRANCH   7   8
ENDBRANCH   1   7
BRANCH   6  13
ATOM     13  N   LIG d   1      -5.767  94.648 120.181  0.00  0.00    -0.311 N 
ATOM     14  C   LIG d   1      -5.839  95.972 120.312  0.00  0.00     0.210 C 
ATOM     15  C   LIG d   1      -5.906  96.477 121.756  0.00  0.00     0.109 C 
ATOM     16  O   LIG d   1      -5.886  96.774 119.367  0.00  0.00    -0.276 OA
ATOM     17  H   LIG d   1      -5.766  94.072 121.000  0.00  0.00     0.149 HD
ENDBRANCH   6  13
BRANCH   5  18
ATOM     18  N   LIG d   1      -7.959  94.650 118.053  0.00  0.00     0.381 N 
ATOM     19  H   LIG d   1      -7.638  95.466 118.535  0.00  0.00    -0.090 HD
ATOM     20  H   LIG d   1      -8.879  94.427 118.390  0.00  0.00    -0.090 HD
ATOM     21  H   LIG d   1      -7.989  94.825 117.073  0.00  0.00    -0.090 HD
ENDBRANCH   5  18
BRANCH   3  22
ATOM     22  C   LIG d   1      -6.088  90.591 116.333  0.00  0.00     0.382 C 
ATOM     23  O   LIG d   1      -7.237  90.133 116.122  0.00  0.00    -0.241 OA
ATOM     24  O   LIG d   1      -5.097  90.008 115.853  0.00  0.00    -0.241 OA
ENDBRANCH   3  22
TORSDOF 7
ENDMDL
MODEL 7
REMARK VINA RESULT:      -4.9      2.493      5.213
REMARK  7 active torsions:
REMARK  status: ('A' for Active; 'I' for Inactive)
REMARK    1  A    between atoms: C_2  and  C_3 
REMARK    2  A    between atoms: C_3  and  O_6 
REMARK    3  A    between atoms: C_3  and  C_4 
REMARK    4  A    between atoms: C_7  and  O_6 
REMARK    5  A    between atoms: C_9  and  C_10 
REMARK    6  A    between atoms: N_15  and  C_14 
REMARK    7  A    between atoms: N_20  and  C_19 
REMARK       I    between atoms: C_22  and  N_20 
ROOT
ATOM      1  C   LIG d   1      -5.853  74.668 117.571  0.00  0.00     0.161 C 
ATOM      2  C   LIG d   1      -6.075  73.333 117.194  0.00  0.00     0.016 C 
ATOM      3  C   LIG d   1      -7.359  72.801 116.935  0.00  0.00     0.038 C 
ATOM      4  C   LIG d   1      -8.502  73.614 116.887  0.00  0.00     0.028 C 
ATOM      5  C   LIG d   1      -8.394  74.863 117.755  0.00  0.00    -0.047 C 
ATOM      6  C   LIG d   1      -7.075  75.596 117.416  0.00  0.00     0.091 C 
ENDROOT
BRANCH   1   7
ATOM      7  O   LIG d   1      -4.726  75.199 116.846  0.00  0.00    -0.368 OA
BRANCH   7   8
ATOM      8  C   LIG d   1      -3.428  75.023 117.466  0.00  0.00     0.119 C 
BRANCH   8   9
ATOM      9  C   LIG d   1      -2.888  76.424 117.812  0.00  0.00     0.028 C 
ATOM     10  C   LIG d   1      -3.101  76.787 119.292  0.00  0.00     0.006 C 
ENDBRANCH   8   9
BRANCH   8  11
ATOM     11  C   LIG d   1      -2.416  74.429 116.483  0.00  0.00     0.028 C 
ATOM     12  C   LIG d   1      -1.316  73.613 117.180  0.00  0.00     0.006 C 
ENDBRANCH   8  11
ENDBRANCH   7   8
ENDBRANCH   1   7
BRANCH   6  13
ATOM     13  N   LIG d   1      -6.850  76.785 118.279  0.00  0.00    -0.311 N 
ATOM     14  C   LIG d   1      -6.399  77.950 117.819  0.00  0.00     0.210 C 
ATOM     15  C   LIG d   1      -6.218  79.039 118.881  0.00  0.00     0.109 C 
ATOM     16  O   LIG d   1      -6.162  78.195 116.626  0.00  0.00    -0.276 OA
ATOM     17  H   LIG d   1      -7.047  76.683 119.256  0.00  0.00     0.149 HD
ENDBRANCH   6  13
BRANCH   5  18
ATOM     18  N   LIG d   1      -9.593  75.685 117.505  0.00  0.00     0.381 N 
ATOM     19  H   LIG d   1      -9.433  76.287 116.722  0.00  0.00    -0.090 HD
ATOM     20  H   LIG d   1      -9.769  76.257 118.312  0.00  0.00    -0.090 HD
ATOM     21  H   LIG d   1     -10.378  75.098 117.327  0.00  0.00    -0.090 HD
ENDBRANCH   5  18
BRANCH   3  22
ATOM     22  C   LIG d   1      -7.515  71.435 116.758  0.00  0.00     0.382 C 
ATOM     23  O   LIG d   1      -6.698  70.797 116.050  0.00  0.00    -0.241 OA
ATOM     24  O   LIG d   1      -8.486  70.839 117.262  0.00  0.00    -0.241 OA
ENDBRANCH   3  22
TORSDOF 7
ENDMDL
MODEL 8
REMARK VINA RESULT:      -4.9      1.667      2.315
REMARK  7 active torsions:
REMARK  status: ('A' for Active; 'I' for Inactive)
REMARK    1  A    between atoms: C_2  and  C_3 
REMARK    2  A    between atoms: C_3  and  O_6 
REMARK    3  A    between atoms: C_3  and  C_4 
REMARK    4  A    between atoms: C_7  and  O_6 
REMARK    5  A    between atoms: C_9  and  C_10 
REMARK    6  A    between atoms: N_15  and  C_14 
REMARK    7  A    between atoms: N_20  and  C_19 
REMARK       I    between atoms: C_22  and  N_20 
ROOT
ATOM      1  C   LIG d   1      -7.581  76.227 117.637  0.00  0.00     0.161 C 
ATOM      2  C   LIG d   1      -8.829  76.697 118.078  0.00  0.00     0.016 C 
ATOM      3  C   LIG d   1      -9.118  78.067 118.276  0.00  0.00     0.038 C 
ATOM      4  C   LIG d   1      -8.220  79.077 117.900  0.00  0.00     0.028 C 
ATOM      5  C   LIG d   1      -6.762  78.630 117.924  0.00  0.00    -0.047 C 
ATOM      6  C   LIG d   1      -6.625  77.320 117.115  0.00  0.00     0.091 C 
ENDROOT
BRANCH   1   7
ATOM      7  O   LIG d   1      -7.769  75.207 116.636  0.00  0.00    -0.368 OA
BRANCH   7   8
ATOM      8  C   LIG d   1      -7.631  73.837 117.088  0.00  0.00     0.119 C 
BRANCH   8   9
ATOM      9  C   LIG d   1      -6.869  73.063 115.994  0.00  0.00     0.028 C 
ATOM     10  C   LIG d   1      -6.847  71.548 116.255  0.00  0.00     0.006 C 
ENDBRANCH   8   9
BRANCH   8  11
ATOM     11  C   LIG d   1      -8.994  73.147 117.198  0.00  0.00     0.028 C 
ATOM     12  C   LIG d   1      -9.352  72.763 118.643  0.00  0.00     0.006 C 
ENDBRANCH   8  11
ENDBRANCH   7   8
ENDBRANCH   1   7
BRANCH   6  13
ATOM     13  N   LIG d   1      -5.245  76.769 117.158  0.00  0.00    -0.311 N 
ATOM     14  C   LIG d   1      -4.617  76.452 118.289  0.00  0.00     0.210 C 
ATOM     15  C   LIG d   1      -3.193  75.918 118.110  0.00  0.00     0.109 C 
ATOM     16  O   LIG d   1      -5.117  76.532 119.421  0.00  0.00    -0.276 OA
ATOM     17  H   LIG d   1      -4.778  76.642 116.282  0.00  0.00     0.149 HD
ENDBRANCH   6  13
BRANCH   5  18
ATOM     18  N   LIG d   1      -5.949  79.733 117.379  0.00  0.00     0.381 N 
ATOM     19  H   LIG d   1      -5.010  79.662 117.718  0.00  0.00    -0.090 HD
ATOM     20  H   LIG d   1      -6.332  80.607 117.695  0.00  0.00    -0.090 HD
ATOM     21  H   LIG d   1      -5.953  79.701 116.383  0.00  0.00    -0.090 HD
ENDBRANCH   5  18
BRANCH   3  22
ATOM     22  C   LIG d   1     -10.303  78.437 118.894  0.00  0.00     0.382 C 
ATOM     23  O   LIG d   1     -10.527  79.645 119.148  0.00  0.00    -0.241 OA
ATOM     24  O   LIG d   1     -11.131  77.573 119.241  0.00  0.00    -0.241 OA
ENDBRANCH   3  22
TORSDOF 7
ENDMDL
MODEL 9
REMARK VINA RESULT:      -4.9     14.806     16.830
REMARK  7 active torsions:
REMARK  status: ('A' for Active; 'I' for Inactive)
REMARK    1  A    between atoms: C_2  and  C_3 
REMARK    2  A    between atoms: C_3  and  O_6 
REMARK    3  A    between atoms: C_3  and  C_4 
REMARK    4  A    between atoms: C_7  and  O_6 
REMARK    5  A    between atoms: C_9  and  C_10 
REMARK    6  A    between atoms: N_15  and  C_14 
REMARK    7  A    between atoms: N_20  and  C_19 
REMARK       I    between atoms: C_22  and  N_20 
ROOT
ATOM      1  C   LIG d   1      -3.051  90.459 117.888  0.00  0.00     0.161 C 
ATOM      2  C   LIG d   1      -4.189  90.264 117.089  0.00  0.00     0.016 C 
ATOM      3  C   LIG d   1      -5.157  91.268 116.855  0.00  0.00     0.038 C 
ATOM      4  C   LIG d   1      -4.973  92.591 117.286  0.00  0.00     0.028 C 
ATOM      5  C   LIG d   1      -4.087  92.707 118.522  0.00  0.00    -0.047 C 
ATOM      6  C   LIG d   1      -2.776  91.927 118.275  0.00  0.00     0.091 C 
ENDROOT
BRANCH   1   7
ATOM      7  O   LIG d   1      -1.897  89.887 117.242  0.00  0.00    -0.368 OA
BRANCH   7   8
ATOM      8  C   LIG d   1      -1.566  88.527 117.616  0.00  0.00     0.119 C 
BRANCH   8   9
ATOM      9  C   LIG d   1      -1.742  88.411 119.143  0.00  0.00     0.028 C 
ATOM     10  C   LIG d   1      -1.682  86.954 119.632  0.00  0.00     0.006 C 
ENDBRANCH   8   9
BRANCH   8  11
ATOM     11  C   LIG d   1      -0.088  88.220 117.354  0.00  0.00     0.028 C 
ATOM     12  C   LIG d   1       0.768  89.489 117.216  0.00  0.00     0.006 C 
ENDBRANCH   8  11
ENDBRANCH   7   8
ENDBRANCH   1   7
BRANCH   6  13
ATOM     13  N   LIG d   1      -1.888  91.920 119.467  0.00  0.00    -0.311 N 
ATOM     14  C   LIG d   1      -0.642  92.392 119.456  0.00  0.00     0.210 C 
ATOM     15  C   LIG d   1       0.107  92.270 120.787  0.00  0.00     0.109 C 
ATOM     16  O   LIG d   1      -0.098  92.930 118.480  0.00  0.00    -0.276 OA
ATOM     17  H   LIG d   1      -2.260  91.529 120.310  0.00  0.00     0.149 HD
ENDBRANCH   6  13
BRANCH   5  18
ATOM     18  N   LIG d   1      -3.867  94.143 118.779  0.00  0.00     0.381 N 
ATOM     19  H   LIG d   1      -3.522  94.272 119.709  0.00  0.00    -0.090 HD
ATOM     20  H   LIG d   1      -4.744  94.626 118.698  0.00  0.00    -0.090 HD
ATOM     21  H   LIG d   1      -3.215  94.511 118.121  0.00  0.00    -0.090 HD
ENDBRANCH   5  18
BRANCH   3  22
ATOM     22  C   LIG d   1      -6.345  90.943 116.218  0.00  0.00     0.382 C 
ATOM     23  O   LIG d   1      -7.237  91.813 116.072  0.00  0.00    -0.241 OA
ATOM     24  O   LIG d   1      -6.553  89.779 115.826  0.00  0.00    -0.241 OA
ENDBRANCH   3  22
TORSDOF 7
ENDMDL
