MODEL 1
REMARK VINA RESULT:      -5.2      0.000      0.000
REMARK  7 active torsions:
REMARK  status: ('A' for Active; 'I' for Inactive)
REMARK    1  A    between atoms: C_2  and  C_3 
REMARK    2  A    between atoms: C_3  and  O_6 
REMARK    3  A    between atoms: C_3  and  C_4 
REMARK    4  A    between atoms: C_7  and  O_6 
REMARK    5  A    between atoms: C_9  and  C_10 
REMARK    6  A    between atoms: N_15  and  C_14 
REMARK    7  A    between atoms: N_20  and  C_19 
REMARK       I    between atoms: C_22  and  N_20 
ROOT
ATOM      1  C   LIG d   1      -6.928  79.810 118.583  0.00  0.00     0.161 C 
ATOM      2  C   LIG d   1      -5.772  79.452 117.870  0.00  0.00     0.016 C 
ATOM      3  C   LIG d   1      -5.511  78.137 117.421  0.00  0.00     0.038 C 
ATOM      4  C   LIG d   1      -6.466  77.115 117.524  0.00  0.00     0.028 C 
ATOM      5  C   LIG d   1      -7.437  77.308 118.684  0.00  0.00    -0.047 C 
ATOM      6  C   LIG d   1      -8.032  78.733 118.608  0.00  0.00     0.091 C 
ENDROOT
BRANCH   1   7
ATOM      7  O   LIG d   1      -7.451  81.052 118.073  0.00  0.00    -0.368 OA
BRANCH   7   8
ATOM      8  C   LIG d   1      -7.438  82.174 118.991  0.00  0.00     0.119 C 
BRANCH   8   9
ATOM      9  C   LIG d   1      -6.770  81.697 120.295  0.00  0.00     0.028 C 
ATOM     10  C   LIG d   1      -6.101  82.848 121.066  0.00  0.00     0.006 C 
ENDBRANCH   8   9
BRANCH   8  11
ATOM     11  C   LIG d   1      -8.859  82.584 119.389  0.00  0.00     0.028 C 
ATOM     12  C   LIG d   1      -9.891  82.309 118.284  0.00  0.00     0.006 C 
ENDBRANCH   8  11
ENDBRANCH   7   8
ENDBRANCH   1   7
BRANCH   6  13
ATOM     13  N   LIG d   1      -8.929  79.034 119.754  0.00  0.00    -0.311 N 
ATOM     14  C   LIG d   1     -10.241  78.804 119.738  0.00  0.00     0.210 C 
ATOM     15  C   LIG d   1     -10.983  79.206 121.017  0.00  0.00     0.109 C 
ATOM     16  O   LIG d   1     -10.855  78.275 118.800  0.00  0.00    -0.276 OA
ATOM     17  H   LIG d   1      -8.509  79.436 120.569  0.00  0.00     0.149 HD
ENDBRANCH   6  13
BRANCH   5  18
ATOM     18  N   LIG d   1      -8.459  76.249 118.590  0.00  0.00     0.381 N 
ATOM     19  H   LIG d   1      -9.259  76.592 118.096  0.00  0.00    -0.090 HD
ATOM     20  H   LIG d   1      -8.748  75.993 119.518  0.00  0.00    -0.090 HD
ATOM     21  H   LIG d   1      -8.085  75.454 118.120  0.00  0.00    -0.090 HD
ENDBRANCH   5  18
BRANCH   3  22
ATOM     22  C   LIG d   1      -4.265  77.824 116.897  0.00  0.00     0.382 C 
ATOM     23  O   LIG d   1      -3.496  77.056 117.524  0.00  0.00    -0.241 OA
ATOM     24  O   LIG d   1      -3.884  78.336 115.828  0.00  0.00    -0.241 OA
ENDBRANCH   3  22
TORSDOF 7
ENDMDL
MODEL 2
REMARK VINA RESULT:      -4.9     11.711     14.313
REMARK  7 active torsions:
REMARK  status: ('A' for Active; 'I' for Inactive)
REMARK    1  A    between atoms: C_2  and  C_3 
REMARK    2  A    between atoms: C_3  and  O_6 
REMARK    3  A    between atoms: C_3  and  C_4 
REMARK    4  A    between atoms: C_7  and  O_6 
REMARK    5  A    between atoms: C_9  and  C_10 
REMARK    6  A    between atoms: N_15  and  C_14 
REMARK    7  A    between atoms: N_20  and  C_19 
REMARK       I    between atoms: C_22  and  N_20 
ROOT
ATOM      1  C   LIG d   1      -5.525  93.194 118.062  0.00  0.00     0.161 C 
ATOM      2  C   LIG d   1      -6.242  92.099 117.551  0.00  0.00     0.016 C 
ATOM      3  C   LIG d   1      -5.713  90.790 117.476  0.00  0.00     0.038 C 
ATOM      4  C   LIG d   1      -4.477  90.455 118.050  0.00  0.00     0.028 C 
ATOM      5  C   LIG d   1      -3.507  91.629 118.124  0.00  0.00    -0.047 C 
ATOM      6  C   LIG d   1      -4.218  92.827 118.794  0.00  0.00     0.091 C 
ENDROOT
BRANCH   1   7
ATOM      7  O   LIG d   1      -6.377  93.978 118.920  0.00  0.00    -0.368 OA
BRANCH   7   8
ATOM      8  C   LIG d   1      -6.809  95.257 118.394  0.00  0.00     0.119 C 
BRANCH   8   9
ATOM      9  C   LIG d   1      -6.057  96.355 119.170  0.00  0.00     0.028 C 
ATOM     10  C   LIG d   1      -5.856  95.994 120.652  0.00  0.00     0.006 C 
ENDBRANCH   8   9
BRANCH   8  11
ATOM     11  C   LIG d   1      -8.294  95.504 118.678  0.00  0.00     0.028 C 
ATOM     12  C   LIG d   1      -8.924  94.406 119.549  0.00  0.00     0.006 C 
ENDBRANCH   8  11
ENDBRANCH   7   8
ENDBRANCH   1   7
BRANCH   6  13
ATOM     13  N   LIG d   1      -3.366  94.044 118.831  0.00  0.00    -0.311 N 
ATOM     14  C   LIG d   1      -2.615  94.382 119.878  0.00  0.00     0.210 C 
ATOM     15  C   LIG d   1      -1.829  95.686 119.716  0.00  0.00     0.109 C 
ATOM     16  O   LIG d   1      -2.501  93.709 120.913  0.00  0.00    -0.276 OA
ATOM     17  H   LIG d   1      -3.374  94.631 118.020  0.00  0.00     0.149 HD
ENDBRANCH   6  13
BRANCH   5  18
ATOM     18  N   LIG d   1      -2.315  91.175 118.867  0.00  0.00     0.381 N 
ATOM     19  H   LIG d   1      -2.596  90.622 119.652  0.00  0.00    -0.090 HD
ATOM     20  H   LIG d   1      -1.819  91.980 119.208  0.00  0.00    -0.090 HD
ATOM     21  H   LIG d   1      -1.724  90.641 118.269  0.00  0.00    -0.090 HD
ENDBRANCH   5  18
BRANCH   3  22
ATOM     22  C   LIG d   1      -6.406  89.808 116.785  0.00  0.00     0.382 C 
ATOM     23  O   LIG d   1      -5.794  89.041 116.003  0.00  0.00    -0.241 OA
ATOM     24  O   LIG d   1      -7.642  89.707 116.900  0.00  0.00    -0.241 OA
ENDBRANCH   3  22
TORSDOF 7
ENDMDL
MODEL 3
REMARK VINA RESULT:      -4.8     10.479     13.307
REMARK  7 active torsions:
REMARK  status: ('A' for Active; 'I' for Inactive)
REMARK    1  A    between atoms: C_2  and  C_3 
REMARK    2  A    between atoms: C_3  and  O_6 
REMARK    3  A    between atoms: C_3  and  C_4 
REMARK    4  A    between atoms: C_7  and  O_6 
REMARK    5  A    between atoms: C_9  and  C_10 
REMARK    6  A    between atoms: N_15  and  C_14 
REMARK    7  A    between atoms: N_20  and  C_19 
REMARK       I    between atoms: C_22  and  N_20 
ROOT
ATOM      1  C   LIG d   1      -2.704  90.039 117.983  0.00  0.00     0.161 C 
ATOM      2  C   LIG d   1      -3.910  89.770 117.314  0.00  0.00     0.016 C 
ATOM      3  C   LIG d   1      -4.880  90.759 117.031  0.00  0.00     0.038 C 
ATOM      4  C   LIG d   1      -4.641  92.121 117.267  0.00  0.00     0.028 C 
ATOM      5  C   LIG d   1      -3.651  92.375 118.399  0.00  0.00    -0.047 C 
ATOM      6  C   LIG d   1      -2.377  91.538 118.149  0.00  0.00     0.091 C 
ENDROOT
BRANCH   1   7
ATOM      7  O   LIG d   1      -1.617  89.359 117.325  0.00  0.00    -0.368 OA
BRANCH   7   8
ATOM      8  C   LIG d   1      -1.556  87.924 117.514  0.00  0.00     0.119 C 
BRANCH   8   9
ATOM      9  C   LIG d   1      -1.279  87.665 119.008  0.00  0.00     0.028 C 
ATOM     10  C   LIG d   1      -2.466  86.991 119.717  0.00  0.00     0.006 C 
ENDBRANCH   8   9
BRANCH   8  11
ATOM     11  C   LIG d   1      -0.364  87.314 116.770  0.00  0.00     0.028 C 
ATOM     12  C   LIG d   1       0.547  86.481 117.686  0.00  0.00     0.006 C 
ENDBRANCH   8  11
ENDBRANCH   7   8
ENDBRANCH   1   7
BRANCH   6  13
ATOM     13  N   LIG d   1      -1.390  91.663 119.254  0.00  0.00    -0.311 N 
ATOM     14  C   LIG d   1      -0.373  92.522 119.234  0.00  0.00     0.210 C 
ATOM     15  C   LIG d   1       0.537  92.474 120.466  0.00  0.00     0.109 C 
ATOM     16  O   LIG d   1      -0.156  93.341 118.329  0.00  0.00    -0.276 OA
ATOM     17  H   LIG d   1      -1.510  91.057 120.043  0.00  0.00     0.149 HD
ENDBRANCH   6  13
BRANCH   5  18
ATOM     18  N   LIG d   1      -3.390  93.826 118.446  0.00  0.00     0.381 N 
ATOM     19  H   LIG d   1      -3.656  94.246 117.577  0.00  0.00    -0.090 HD
ATOM     20  H   LIG d   1      -2.405  93.975 118.580  0.00  0.00    -0.090 HD
ATOM     21  H   LIG d   1      -3.901  94.241 119.194  0.00  0.00    -0.090 HD
ENDBRANCH   5  18
BRANCH   3  22
ATOM     22  C   LIG d   1      -6.122  90.383 116.543  0.00  0.00     0.382 C 
ATOM     23  O   LIG d   1      -6.460  89.175 116.553  0.00  0.00    -0.241 OA
ATOM     24  O   LIG d   1      -6.891  91.232 116.052  0.00  0.00    -0.241 OA
ENDBRANCH   3  22
TORSDOF 7
ENDMDL
MODEL 4
REMARK VINA RESULT:      -4.8     11.418     13.907
REMARK  7 active torsions:
REMARK  status: ('A' for Active; 'I' for Inactive)
REMARK    1  A    between atoms: C_2  and  C_3 
REMARK    2  A    between atoms: C_3  and  O_6 
REMARK    3  A    between atoms: C_3  and  C_4 
REMARK    4  A    between atoms: C_7  and  O_6 
REMARK    5  A    between atoms: C_9  and  C_10 
REMARK    6  A    between atoms: N_15  and  C_14 
REMARK    7  A    between atoms: N_20  and  C_19 
REMARK       I    between atoms: C_22  and  N_20 
ROOT
ATOM      1  C   LIG d   1      -3.917  91.103 119.269  0.00  0.00     0.161 C 
ATOM      2  C   LIG d   1      -4.566  90.249 118.362  0.00  0.00     0.016 C 
ATOM      3  C   LIG d   1      -5.565  90.685 117.461  0.00  0.00     0.038 C 
ATOM      4  C   LIG d   1      -5.877  92.043 117.300  0.00  0.00     0.028 C 
ATOM      5  C   LIG d   1      -5.608  92.878 118.548  0.00  0.00    -0.047 C 
ATOM      6  C   LIG d   1      -4.164  92.608 119.031  0.00  0.00     0.091 C 
ENDROOT
BRANCH   1   7
ATOM      7  O   LIG d   1      -2.503  90.824 119.276  0.00  0.00    -0.368 OA
BRANCH   7   8
ATOM      8  C   LIG d   1      -1.747  91.325 118.146  0.00  0.00     0.119 C 
BRANCH   8   9
ATOM      9  C   LIG d   1      -1.111  90.113 117.440  0.00  0.00     0.028 C 
ATOM     10  C   LIG d   1       0.290  90.425 116.886  0.00  0.00     0.006 C 
ENDBRANCH   8   9
BRANCH   8  11
ATOM     11  C   LIG d   1      -0.571  92.192 118.603  0.00  0.00     0.028 C 
ATOM     12  C   LIG d   1      -0.344  92.137 120.122  0.00  0.00     0.006 C 
ENDBRANCH   8  11
ENDBRANCH   7   8
ENDBRANCH   1   7
BRANCH   6  13
ATOM     13  N   LIG d   1      -3.847  93.321 120.295  0.00  0.00    -0.311 N 
ATOM     14  C   LIG d   1      -3.221  94.496 120.337  0.00  0.00     0.210 C 
ATOM     15  C   LIG d   1      -2.974  95.048 121.745  0.00  0.00     0.109 C 
ATOM     16  O   LIG d   1      -2.876  95.149 119.341  0.00  0.00    -0.276 OA
ATOM     17  H   LIG d   1      -4.119  92.877 121.150  0.00  0.00     0.149 HD
ENDBRANCH   6  13
BRANCH   5  18
ATOM     18  N   LIG d   1      -5.845  94.291 118.198  0.00  0.00     0.381 N 
ATOM     19  H   LIG d   1      -6.224  94.353 117.274  0.00  0.00    -0.090 HD
ATOM     20  H   LIG d   1      -4.968  94.781 118.212  0.00  0.00    -0.090 HD
ATOM     21  H   LIG d   1      -6.474  94.704 118.851  0.00  0.00    -0.090 HD
ENDBRANCH   5  18
BRANCH   3  22
ATOM     22  C   LIG d   1      -6.292  89.752 116.737  0.00  0.00     0.382 C 
ATOM     23  O   LIG d   1      -7.517  89.603 116.960  0.00  0.00    -0.241 OA
ATOM     24  O   LIG d   1      -5.728  89.027 115.895  0.00  0.00    -0.241 OA
ENDBRANCH   3  22
TORSDOF 7
ENDMDL
MODEL 5
REMARK VINA RESULT:      -4.8      3.498      6.268
REMARK  7 active torsions:
REMARK  status: ('A' for Active; 'I' for Inactive)
REMARK    1  A    between atoms: C_2  and  C_3 
REMARK    2  A    between atoms: C_3  and  O_6 
REMARK    3  A    between atoms: C_3  and  C_4 
REMARK    4  A    between atoms: C_7  and  O_6 
REMARK    5  A    between atoms: C_9  and  C_10 
REMARK    6  A    between atoms: N_15  and  C_14 
REMARK    7  A    between atoms: N_20  and  C_19 
REMARK       I    between atoms: C_22  and  N_20 
ROOT
ATOM      1  C   LIG d   1      -9.713  80.825 120.951  0.00  0.00     0.161 C 
ATOM      2  C   LIG d   1      -9.983  82.070 121.543  0.00  0.00     0.016 C 
ATOM      3  C   LIG d   1     -10.103  83.271 120.808  0.00  0.00     0.038 C 
ATOM      4  C   LIG d   1     -10.109  83.285 119.405  0.00  0.00     0.028 C 
ATOM      5  C   LIG d   1      -9.336  82.126 118.785  0.00  0.00    -0.047 C 
ATOM      6  C   LIG d   1      -9.827  80.802 119.412  0.00  0.00     0.091 C 
ENDROOT
BRANCH   1   7
ATOM      7  O   LIG d   1     -10.560  79.813 121.531  0.00  0.00    -0.368 OA
BRANCH   7   8
ATOM      8  C   LIG d   1      -9.926  78.915 122.475  0.00  0.00     0.119 C 
BRANCH   8   9
ATOM      9  C   LIG d   1      -8.406  79.157 122.394  0.00  0.00     0.028 C 
ATOM     10  C   LIG d   1      -7.639  77.916 121.907  0.00  0.00     0.006 C 
ENDBRANCH   8   9
BRANCH   8  11
ATOM     11  C   LIG d   1     -10.125  77.451 122.071  0.00  0.00     0.028 C 
ATOM     12  C   LIG d   1     -11.593  77.004 122.158  0.00  0.00     0.006 C 
ENDBRANCH   8  11
ENDBRANCH   7   8
ENDBRANCH   1   7
BRANCH   6  13
ATOM     13  N   LIG d   1      -9.064  79.625 118.922  0.00  0.00    -0.311 N 
ATOM     14  C   LIG d   1      -9.630  78.458 118.619  0.00  0.00     0.210 C 
ATOM     15  C   LIG d   1      -8.659  77.370 118.150  0.00  0.00     0.109 C 
ATOM     16  O   LIG d   1     -10.849  78.231 118.662  0.00  0.00    -0.276 OA
ATOM     17  H   LIG d   1      -8.073  79.731 118.827  0.00  0.00     0.149 HD
ENDBRANCH   6  13
BRANCH   5  18
ATOM     18  N   LIG d   1      -9.541  82.185 117.325  0.00  0.00     0.381 N 
ATOM     19  H   LIG d   1      -8.956  81.511 116.873  0.00  0.00    -0.090 HD
ATOM     20  H   LIG d   1      -9.280  83.098 116.997  0.00  0.00    -0.090 HD
ATOM     21  H   LIG d   1     -10.496  82.006 117.107  0.00  0.00    -0.090 HD
ENDBRANCH   5  18
BRANCH   3  22
ATOM     22  C   LIG d   1     -10.177  84.483 121.479  0.00  0.00     0.382 C 
ATOM     23  O   LIG d   1     -11.158  85.243 121.293  0.00  0.00    -0.241 OA
ATOM     24  O   LIG d   1      -9.255  84.845 122.233  0.00  0.00    -0.241 OA
ENDBRANCH   3  22
TORSDOF 7
ENDMDL
MODEL 6
REMARK VINA RESULT:      -4.7      3.097      4.917
REMARK  7 active torsions:
REMARK  status: ('A' for Active; 'I' for Inactive)
REMARK    1  A    between atoms: C_2  and  C_3 
REMARK    2  A    between atoms: C_3  and  O_6 
REMARK    3  A    between atoms: C_3  and  C_4 
REMARK    4  A    between atoms: C_7  and  O_6 
REMARK    5  A    between atoms: C_9  and  C_10 
REMARK    6  A    between atoms: N_15  and  C_14 
REMARK    7  A    between atoms: N_20  and  C_19 
REMARK       I    between atoms: C_22  and  N_20 
ROOT
ATOM      1  C   LIG d   1      -7.665  81.015 120.049  0.00  0.00     0.161 C 
ATOM      2  C   LIG d   1      -8.085  79.760 119.577  0.00  0.00     0.016 C 
ATOM      3  C   LIG d   1      -9.283  79.563 118.852  0.00  0.00     0.038 C 
ATOM      4  C   LIG d   1     -10.072  80.638 118.416  0.00  0.00     0.028 C 
ATOM      5  C   LIG d   1      -9.952  81.874 119.301  0.00  0.00    -0.047 C 
ATOM      6  C   LIG d   1      -8.456  82.215 119.488  0.00  0.00     0.091 C 
ENDROOT
BRANCH   1   7
ATOM      7  O   LIG d   1      -6.255  81.184 119.800  0.00  0.00    -0.368 OA
BRANCH   7   8
ATOM      8  C   LIG d   1      -5.386  81.062 120.953  0.00  0.00     0.119 C 
BRANCH   8   9
ATOM      9  C   LIG d   1      -4.831  82.465 121.265  0.00  0.00     0.028 C 
ATOM     10  C   LIG d   1      -3.329  82.584 120.953  0.00  0.00     0.006 C 
ENDBRANCH   8   9
BRANCH   8  11
ATOM     11  C   LIG d   1      -4.159  80.201 120.637  0.00  0.00     0.028 C 
ATOM     12  C   LIG d   1      -4.374  79.280 119.426  0.00  0.00     0.006 C 
ENDBRANCH   8  11
ENDBRANCH   7   8
ENDBRANCH   1   7
BRANCH   6  13
ATOM     13  N   LIG d   1      -8.247  83.362 120.409  0.00  0.00    -0.311 N 
ATOM     14  C   LIG d   1      -8.579  83.337 121.699  0.00  0.00     0.210 C 
ATOM     15  C   LIG d   1      -8.297  84.633 122.465  0.00  0.00     0.109 C 
ATOM     16  O   LIG d   1      -9.052  82.354 122.288  0.00  0.00    -0.276 OA
ATOM     17  H   LIG d   1      -7.840  84.191 120.021  0.00  0.00     0.149 HD
ENDBRANCH   6  13
BRANCH   5  18
ATOM     18  N   LIG d   1     -10.716  82.959 118.656  0.00  0.00     0.381 N 
ATOM     19  H   LIG d   1     -10.569  82.935 117.667  0.00  0.00    -0.090 HD
ATOM     20  H   LIG d   1     -10.384  83.842 119.003  0.00  0.00    -0.090 HD
ATOM     21  H   LIG d   1     -11.687  82.859 118.857  0.00  0.00    -0.090 HD
ENDBRANCH   5  18
BRANCH   3  22
ATOM     22  C   LIG d   1      -9.723  78.274 118.590  0.00  0.00     0.382 C 
ATOM     23  O   LIG d   1      -8.925  77.419 118.136  0.00  0.00    -0.241 OA
ATOM     24  O   LIG d   1     -10.918  77.968 118.760  0.00  0.00    -0.241 OA
ENDBRANCH   3  22
TORSDOF 7
ENDMDL
MODEL 7
REMARK VINA RESULT:      -4.6     20.130     22.689
REMARK  7 active torsions:
REMARK  status: ('A' for Active; 'I' for Inactive)
REMARK    1  A    between atoms: C_2  and  C_3 
REMARK    2  A    between atoms: C_3  and  O_6 
REMARK    3  A    between atoms: C_3  and  C_4 
REMARK    4  A    between atoms: C_7  and  O_6 
REMARK    5  A    between atoms: C_9  and  C_10 
REMARK    6  A    between atoms: N_15  and  C_14 
REMARK    7  A    between atoms: N_20  and  C_19 
REMARK       I    between atoms: C_22  and  N_20 
ROOT
ATOM      1  C   LIG d   1      -0.427  57.948 120.412  0.00  0.00     0.161 C 
ATOM      2  C   LIG d   1      -1.819  57.786 120.516  0.00  0.00     0.016 C 
ATOM      3  C   LIG d   1      -2.735  58.860 120.440  0.00  0.00     0.038 C 
ATOM      4  C   LIG d   1      -2.328  60.159 120.101  0.00  0.00     0.028 C 
ATOM      5  C   LIG d   1      -0.883  60.461 120.486  0.00  0.00    -0.047 C 
ATOM      6  C   LIG d   1       0.028  59.342 119.931  0.00  0.00     0.091 C 
ENDROOT
BRANCH   1   7
ATOM      7  O   LIG d   1       0.122  56.921 119.562  0.00  0.00    -0.368 OA
BRANCH   7   8
ATOM      8  C   LIG d   1      -0.725  56.473 118.475  0.00  0.00     0.119 C 
BRANCH   8   9
ATOM      9  C   LIG d   1      -0.419  54.982 118.235  0.00  0.00     0.028 C 
ATOM     10  C   LIG d   1      -1.378  54.343 117.216  0.00  0.00     0.006 C 
ENDBRANCH   8   9
BRANCH   8  11
ATOM     11  C   LIG d   1      -0.368  57.177 117.163  0.00  0.00     0.028 C 
ATOM     12  C   LIG d   1      -1.343  58.311 116.811  0.00  0.00     0.006 C 
ENDBRANCH   8  11
ENDBRANCH   7   8
ENDBRANCH   1   7
BRANCH   6  13
ATOM     13  N   LIG d   1       1.448  59.515 120.335  0.00  0.00    -0.311 N 
ATOM     14  C   LIG d   1       2.346  60.161 119.594  0.00  0.00     0.210 C 
ATOM     15  C   LIG d   1       3.759  60.207 120.185  0.00  0.00     0.109 C 
ATOM     16  O   LIG d   1       2.101  60.729 118.519  0.00  0.00    -0.276 OA
ATOM     17  H   LIG d   1       1.726  59.112 121.208  0.00  0.00     0.149 HD
ENDBRANCH   6  13
BRANCH   5  18
ATOM     18  N   LIG d   1      -0.549  61.795 119.953  0.00  0.00     0.381 N 
ATOM     19  H   LIG d   1      -1.339  62.174 119.469  0.00  0.00    -0.090 HD
ATOM     20  H   LIG d   1       0.208  61.704 119.298  0.00  0.00    -0.090 HD
ATOM     21  H   LIG d   1      -0.283  62.403 120.696  0.00  0.00    -0.090 HD
ENDBRANCH   5  18
BRANCH   3  22
ATOM     22  C   LIG d   1      -4.071  58.647 120.743  0.00  0.00     0.382 C 
ATOM     23  O   LIG d   1      -4.510  57.477 120.853  0.00  0.00    -0.241 OA
ATOM     24  O   LIG d   1      -4.853  59.610 120.865  0.00  0.00    -0.241 OA
ENDBRANCH   3  22
TORSDOF 7
ENDMDL
MODEL 8
REMARK VINA RESULT:      -4.6      2.354      5.168
REMARK  7 active torsions:
REMARK  status: ('A' for Active; 'I' for Inactive)
REMARK    1  A    between atoms: C_2  and  C_3 
REMARK    2  A    between atoms: C_3  and  O_6 
REMARK    3  A    between atoms: C_3  and  C_4 
REMARK    4  A    between atoms: C_7  and  O_6 
REMARK    5  A    between atoms: C_9  and  C_10 
REMARK    6  A    between atoms: N_15  and  C_14 
REMARK    7  A    between atoms: N_20  and  C_19 
REMARK       I    between atoms: C_22  and  N_20 
ROOT
ATOM      1  C   LIG d   1      -8.485  78.992 119.290  0.00  0.00     0.161 C 
ATOM      2  C   LIG d   1      -8.760  80.123 118.503  0.00  0.00     0.016 C 
ATOM      3  C   LIG d   1      -9.484  81.242 118.974  0.00  0.00     0.038 C 
ATOM      4  C   LIG d   1      -9.855  81.372 120.321  0.00  0.00     0.028 C 
ATOM      5  C   LIG d   1     -10.040  80.034 121.030  0.00  0.00    -0.047 C 
ATOM      6  C   LIG d   1      -8.785  79.163 120.794  0.00  0.00     0.091 C 
ENDROOT
BRANCH   1   7
ATOM      7  O   LIG d   1      -7.117  78.582 119.096  0.00  0.00    -0.368 OA
BRANCH   7   8
ATOM      8  C   LIG d   1      -6.922  77.300 118.450  0.00  0.00     0.119 C 
BRANCH   8   9
ATOM      9  C   LIG d   1      -6.044  77.537 117.206  0.00  0.00     0.028 C 
ATOM     10  C   LIG d   1      -4.912  78.543 117.470  0.00  0.00     0.006 C 
ENDBRANCH   8   9
BRANCH   8  11
ATOM     11  C   LIG d   1      -8.243  76.739 117.914  0.00  0.00     0.028 C 
ATOM     12  C   LIG d   1      -8.041  75.723 116.778  0.00  0.00     0.006 C 
ENDBRANCH   8  11
ENDBRANCH   7   8
ENDBRANCH   1   7
BRANCH   6  13
ATOM     13  N   LIG d   1      -8.919  77.805 121.383  0.00  0.00    -0.311 N 
ATOM     14  C   LIG d   1      -9.957  77.004 121.150  0.00  0.00     0.210 C 
ATOM     15  C   LIG d   1      -9.906  75.654 121.873  0.00  0.00     0.109 C 
ATOM     16  O   LIG d   1     -10.898  77.270 120.388  0.00  0.00    -0.276 OA
ATOM     17  H   LIG d   1      -8.184  77.497 121.990  0.00  0.00     0.149 HD
ENDBRANCH   6  13
BRANCH   5  18
ATOM     18  N   LIG d   1     -10.289  80.316 122.456  0.00  0.00     0.381 N 
ATOM     19  H   LIG d   1     -10.499  81.287 122.578  0.00  0.00    -0.090 HD
ATOM     20  H   LIG d   1      -9.457  80.106 122.979  0.00  0.00    -0.090 HD
ATOM     21  H   LIG d   1     -11.047  79.760 122.787  0.00  0.00    -0.090 HD
ENDBRANCH   5  18
BRANCH   3  22
ATOM     22  C   LIG d   1      -9.880  82.229 118.085  0.00  0.00     0.382 C 
ATOM     23  O   LIG d   1      -9.447  82.222 116.907  0.00  0.00    -0.241 OA
ATOM     24  O   LIG d   1     -10.629  83.152 118.457  0.00  0.00    -0.241 OA
ENDBRANCH   3  22
TORSDOF 7
ENDMDL
MODEL 9
REMARK VINA RESULT:      -4.5     11.252     13.613
REMARK  7 active torsions:
REMARK  status: ('A' for Active; 'I' for Inactive)
REMARK    1  A    between atoms: C_2  and  C_3 
REMARK    2  A    between atoms: C_3  and  O_6 
REMARK    3  A    between atoms: C_3  and  C_4 
REMARK    4  A    between atoms: C_7  and  O_6 
REMARK    5  A    between atoms: C_9  and  C_10 
REMARK    6  A    between atoms: N_15  and  C_14 
REMARK    7  A    between atoms: N_20  and  C_19 
REMARK       I    between atoms: C_22  and  N_20 
ROOT
ATOM      1  C   LIG d   1      -3.830  92.274 118.961  0.00  0.00     0.161 C 
ATOM      2  C   LIG d   1      -2.866  91.375 118.473  0.00  0.00     0.016 C 
ATOM      3  C   LIG d   1      -3.185  90.245 117.686  0.00  0.00     0.038 C 
ATOM      4  C   LIG d   1      -4.483  90.018 117.205  0.00  0.00     0.028 C 
ATOM      5  C   LIG d   1      -5.570  90.619 118.089  0.00  0.00    -0.047 C 
ATOM      6  C   LIG d   1      -5.238  92.105 118.353  0.00  0.00     0.091 C 
ENDROOT
BRANCH   1   7
ATOM      7  O   LIG d   1      -3.368  93.628 118.787  0.00  0.00    -0.368 OA
BRANCH   7   8
ATOM      8  C   LIG d   1      -2.595  94.183 119.879  0.00  0.00     0.119 C 
BRANCH   8   9
ATOM      9  C   LIG d   1      -3.519  95.136 120.663  0.00  0.00     0.028 C 
ATOM     10  C   LIG d   1      -4.292  96.094 119.741  0.00  0.00     0.006 C 
ENDBRANCH   8   9
BRANCH   8  11
ATOM     11  C   LIG d   1      -1.451  95.062 119.363  0.00  0.00     0.028 C 
ATOM     12  C   LIG d   1      -1.082  94.760 117.902  0.00  0.00     0.006 C 
ENDBRANCH   8  11
ENDBRANCH   7   8
ENDBRANCH   1   7
BRANCH   6  13
ATOM     13  N   LIG d   1      -6.207  92.747 119.279  0.00  0.00    -0.311 N 
ATOM     14  C   LIG d   1      -6.999  93.758 118.926  0.00  0.00     0.210 C 
ATOM     15  C   LIG d   1      -7.910  94.285 120.040  0.00  0.00     0.109 C 
ATOM     16  O   LIG d   1      -7.057  94.247 117.788  0.00  0.00    -0.276 OA
ATOM     17  H   LIG d   1      -6.249  92.391 120.214  0.00  0.00     0.149 HD
ENDBRANCH   6  13
BRANCH   5  18
ATOM     18  N   LIG d   1      -6.861  90.429 117.399  0.00  0.00     0.381 N 
ATOM     19  H   LIG d   1      -7.612  90.674 118.013  0.00  0.00    -0.090 HD
ATOM     20  H   LIG d   1      -6.958  89.460 117.153  0.00  0.00    -0.090 HD
ATOM     21  H   LIG d   1      -6.895  90.993 116.579  0.00  0.00    -0.090 HD
ENDBRANCH   5  18
BRANCH   3  22
ATOM     22  C   LIG d   1      -2.205  89.304 117.407  0.00  0.00     0.382 C 
ATOM     23  O   LIG d   1      -2.460  88.081 117.523  0.00  0.00    -0.241 OA
ATOM     24  O   LIG d   1      -1.057  89.664 117.084  0.00  0.00    -0.241 OA
ENDBRANCH   3  22
TORSDOF 7
ENDMDL
