MODEL 1
REMARK VINA RESULT:      -5.3      0.000      0.000
REMARK  7 active torsions:
REMARK  status: ('A' for Active; 'I' for Inactive)
REMARK    1  A    between atoms: C_2  and  C_3 
REMARK    2  A    between atoms: C_3  and  O_6 
REMARK    3  A    between atoms: C_3  and  C_4 
REMARK    4  A    between atoms: C_7  and  O_6 
REMARK    5  A    between atoms: C_9  and  C_10 
REMARK    6  A    between atoms: N_15  and  C_14 
REMARK    7  A    between atoms: N_20  and  C_19 
REMARK       I    between atoms: C_22  and  N_20 
ROOT
ATOM      1  C   LIG d   1      -5.316  93.145 119.187  0.00  0.00     0.161 C 
ATOM      2  C   LIG d   1      -5.224  92.059 118.301  0.00  0.00     0.016 C 
ATOM      3  C   LIG d   1      -6.173  91.801 117.284  0.00  0.00     0.038 C 
ATOM      4  C   LIG d   1      -7.204  92.704 116.987  0.00  0.00     0.028 C 
ATOM      5  C   LIG d   1      -7.629  93.553 118.180  0.00  0.00    -0.047 C 
ATOM      6  C   LIG d   1      -6.374  94.202 118.806  0.00  0.00     0.091 C 
ENDROOT
BRANCH   1   7
ATOM      7  O   LIG d   1      -4.023  93.762 119.339  0.00  0.00    -0.368 OA
BRANCH   7   8
ATOM      8  C   LIG d   1      -2.890  92.997 118.859  0.00  0.00     0.119 C 
BRANCH   8   9
ATOM      9  C   LIG d   1      -2.067  92.567 120.089  0.00  0.00     0.028 C 
ATOM     10  C   LIG d   1      -2.242  91.075 120.420  0.00  0.00     0.006 C 
ENDBRANCH   8   9
BRANCH   8  11
ATOM     11  C   LIG d   1      -1.946  93.864 118.022  0.00  0.00     0.028 C 
ATOM     12  C   LIG d   1      -0.893  94.591 118.873  0.00  0.00     0.006 C 
ENDBRANCH   8  11
ENDBRANCH   7   8
ENDBRANCH   1   7
BRANCH   6  13
ATOM     13  N   LIG d   1      -6.690  94.983 120.030  0.00  0.00    -0.311 N 
ATOM     14  C   LIG d   1      -6.952  96.289 120.019  0.00  0.00     0.210 C 
ATOM     15  C   LIG d   1      -7.233  96.904 121.394  0.00  0.00     0.109 C 
ATOM     16  O   LIG d   1      -7.009  96.991 118.998  0.00  0.00    -0.276 OA
ATOM     17  H   LIG d   1      -6.696  94.486 120.899  0.00  0.00     0.149 HD
ENDBRANCH   6  13
BRANCH   5  18
ATOM     18  N   LIG d   1      -8.611  94.542 117.696  0.00  0.00     0.381 N 
ATOM     19  H   LIG d   1      -8.936  94.279 116.787  0.00  0.00    -0.090 HD
ATOM     20  H   LIG d   1      -8.161  95.438 117.623  0.00  0.00    -0.090 HD
ATOM     21  H   LIG d   1      -9.379  94.598 118.328  0.00  0.00    -0.090 HD
ENDBRANCH   5  18
BRANCH   3  22
ATOM     22  C   LIG d   1      -6.117  90.608 116.580  0.00  0.00     0.382 C 
ATOM     23  O   LIG d   1      -7.178  90.051 116.207  0.00  0.00    -0.241 OA
ATOM     24  O   LIG d   1      -5.023  90.060 116.351  0.00  0.00    -0.241 OA
ENDBRANCH   3  22
TORSDOF 7
ENDMDL
MODEL 2
REMARK VINA RESULT:      -5.0      1.447      2.121
REMARK  7 active torsions:
REMARK  status: ('A' for Active; 'I' for Inactive)
REMARK    1  A    between atoms: C_2  and  C_3 
REMARK    2  A    between atoms: C_3  and  O_6 
REMARK    3  A    between atoms: C_3  and  C_4 
REMARK    4  A    between atoms: C_7  and  O_6 
REMARK    5  A    between atoms: C_9  and  C_10 
REMARK    6  A    between atoms: N_15  and  C_14 
REMARK    7  A    between atoms: N_20  and  C_19 
REMARK       I    between atoms: C_22  and  N_20 
ROOT
ATOM      1  C   LIG d   1      -5.720  93.595 120.000  0.00  0.00     0.161 C 
ATOM      2  C   LIG d   1      -5.244  92.611 119.118  0.00  0.00     0.016 C 
ATOM      3  C   LIG d   1      -5.863  92.307 117.884  0.00  0.00     0.038 C 
ATOM      4  C   LIG d   1      -6.921  93.075 117.376  0.00  0.00     0.028 C 
ATOM      5  C   LIG d   1      -7.753  93.753 118.460  0.00  0.00    -0.047 C 
ATOM      6  C   LIG d   1      -6.807  94.519 119.413  0.00  0.00     0.091 C 
ENDROOT
BRANCH   1   7
ATOM      7  O   LIG d   1      -4.618  94.375 120.504  0.00  0.00    -0.368 OA
BRANCH   7   8
ATOM      8  C   LIG d   1      -4.048  95.340 119.585  0.00  0.00     0.119 C 
BRANCH   8   9
ATOM      9  C   LIG d   1      -2.527  95.100 119.545  0.00  0.00     0.028 C 
ATOM     10  C   LIG d   1      -2.090  94.311 118.299  0.00  0.00     0.006 C 
ENDBRANCH   8   9
BRANCH   8  11
ATOM     11  C   LIG d   1      -4.219  96.771 120.104  0.00  0.00     0.028 C 
ATOM     12  C   LIG d   1      -4.449  96.831 121.623  0.00  0.00     0.006 C 
ENDBRANCH   8  11
ENDBRANCH   7   8
ENDBRANCH   1   7
BRANCH   6  13
ATOM     13  N   LIG d   1      -7.532  95.141 120.551  0.00  0.00    -0.311 N 
ATOM     14  C   LIG d   1      -8.052  96.367 120.507  0.00  0.00     0.210 C 
ATOM     15  C   LIG d   1      -8.741  96.824 121.797  0.00  0.00     0.109 C 
ATOM     16  O   LIG d   1      -8.036  97.106 119.512  0.00  0.00    -0.276 OA
ATOM     17  H   LIG d   1      -7.618  94.599 121.388  0.00  0.00     0.149 HD
ENDBRANCH   6  13
BRANCH   5  18
ATOM     18  N   LIG d   1      -8.732  94.628 117.789  0.00  0.00     0.381 N 
ATOM     19  H   LIG d   1      -9.504  94.084 117.460  0.00  0.00    -0.090 HD
ATOM     20  H   LIG d   1      -8.291  95.061 116.996  0.00  0.00    -0.090 HD
ATOM     21  H   LIG d   1      -9.054  95.328 118.421  0.00  0.00    -0.090 HD
ENDBRANCH   5  18
BRANCH   3  22
ATOM     22  C   LIG d   1      -5.449  91.197 117.163  0.00  0.00     0.382 C 
ATOM     23  O   LIG d   1      -5.985  90.931 116.060  0.00  0.00    -0.241 OA
ATOM     24  O   LIG d   1      -4.578  90.434 117.621  0.00  0.00    -0.241 OA
ENDBRANCH   3  22
TORSDOF 7
ENDMDL
MODEL 3
REMARK VINA RESULT:      -4.9      2.211      4.624
REMARK  7 active torsions:
REMARK  status: ('A' for Active; 'I' for Inactive)
REMARK    1  A    between atoms: C_2  and  C_3 
REMARK    2  A    between atoms: C_3  and  O_6 
REMARK    3  A    between atoms: C_3  and  C_4 
REMARK    4  A    between atoms: C_7  and  O_6 
REMARK    5  A    between atoms: C_9  and  C_10 
REMARK    6  A    between atoms: N_15  and  C_14 
REMARK    7  A    between atoms: N_20  and  C_19 
REMARK       I    between atoms: C_22  and  N_20 
ROOT
ATOM      1  C   LIG d   1      -6.131  93.672 118.723  0.00  0.00     0.161 C 
ATOM      2  C   LIG d   1      -6.945  92.819 117.959  0.00  0.00     0.016 C 
ATOM      3  C   LIG d   1      -6.459  91.672 117.290  0.00  0.00     0.038 C 
ATOM      4  C   LIG d   1      -5.145  91.213 117.465  0.00  0.00     0.028 C 
ATOM      5  C   LIG d   1      -4.159  92.321 117.820  0.00  0.00    -0.047 C 
ATOM      6  C   LIG d   1      -4.718  93.126 119.016  0.00  0.00     0.091 C 
ENDROOT
BRANCH   1   7
ATOM      7  O   LIG d   1      -6.801  94.014 119.952  0.00  0.00    -0.368 OA
BRANCH   7   8
ATOM      8  C   LIG d   1      -7.740  95.115 119.881  0.00  0.00     0.119 C 
BRANCH   8   9
ATOM      9  C   LIG d   1      -6.968  96.350 119.377  0.00  0.00     0.028 C 
ATOM     10  C   LIG d   1      -6.148  97.024 120.490  0.00  0.00     0.006 C 
ENDBRANCH   8   9
BRANCH   8  11
ATOM     11  C   LIG d   1      -8.255  95.499 121.272  0.00  0.00     0.028 C 
ATOM     12  C   LIG d   1      -9.654  94.933 121.566  0.00  0.00     0.006 C 
ENDBRANCH   8  11
ENDBRANCH   7   8
ENDBRANCH   1   7
BRANCH   6  13
ATOM     13  N   LIG d   1      -3.855  94.281 119.374  0.00  0.00    -0.311 N 
ATOM     14  C   LIG d   1      -3.370  94.482 120.598  0.00  0.00     0.210 C 
ATOM     15  C   LIG d   1      -2.518  95.746 120.757  0.00  0.00     0.109 C 
ATOM     16  O   LIG d   1      -3.536  93.716 121.560  0.00  0.00    -0.276 OA
ATOM     17  H   LIG d   1      -3.643  94.936 118.647  0.00  0.00     0.149 HD
ENDBRANCH   6  13
BRANCH   5  18
ATOM     18  N   LIG d   1      -2.859  91.685 118.108  0.00  0.00     0.381 N 
ATOM     19  H   LIG d   1      -2.962  91.029 118.857  0.00  0.00    -0.090 HD
ATOM     20  H   LIG d   1      -2.208  92.394 118.397  0.00  0.00    -0.090 HD
ATOM     21  H   LIG d   1      -2.518  91.222 117.295  0.00  0.00    -0.090 HD
ENDBRANCH   5  18
BRANCH   3  22
ATOM     22  C   LIG d   1      -7.281  90.993 116.404  0.00  0.00     0.382 C 
ATOM     23  O   LIG d   1      -7.070  89.782 116.155  0.00  0.00    -0.241 OA
ATOM     24  O   LIG d   1      -8.204  91.589 115.815  0.00  0.00    -0.241 OA
ENDBRANCH   3  22
TORSDOF 7
ENDMDL
MODEL 4
REMARK VINA RESULT:      -4.8      2.689      4.810
REMARK  7 active torsions:
REMARK  status: ('A' for Active; 'I' for Inactive)
REMARK    1  A    between atoms: C_2  and  C_3 
REMARK    2  A    between atoms: C_3  and  O_6 
REMARK    3  A    between atoms: C_3  and  C_4 
REMARK    4  A    between atoms: C_7  and  O_6 
REMARK    5  A    between atoms: C_9  and  C_10 
REMARK    6  A    between atoms: N_15  and  C_14 
REMARK    7  A    between atoms: N_20  and  C_19 
REMARK       I    between atoms: C_22  and  N_20 
ROOT
ATOM      1  C   LIG d   1      -4.369  92.470 119.022  0.00  0.00     0.161 C 
ATOM      2  C   LIG d   1      -5.498  93.295 119.161  0.00  0.00     0.016 C 
ATOM      3  C   LIG d   1      -6.644  93.190 118.339  0.00  0.00     0.038 C 
ATOM      4  C   LIG d   1      -6.800  92.146 117.414  0.00  0.00     0.028 C 
ATOM      5  C   LIG d   1      -5.477  91.597 116.892  0.00  0.00    -0.047 C 
ATOM      6  C   LIG d   1      -4.566  91.254 118.093  0.00  0.00     0.091 C 
ENDROOT
BRANCH   1   7
ATOM      7  O   LIG d   1      -3.916  92.040 120.321  0.00  0.00    -0.368 OA
BRANCH   7   8
ATOM      8  C   LIG d   1      -2.620  92.533 120.740  0.00  0.00     0.119 C 
BRANCH   8   9
ATOM      9  C   LIG d   1      -2.844  93.447 121.960  0.00  0.00     0.028 C 
ATOM     10  C   LIG d   1      -3.034  94.921 121.561  0.00  0.00     0.006 C 
ENDBRANCH   8   9
BRANCH   8  11
ATOM     11  C   LIG d   1      -1.993  93.431 119.669  0.00  0.00     0.028 C 
ATOM     12  C   LIG d   1      -0.635  92.909 119.174  0.00  0.00     0.006 C 
ENDBRANCH   8  11
ENDBRANCH   7   8
ENDBRANCH   1   7
BRANCH   6  13
ATOM     13  N   LIG d   1      -3.220  90.789 117.669  0.00  0.00    -0.311 N 
ATOM     14  C   LIG d   1      -2.703  89.615 118.027  0.00  0.00     0.210 C 
ATOM     15  C   LIG d   1      -1.293  89.340 117.497  0.00  0.00     0.109 C 
ATOM     16  O   LIG d   1      -3.292  88.762 118.708  0.00  0.00    -0.276 OA
ATOM     17  H   LIG d   1      -2.686  91.407 117.089  0.00  0.00     0.149 HD
ENDBRANCH   6  13
BRANCH   5  18
ATOM     18  N   LIG d   1      -5.783  90.428 116.046  0.00  0.00     0.381 N 
ATOM     19  H   LIG d   1      -6.081  90.733 115.141  0.00  0.00    -0.090 HD
ATOM     20  H   LIG d   1      -6.534  89.909 116.467  0.00  0.00    -0.090 HD
ATOM     21  H   LIG d   1      -4.977  89.849 115.960  0.00  0.00    -0.090 HD
ENDBRANCH   5  18
BRANCH   3  22
ATOM     22  C   LIG d   1      -7.632  94.160 118.410  0.00  0.00     0.382 C 
ATOM     23  O   LIG d   1      -8.746  93.884 118.916  0.00  0.00    -0.241 OA
ATOM     24  O   LIG d   1      -7.438  95.295 117.935  0.00  0.00    -0.241 OA
ENDBRANCH   3  22
TORSDOF 7
ENDMDL
MODEL 5
REMARK VINA RESULT:      -4.8     26.355     29.111
REMARK  7 active torsions:
REMARK  status: ('A' for Active; 'I' for Inactive)
REMARK    1  A    between atoms: C_2  and  C_3 
REMARK    2  A    between atoms: C_3  and  O_6 
REMARK    3  A    between atoms: C_3  and  C_4 
REMARK    4  A    between atoms: C_7  and  O_6 
REMARK    5  A    between atoms: C_9  and  C_10 
REMARK    6  A    between atoms: N_15  and  C_14 
REMARK    7  A    between atoms: N_20  and  C_19 
REMARK       I    between atoms: C_22  and  N_20 
ROOT
ATOM      1  C   LIG d   1     -14.715  66.689 118.714  0.00  0.00     0.161 C 
ATOM      2  C   LIG d   1     -14.166  67.788 119.393  0.00  0.00     0.016 C 
ATOM      3  C   LIG d   1     -13.573  67.695 120.673  0.00  0.00     0.038 C 
ATOM      4  C   LIG d   1     -13.353  66.459 121.300  0.00  0.00     0.028 C 
ATOM      5  C   LIG d   1     -14.344  65.380 120.877  0.00  0.00    -0.047 C 
ATOM      6  C   LIG d   1     -14.385  65.314 119.333  0.00  0.00     0.091 C 
ENDROOT
BRANCH   1   7
ATOM      7  O   LIG d   1     -14.319  66.722 117.328  0.00  0.00    -0.368 OA
BRANCH   7   8
ATOM      8  C   LIG d   1     -15.354  67.072 116.377  0.00  0.00     0.119 C 
BRANCH   8   9
ATOM      9  C   LIG d   1     -15.060  68.499 115.877  0.00  0.00     0.028 C 
ATOM     10  C   LIG d   1     -15.801  69.571 116.694  0.00  0.00     0.006 C 
ENDBRANCH   8   9
BRANCH   8  11
ATOM     11  C   LIG d   1     -16.726  67.153 117.052  0.00  0.00     0.028 C 
ATOM     12  C   LIG d   1     -17.696  66.065 116.563  0.00  0.00     0.006 C 
ENDBRANCH   8  11
ENDBRANCH   7   8
ENDBRANCH   1   7
BRANCH   6  13
ATOM     13  N   LIG d   1     -15.392  64.342 118.833  0.00  0.00    -0.311 N 
ATOM     14  C   LIG d   1     -15.071  63.205 118.218  0.00  0.00     0.210 C 
ATOM     15  C   LIG d   1     -16.264  62.356 117.766  0.00  0.00     0.109 C 
ATOM     16  O   LIG d   1     -13.913  62.804 118.033  0.00  0.00    -0.276 OA
ATOM     17  H   LIG d   1     -16.357  64.574 118.970  0.00  0.00     0.149 HD
ENDBRANCH   6  13
BRANCH   5  18
ATOM     18  N   LIG d   1     -13.915  64.113 121.498  0.00  0.00     0.381 N 
ATOM     19  H   LIG d   1     -12.929  64.133 121.664  0.00  0.00    -0.090 HD
ATOM     20  H   LIG d   1     -14.114  63.357 120.866  0.00  0.00    -0.090 HD
ATOM     21  H   LIG d   1     -14.401  63.973 122.357  0.00  0.00    -0.090 HD
ENDBRANCH   5  18
BRANCH   3  22
ATOM     22  C   LIG d   1     -13.229  68.851 121.358  0.00  0.00     0.382 C 
ATOM     23  O   LIG d   1     -12.560  69.743 120.784  0.00  0.00    -0.241 OA
ATOM     24  O   LIG d   1     -13.542  68.993 122.555  0.00  0.00    -0.241 OA
ENDBRANCH   3  22
TORSDOF 7
ENDMDL
MODEL 6
REMARK VINA RESULT:      -4.7     33.405     35.188
REMARK  7 active torsions:
REMARK  status: ('A' for Active; 'I' for Inactive)
REMARK    1  A    between atoms: C_2  and  C_3 
REMARK    2  A    between atoms: C_3  and  O_6 
REMARK    3  A    between atoms: C_3  and  C_4 
REMARK    4  A    between atoms: C_7  and  O_6 
REMARK    5  A    between atoms: C_9  and  C_10 
REMARK    6  A    between atoms: N_15  and  C_14 
REMARK    7  A    between atoms: N_20  and  C_19 
REMARK       I    between atoms: C_22  and  N_20 
ROOT
ATOM      1  C   LIG d   1       0.841  59.569 118.524  0.00  0.00     0.161 C 
ATOM      2  C   LIG d   1       2.202  59.886 118.383  0.00  0.00     0.016 C 
ATOM      3  C   LIG d   1       2.974  60.479 119.408  0.00  0.00     0.038 C 
ATOM      4  C   LIG d   1       2.470  60.658 120.705  0.00  0.00     0.028 C 
ATOM      5  C   LIG d   1       0.955  60.819 120.750  0.00  0.00    -0.047 C 
ATOM      6  C   LIG d   1       0.303  59.655 119.968  0.00  0.00     0.091 C 
ENDROOT
BRANCH   1   7
ATOM      7  O   LIG d   1       0.582  58.264 117.971  0.00  0.00    -0.368 OA
BRANCH   7   8
ATOM      8  C   LIG d   1       0.885  57.136 118.829  0.00  0.00     0.119 C 
BRANCH   8   9
ATOM      9  C   LIG d   1       2.036  56.351 118.172  0.00  0.00     0.028 C 
ATOM     10  C   LIG d   1       3.271  56.247 119.083  0.00  0.00     0.006 C 
ENDBRANCH   8   9
BRANCH   8  11
ATOM     11  C   LIG d   1      -0.289  56.155 118.895  0.00  0.00     0.028 C 
ATOM     12  C   LIG d   1      -0.424  55.301 117.625  0.00  0.00     0.006 C 
ENDBRANCH   8  11
ENDBRANCH   7   8
ENDBRANCH   1   7
BRANCH   6  13
ATOM     13  N   LIG d   1      -1.175  59.782 119.891  0.00  0.00    -0.311 N 
ATOM     14  C   LIG d   1      -2.010  59.143 120.710  0.00  0.00     0.210 C 
ATOM     15  C   LIG d   1      -3.497  59.398 120.445  0.00  0.00     0.109 C 
ATOM     16  O   LIG d   1      -1.658  58.415 121.650  0.00  0.00    -0.276 OA
ATOM     17  H   LIG d   1      -1.546  60.378 119.176  0.00  0.00     0.149 HD
ENDBRANCH   6  13
BRANCH   5  18
ATOM     18  N   LIG d   1       0.552  60.859 122.169  0.00  0.00     0.381 N 
ATOM     19  H   LIG d   1       0.024  60.040 122.394  0.00  0.00    -0.090 HD
ATOM     20  H   LIG d   1      -0.032  61.662 122.318  0.00  0.00    -0.090 HD
ATOM     21  H   LIG d   1       1.359  60.913 122.751  0.00  0.00    -0.090 HD
ENDBRANCH   5  18
BRANCH   3  22
ATOM     22  C   LIG d   1       4.253  60.936 119.129  0.00  0.00     0.382 C 
ATOM     23  O   LIG d   1       5.120  60.964 120.035  0.00  0.00    -0.241 OA
ATOM     24  O   LIG d   1       4.537  61.362 117.993  0.00  0.00    -0.241 OA
ENDBRANCH   3  22
TORSDOF 7
ENDMDL
MODEL 7
REMARK VINA RESULT:      -4.4      4.025      6.269
REMARK  7 active torsions:
REMARK  status: ('A' for Active; 'I' for Inactive)
REMARK    1  A    between atoms: C_2  and  C_3 
REMARK    2  A    between atoms: C_3  and  O_6 
REMARK    3  A    between atoms: C_3  and  C_4 
REMARK    4  A    between atoms: C_7  and  O_6 
REMARK    5  A    between atoms: C_9  and  C_10 
REMARK    6  A    between atoms: N_15  and  C_14 
REMARK    7  A    between atoms: N_20  and  C_19 
REMARK       I    between atoms: C_22  and  N_20 
ROOT
ATOM      1  C   LIG d   1      -1.269  90.876 119.573  0.00  0.00     0.161 C 
ATOM      2  C   LIG d   1      -2.593  90.717 119.132  0.00  0.00     0.016 C 
ATOM      3  C   LIG d   1      -3.315  91.726 118.454  0.00  0.00     0.038 C 
ATOM      4  C   LIG d   1      -2.706  92.919 118.036  0.00  0.00     0.028 C 
ATOM      5  C   LIG d   1      -1.519  93.329 118.901  0.00  0.00    -0.047 C 
ATOM      6  C   LIG d   1      -0.552  92.129 119.028  0.00  0.00     0.091 C 
ENDROOT
BRANCH   1   7
ATOM      7  O   LIG d   1      -0.507  89.691 119.270  0.00  0.00    -0.368 OA
BRANCH   7   8
ATOM      8  C   LIG d   1      -0.967  88.909 118.141  0.00  0.00     0.119 C 
BRANCH   8   9
ATOM      9  C   LIG d   1      -0.901  87.424 118.549  0.00  0.00     0.028 C 
ATOM     10  C   LIG d   1      -1.932  87.068 119.633  0.00  0.00     0.006 C 
ENDBRANCH   8   9
BRANCH   8  11
ATOM     11  C   LIG d   1      -0.019  89.043 116.946  0.00  0.00     0.028 C 
ATOM     12  C   LIG d   1       0.658  87.715 116.570  0.00  0.00     0.006 C 
ENDBRANCH   8  11
ENDBRANCH   7   8
ENDBRANCH   1   7
BRANCH   6  13
ATOM     13  N   LIG d   1       0.595  92.419 119.927  0.00  0.00    -0.311 N 
ATOM     14  C   LIG d   1       1.868  92.293 119.556  0.00  0.00     0.210 C 
ATOM     15  C   LIG d   1       2.894  92.623 120.644  0.00  0.00     0.109 C 
ATOM     16  O   LIG d   1       2.244  91.971 118.419  0.00  0.00    -0.276 OA
ATOM     17  H   LIG d   1       0.380  92.716 120.859  0.00  0.00     0.149 HD
ENDBRANCH   6  13
BRANCH   5  18
ATOM     18  N   LIG d   1      -0.896  94.509 118.273  0.00  0.00     0.381 N 
ATOM     19  H   LIG d   1      -0.443  95.065 118.970  0.00  0.00    -0.090 HD
ATOM     20  H   LIG d   1      -1.615  95.067 117.844  0.00  0.00    -0.090 HD
ATOM     21  H   LIG d   1      -0.235  94.221 117.585  0.00  0.00    -0.090 HD
ENDBRANCH   5  18
BRANCH   3  22
ATOM     22  C   LIG d   1      -4.672  91.564 118.223  0.00  0.00     0.382 C 
ATOM     23  O   LIG d   1      -5.503  92.269 118.846  0.00  0.00    -0.241 OA
ATOM     24  O   LIG d   1      -5.079  90.690 117.434  0.00  0.00    -0.241 OA
ENDBRANCH   3  22
TORSDOF 7
ENDMDL
MODEL 8
REMARK VINA RESULT:      -4.2      5.779      8.111
REMARK  7 active torsions:
REMARK  status: ('A' for Active; 'I' for Inactive)
REMARK    1  A    between atoms: C_2  and  C_3 
REMARK    2  A    between atoms: C_3  and  O_6 
REMARK    3  A    between atoms: C_3  and  C_4 
REMARK    4  A    between atoms: C_7  and  O_6 
REMARK    5  A    between atoms: C_9  and  C_10 
REMARK    6  A    between atoms: N_15  and  C_14 
REMARK    7  A    between atoms: N_20  and  C_19 
REMARK       I    between atoms: C_22  and  N_20 
ROOT
ATOM      1  C   LIG d   1       0.851  89.321 118.927  0.00  0.00     0.161 C 
ATOM      2  C   LIG d   1      -0.520  89.082 118.733  0.00  0.00     0.016 C 
ATOM      3  C   LIG d   1      -1.470  90.113 118.548  0.00  0.00     0.038 C 
ATOM      4  C   LIG d   1      -1.089  91.454 118.392  0.00  0.00     0.028 C 
ATOM      5  C   LIG d   1       0.227  91.793 119.084  0.00  0.00    -0.047 C 
ATOM      6  C   LIG d   1       1.301  90.770 118.649  0.00  0.00     0.091 C 
ENDROOT
BRANCH   1   7
ATOM      7  O   LIG d   1       1.625  88.396 118.136  0.00  0.00    -0.368 OA
BRANCH   7   8
ATOM      8  C   LIG d   1       1.417  88.454 116.703  0.00  0.00     0.119 C 
BRANCH   8   9
ATOM      9  C   LIG d   1       0.924  87.066 116.251  0.00  0.00     0.028 C 
ATOM     10  C   LIG d   1       1.119  85.992 117.334  0.00  0.00     0.006 C 
ENDBRANCH   8   9
BRANCH   8  11
ATOM     11  C   LIG d   1       2.736  88.679 115.958  0.00  0.00     0.028 C 
ATOM     12  C   LIG d   1       3.966  88.280 116.789  0.00  0.00     0.006 C 
ENDBRANCH   8  11
ENDBRANCH   7   8
ENDBRANCH   1   7
BRANCH   6  13
ATOM     13  N   LIG d   1       2.598  90.980 119.345  0.00  0.00    -0.311 N 
ATOM     14  C   LIG d   1       3.699  91.406 118.730  0.00  0.00     0.210 C 
ATOM     15  C   LIG d   1       4.933  91.535 119.629  0.00  0.00     0.109 C 
ATOM     16  O   LIG d   1       3.764  91.721 117.532  0.00  0.00    -0.276 OA
ATOM     17  H   LIG d   1       2.627  90.778 120.326  0.00  0.00     0.149 HD
ENDBRANCH   6  13
BRANCH   5  18
ATOM     18  N   LIG d   1       0.573  93.182 118.727  0.00  0.00     0.381 N 
ATOM     19  H   LIG d   1       0.964  93.208 117.806  0.00  0.00    -0.090 HD
ATOM     20  H   LIG d   1       1.264  93.521 119.372  0.00  0.00    -0.090 HD
ATOM     21  H   LIG d   1      -0.240  93.757 118.766  0.00  0.00    -0.090 HD
ENDBRANCH   5  18
BRANCH   3  22
ATOM     22  C   LIG d   1      -2.823  89.809 118.556  0.00  0.00     0.382 C 
ATOM     23  O   LIG d   1      -3.197  88.611 118.558  0.00  0.00    -0.241 OA
ATOM     24  O   LIG d   1      -3.674  90.717 118.517  0.00  0.00    -0.241 OA
ENDBRANCH   3  22
TORSDOF 7
ENDMDL
MODEL 9
REMARK VINA RESULT:      -4.1     27.009     29.620
REMARK  7 active torsions:
REMARK  status: ('A' for Active; 'I' for Inactive)
REMARK    1  A    between atoms: C_2  and  C_3 
REMARK    2  A    between atoms: C_3  and  O_6 
REMARK    3  A    between atoms: C_3  and  C_4 
REMARK    4  A    between atoms: C_7  and  O_6 
REMARK    5  A    between atoms: C_9  and  C_10 
REMARK    6  A    between atoms: N_15  and  C_14 
REMARK    7  A    between atoms: N_20  and  C_19 
REMARK       I    between atoms: C_22  and  N_20 
ROOT
ATOM      1  C   LIG d   1     -16.282  65.819 119.756  0.00  0.00     0.161 C 
ATOM      2  C   LIG d   1     -15.254  64.865 119.674  0.00  0.00     0.016 C 
ATOM      3  C   LIG d   1     -15.241  63.815 118.727  0.00  0.00     0.038 C 
ATOM      4  C   LIG d   1     -16.186  63.737 117.693  0.00  0.00     0.028 C 
ATOM      5  C   LIG d   1     -17.522  64.384 118.043  0.00  0.00    -0.047 C 
ATOM      6  C   LIG d   1     -17.264  65.816 118.566  0.00  0.00     0.091 C 
ENDROOT
BRANCH   1   7
ATOM      7  O   LIG d   1     -15.717  67.133 119.935  0.00  0.00    -0.368 OA
BRANCH   7   8
ATOM      8  C   LIG d   1     -15.273  67.805 118.731  0.00  0.00     0.119 C 
BRANCH   8   9
ATOM      9  C   LIG d   1     -13.777  68.132 118.908  0.00  0.00     0.028 C 
ATOM     10  C   LIG d   1     -13.451  68.640 120.323  0.00  0.00     0.006 C 
ENDBRANCH   8   9
BRANCH   8  11
ATOM     11  C   LIG d   1     -15.967  69.159 118.560  0.00  0.00     0.028 C 
ATOM     12  C   LIG d   1     -16.026  69.618 117.095  0.00  0.00     0.006 C 
ENDBRANCH   8  11
ENDBRANCH   7   8
ENDBRANCH   1   7
BRANCH   6  13
ATOM     13  N   LIG d   1     -18.512  66.490 119.010  0.00  0.00    -0.311 N 
ATOM     14  C   LIG d   1     -19.230  67.293 118.227  0.00  0.00     0.210 C 
ATOM     15  C   LIG d   1     -20.471  67.901 118.889  0.00  0.00     0.109 C 
ATOM     16  O   LIG d   1     -18.975  67.534 117.038  0.00  0.00    -0.276 OA
ATOM     17  H   LIG d   1     -18.809  66.324 119.952  0.00  0.00     0.149 HD
ENDBRANCH   6  13
BRANCH   5  18
ATOM     18  N   LIG d   1     -18.363  64.353 116.832  0.00  0.00     0.381 N 
ATOM     19  H   LIG d   1     -18.531  65.286 116.513  0.00  0.00    -0.090 HD
ATOM     20  H   LIG d   1     -19.247  63.933 117.061  0.00  0.00    -0.090 HD
ATOM     21  H   LIG d   1     -17.912  63.825 116.117  0.00  0.00    -0.090 HD
ENDBRANCH   5  18
BRANCH   3  22
ATOM     22  C   LIG d   1     -14.296  62.806 118.834  0.00  0.00     0.382 C 
ATOM     23  O   LIG d   1     -13.262  62.837 118.124  0.00  0.00    -0.241 OA
ATOM     24  O   LIG d   1     -14.486  61.841 119.598  0.00  0.00    -0.241 OA
ENDBRANCH   3  22
TORSDOF 7
ENDMDL
