MODEL 1
REMARK VINA RESULT:      -5.5      0.000      0.000
REMARK  7 active torsions:
REMARK  status: ('A' for Active; 'I' for Inactive)
REMARK    1  A    between atoms: C_2  and  C_3 
REMARK    2  A    between atoms: C_3  and  O_6 
REMARK    3  A    between atoms: C_3  and  C_4 
REMARK    4  A    between atoms: C_7  and  O_6 
REMARK    5  A    between atoms: C_9  and  C_10 
REMARK    6  A    between atoms: N_15  and  C_14 
REMARK    7  A    between atoms: N_20  and  C_19 
REMARK       I    between atoms: C_22  and  N_20 
ROOT
ATOM      1  C   LIG d   1      -5.647  76.055 117.070  0.00  0.00     0.161 C 
ATOM      2  C   LIG d   1      -4.475  75.284 116.998  0.00  0.00     0.016 C 
ATOM      3  C   LIG d   1      -3.260  75.654 117.619  0.00  0.00     0.038 C 
ATOM      4  C   LIG d   1      -3.175  76.754 118.486  0.00  0.00     0.028 C 
ATOM      5  C   LIG d   1      -4.200  77.842 118.185  0.00  0.00    -0.047 C 
ATOM      6  C   LIG d   1      -5.604  77.201 118.103  0.00  0.00     0.091 C 
ENDROOT
BRANCH   1   7
ATOM      7  O   LIG d   1      -6.780  75.200 117.317  0.00  0.00    -0.368 OA
BRANCH   7   8
ATOM      8  C   LIG d   1      -7.472  74.704 116.144  0.00  0.00     0.119 C 
BRANCH   8   9
ATOM      9  C   LIG d   1      -8.984  74.840 116.406  0.00  0.00     0.028 C 
ATOM     10  C   LIG d   1      -9.294  75.791 117.575  0.00  0.00     0.006 C 
ENDBRANCH   8   9
BRANCH   8  11
ATOM     11  C   LIG d   1      -7.228  73.205 115.946  0.00  0.00     0.028 C 
ATOM     12  C   LIG d   1      -8.347  72.335 116.541  0.00  0.00     0.006 C 
ENDBRANCH   8  11
ENDBRANCH   7   8
ENDBRANCH   1   7
BRANCH   6  13
ATOM     13  N   LIG d   1      -6.655  78.183 117.729  0.00  0.00    -0.311 N 
ATOM     14  C   LIG d   1      -7.400  78.835 118.621  0.00  0.00     0.210 C 
ATOM     15  C   LIG d   1      -8.440  79.787 118.022  0.00  0.00     0.109 C 
ATOM     16  O   LIG d   1      -7.276  78.739 119.851  0.00  0.00    -0.276 OA
ATOM     17  H   LIG d   1      -6.801  78.345 116.752  0.00  0.00     0.149 HD
ENDBRANCH   6  13
BRANCH   5  18
ATOM     18  N   LIG d   1      -4.092  78.862 119.246  0.00  0.00     0.381 N 
ATOM     19  H   LIG d   1      -3.395  78.588 119.909  0.00  0.00    -0.090 HD
ATOM     20  H   LIG d   1      -4.973  78.929 119.724  0.00  0.00    -0.090 HD
ATOM     21  H   LIG d   1      -3.853  79.744 118.848  0.00  0.00    -0.090 HD
ENDBRANCH   5  18
BRANCH   3  22
ATOM     22  C   LIG d   1      -2.102  74.943 117.342  0.00  0.00     0.382 C 
ATOM     23  O   LIG d   1      -1.440  75.202 116.308  0.00  0.00    -0.241 OA
ATOM     24  O   LIG d   1      -1.735  74.017 118.090  0.00  0.00    -0.241 OA
ENDBRANCH   3  22
TORSDOF 7
ENDMDL
MODEL 2
REMARK VINA RESULT:      -5.5      2.079      4.752
REMARK  7 active torsions:
REMARK  status: ('A' for Active; 'I' for Inactive)
REMARK    1  A    between atoms: C_2  and  C_3 
REMARK    2  A    between atoms: C_3  and  O_6 
REMARK    3  A    between atoms: C_3  and  C_4 
REMARK    4  A    between atoms: C_7  and  O_6 
REMARK    5  A    between atoms: C_9  and  C_10 
REMARK    6  A    between atoms: N_15  and  C_14 
REMARK    7  A    between atoms: N_20  and  C_19 
REMARK       I    between atoms: C_22  and  N_20 
ROOT
ATOM      1  C   LIG d   1      -6.044  76.282 117.053  0.00  0.00     0.161 C 
ATOM      2  C   LIG d   1      -6.265  74.991 116.545  0.00  0.00     0.016 C 
ATOM      3  C   LIG d   1      -7.531  74.361 116.545  0.00  0.00     0.038 C 
ATOM      4  C   LIG d   1      -8.699  75.044 116.916  0.00  0.00     0.028 C 
ATOM      5  C   LIG d   1      -8.450  76.175 117.908  0.00  0.00    -0.047 C 
ATOM      6  C   LIG d   1      -7.326  77.084 117.361  0.00  0.00     0.091 C 
ENDROOT
BRANCH   1   7
ATOM      7  O   LIG d   1      -5.194  77.021 116.154  0.00  0.00    -0.368 OA
BRANCH   7   8
ATOM      8  C   LIG d   1      -3.840  77.262 116.611  0.00  0.00     0.119 C 
BRANCH   8   9
ATOM      9  C   LIG d   1      -3.396  78.625 116.045  0.00  0.00     0.028 C 
ATOM     10  C   LIG d   1      -4.081  79.805 116.753  0.00  0.00     0.006 C 
ENDBRANCH   8   9
BRANCH   8  11
ATOM     11  C   LIG d   1      -2.864  76.240 116.020  0.00  0.00     0.028 C 
ATOM     12  C   LIG d   1      -2.252  75.316 117.085  0.00  0.00     0.006 C 
ENDBRANCH   8  11
ENDBRANCH   7   8
ENDBRANCH   1   7
BRANCH   6  13
ATOM     13  N   LIG d   1      -6.961  78.168 118.309  0.00  0.00    -0.311 N 
ATOM     14  C   LIG d   1      -7.493  79.389 118.268  0.00  0.00     0.210 C 
ATOM     15  C   LIG d   1      -6.963  80.362 119.325  0.00  0.00     0.109 C 
ATOM     16  O   LIG d   1      -8.378  79.748 117.476  0.00  0.00    -0.276 OA
ATOM     17  H   LIG d   1      -6.274  77.954 119.005  0.00  0.00     0.149 HD
ENDBRANCH   6  13
BRANCH   5  18
ATOM     18  N   LIG d   1      -9.727  76.887 118.102  0.00  0.00     0.381 N 
ATOM     19  H   LIG d   1     -10.155  77.062 117.215  0.00  0.00    -0.090 HD
ATOM     20  H   LIG d   1      -9.542  77.771 118.543  0.00  0.00    -0.090 HD
ATOM     21  H   LIG d   1     -10.337  76.344 118.673  0.00  0.00    -0.090 HD
ENDBRANCH   5  18
BRANCH   3  22
ATOM     22  C   LIG d   1      -7.632  73.020 116.206  0.00  0.00     0.382 C 
ATOM     23  O   LIG d   1      -6.619  72.397 115.805  0.00  0.00    -0.241 OA
ATOM     24  O   LIG d   1      -8.731  72.437 116.254  0.00  0.00    -0.241 OA
ENDBRANCH   3  22
TORSDOF 7
ENDMDL
MODEL 3
REMARK VINA RESULT:      -4.9      2.249      5.174
REMARK  7 active torsions:
REMARK  status: ('A' for Active; 'I' for Inactive)
REMARK    1  A    between atoms: C_2  and  C_3 
REMARK    2  A    between atoms: C_3  and  O_6 
REMARK    3  A    between atoms: C_3  and  C_4 
REMARK    4  A    between atoms: C_7  and  O_6 
REMARK    5  A    between atoms: C_9  and  C_10 
REMARK    6  A    between atoms: N_15  and  C_14 
REMARK    7  A    between atoms: N_20  and  C_19 
REMARK       I    between atoms: C_22  and  N_20 
ROOT
ATOM      1  C   LIG d   1      -6.626  77.173 118.750  0.00  0.00     0.161 C 
ATOM      2  C   LIG d   1      -7.952  77.319 119.189  0.00  0.00     0.016 C 
ATOM      3  C   LIG d   1      -8.685  78.521 119.064  0.00  0.00     0.038 C 
ATOM      4  C   LIG d   1      -8.189  79.621 118.349  0.00  0.00     0.028 C 
ATOM      5  C   LIG d   1      -6.666  79.693 118.328  0.00  0.00    -0.047 C 
ATOM      6  C   LIG d   1      -6.106  78.327 117.868  0.00  0.00     0.091 C 
ENDROOT
BRANCH   1   7
ATOM      7  O   LIG d   1      -6.473  75.913 118.067  0.00  0.00    -0.368 OA
BRANCH   7   8
ATOM      8  C   LIG d   1      -6.982  75.857 116.712  0.00  0.00     0.119 C 
BRANCH   8   9
ATOM      9  C   LIG d   1      -8.317  75.088 116.750  0.00  0.00     0.028 C 
ATOM     10  C   LIG d   1      -8.152  73.605 116.379  0.00  0.00     0.006 C 
ENDBRANCH   8   9
BRANCH   8  11
ATOM     11  C   LIG d   1      -6.065  75.030 115.805  0.00  0.00     0.028 C 
ATOM     12  C   LIG d   1      -4.574  75.303 116.059  0.00  0.00     0.006 C 
ENDBRANCH   8  11
ENDBRANCH   7   8
ENDBRANCH   1   7
BRANCH   6  13
ATOM     13  N   LIG d   1      -4.621  78.284 117.900  0.00  0.00    -0.311 N 
ATOM     14  C   LIG d   1      -3.854  78.674 116.882  0.00  0.00     0.210 C 
ATOM     15  C   LIG d   1      -2.347  78.528 117.116  0.00  0.00     0.109 C 
ATOM     16  O   LIG d   1      -4.278  79.156 115.822  0.00  0.00    -0.276 OA
ATOM     17  H   LIG d   1      -4.192  77.935 118.735  0.00  0.00     0.149 HD
ENDBRANCH   6  13
BRANCH   5  18
ATOM     18  N   LIG d   1      -6.285  80.804 117.436  0.00  0.00     0.381 N 
ATOM     19  H   LIG d   1      -5.839  80.443 116.617  0.00  0.00    -0.090 HD
ATOM     20  H   LIG d   1      -5.630  81.396 117.917  0.00  0.00    -0.090 HD
ATOM     21  H   LIG d   1      -7.092  81.329 117.181  0.00  0.00    -0.090 HD
ENDBRANCH   5  18
BRANCH   3  22
ATOM     22  C   LIG d   1      -9.915  78.644 119.693  0.00  0.00     0.382 C 
ATOM     23  O   LIG d   1     -10.319  79.772 120.065  0.00  0.00    -0.241 OA
ATOM     24  O   LIG d   1     -10.606  77.636 119.932  0.00  0.00    -0.241 OA
ENDBRANCH   3  22
TORSDOF 7
ENDMDL
MODEL 4
REMARK VINA RESULT:      -4.9      2.374      5.790
REMARK  7 active torsions:
REMARK  status: ('A' for Active; 'I' for Inactive)
REMARK    1  A    between atoms: C_2  and  C_3 
REMARK    2  A    between atoms: C_3  and  O_6 
REMARK    3  A    between atoms: C_3  and  C_4 
REMARK    4  A    between atoms: C_7  and  O_6 
REMARK    5  A    between atoms: C_9  and  C_10 
REMARK    6  A    between atoms: N_15  and  C_14 
REMARK    7  A    between atoms: N_20  and  C_19 
REMARK       I    between atoms: C_22  and  N_20 
ROOT
ATOM      1  C   LIG d   1      -6.235  76.427 116.994  0.00  0.00     0.161 C 
ATOM      2  C   LIG d   1      -6.111  77.797 117.275  0.00  0.00     0.016 C 
ATOM      3  C   LIG d   1      -7.110  78.551 117.932  0.00  0.00     0.038 C 
ATOM      4  C   LIG d   1      -8.246  77.947 118.491  0.00  0.00     0.028 C 
ATOM      5  C   LIG d   1      -8.652  76.655 117.791  0.00  0.00    -0.047 C 
ATOM      6  C   LIG d   1      -7.419  75.728 117.695  0.00  0.00     0.091 C 
ENDROOT
BRANCH   1   7
ATOM      7  O   LIG d   1      -5.000  75.750 117.302  0.00  0.00    -0.368 OA
BRANCH   7   8
ATOM      8  C   LIG d   1      -3.810  76.576 117.323  0.00  0.00     0.119 C 
BRANCH   8   9
ATOM      9  C   LIG d   1      -2.929  76.148 116.133  0.00  0.00     0.028 C 
ATOM     10  C   LIG d   1      -1.629  75.460 116.582  0.00  0.00     0.006 C 
ENDBRANCH   8   9
BRANCH   8  11
ATOM     11  C   LIG d   1      -2.965  76.303 118.571  0.00  0.00     0.028 C 
ATOM     12  C   LIG d   1      -3.265  77.281 119.719  0.00  0.00     0.006 C 
ENDBRANCH   8  11
ENDBRANCH   7   8
ENDBRANCH   1   7
BRANCH   6  13
ATOM     13  N   LIG d   1      -7.708  74.476 116.948  0.00  0.00    -0.311 N 
ATOM     14  C   LIG d   1      -7.969  73.312 117.542  0.00  0.00     0.210 C 
ATOM     15  C   LIG d   1      -8.220  72.141 116.586  0.00  0.00     0.109 C 
ATOM     16  O   LIG d   1      -8.049  73.146 118.768  0.00  0.00    -0.276 OA
ATOM     17  H   LIG d   1      -7.695  74.527 115.948  0.00  0.00     0.149 HD
ENDBRANCH   6  13
BRANCH   5  18
ATOM     18  N   LIG d   1      -9.763  76.062 118.559  0.00  0.00     0.381 N 
ATOM     19  H   LIG d   1     -10.580  76.004 117.984  0.00  0.00    -0.090 HD
ATOM     20  H   LIG d   1      -9.970  76.656 119.343  0.00  0.00    -0.090 HD
ATOM     21  H   LIG d   1      -9.509  75.153 118.880  0.00  0.00    -0.090 HD
ENDBRANCH   5  18
BRANCH   3  22
ATOM     22  C   LIG d   1      -6.997  79.931 118.000  0.00  0.00     0.382 C 
ATOM     23  O   LIG d   1      -6.300  80.460 118.899  0.00  0.00    -0.241 OA
ATOM     24  O   LIG d   1      -7.618  80.656 117.200  0.00  0.00    -0.241 OA
ENDBRANCH   3  22
TORSDOF 7
ENDMDL
MODEL 5
REMARK VINA RESULT:      -4.9     13.984     16.751
REMARK  7 active torsions:
REMARK  status: ('A' for Active; 'I' for Inactive)
REMARK    1  A    between atoms: C_2  and  C_3 
REMARK    2  A    between atoms: C_3  and  O_6 
REMARK    3  A    between atoms: C_3  and  C_4 
REMARK    4  A    between atoms: C_7  and  O_6 
REMARK    5  A    between atoms: C_9  and  C_10 
REMARK    6  A    between atoms: N_15  and  C_14 
REMARK    7  A    between atoms: N_20  and  C_19 
REMARK       I    between atoms: C_22  and  N_20 
ROOT
ATOM      1  C   LIG d   1      -4.757  91.824 118.786  0.00  0.00     0.161 C 
ATOM      2  C   LIG d   1      -6.043  92.369 118.630  0.00  0.00     0.016 C 
ATOM      3  C   LIG d   1      -6.442  93.597 119.205  0.00  0.00     0.038 C 
ATOM      4  C   LIG d   1      -5.530  94.444 119.853  0.00  0.00     0.028 C 
ATOM      5  C   LIG d   1      -4.348  93.703 120.469  0.00  0.00    -0.047 C 
ATOM      6  C   LIG d   1      -3.717  92.786 119.396  0.00  0.00     0.091 C 
ENDROOT
BRANCH   1   7
ATOM      7  O   LIG d   1      -4.287  91.313 117.523  0.00  0.00    -0.368 OA
BRANCH   7   8
ATOM      8  C   LIG d   1      -4.549  89.911 117.265  0.00  0.00     0.119 C 
BRANCH   8   9
ATOM      9  C   LIG d   1      -3.187  89.210 117.093  0.00  0.00     0.028 C 
ATOM     10  C   LIG d   1      -2.626  88.684 118.425  0.00  0.00     0.006 C 
ENDBRANCH   8   9
BRANCH   8  11
ATOM     11  C   LIG d   1      -5.277  89.716 115.932  0.00  0.00     0.028 C 
ATOM     12  C   LIG d   1      -6.760  89.353 116.111  0.00  0.00     0.006 C 
ENDBRANCH   8  11
ENDBRANCH   7   8
ENDBRANCH   1   7
BRANCH   6  13
ATOM     13  N   LIG d   1      -2.605  91.961 119.938  0.00  0.00    -0.311 N 
ATOM     14  C   LIG d   1      -1.358  92.017 119.475  0.00  0.00     0.210 C 
ATOM     15  C   LIG d   1      -0.370  91.068 120.162  0.00  0.00     0.109 C 
ATOM     16  O   LIG d   1      -0.968  92.785 118.583  0.00  0.00    -0.276 OA
ATOM     17  H   LIG d   1      -2.826  91.333 120.686  0.00  0.00     0.149 HD
ENDBRANCH   6  13
BRANCH   5  18
ATOM     18  N   LIG d   1      -3.410  94.715 120.989  0.00  0.00     0.381 N 
ATOM     19  H   LIG d   1      -2.469  94.394 120.878  0.00  0.00    -0.090 HD
ATOM     20  H   LIG d   1      -3.584  94.846 121.970  0.00  0.00    -0.090 HD
ATOM     21  H   LIG d   1      -3.534  95.576 120.504  0.00  0.00    -0.090 HD
ENDBRANCH   5  18
BRANCH   3  22
ATOM     22  C   LIG d   1      -7.777  93.972 119.168  0.00  0.00     0.382 C 
ATOM     23  O   LIG d   1      -8.160  94.846 118.354  0.00  0.00    -0.241 OA
ATOM     24  O   LIG d   1      -8.593  93.479 119.969  0.00  0.00    -0.241 OA
ENDBRANCH   3  22
TORSDOF 7
ENDMDL
MODEL 6
REMARK VINA RESULT:      -4.6     13.616     16.486
REMARK  7 active torsions:
REMARK  status: ('A' for Active; 'I' for Inactive)
REMARK    1  A    between atoms: C_2  and  C_3 
REMARK    2  A    between atoms: C_3  and  O_6 
REMARK    3  A    between atoms: C_3  and  C_4 
REMARK    4  A    between atoms: C_7  and  O_6 
REMARK    5  A    between atoms: C_9  and  C_10 
REMARK    6  A    between atoms: N_15  and  C_14 
REMARK    7  A    between atoms: N_20  and  C_19 
REMARK       I    between atoms: C_22  and  N_20 
ROOT
ATOM      1  C   LIG d   1      -5.207  92.237 118.454  0.00  0.00     0.161 C 
ATOM      2  C   LIG d   1      -5.945  91.315 117.693  0.00  0.00     0.016 C 
ATOM      3  C   LIG d   1      -5.373  90.174 117.085  0.00  0.00     0.038 C 
ATOM      4  C   LIG d   1      -4.044  89.793 117.325  0.00  0.00     0.028 C 
ATOM      5  C   LIG d   1      -3.132  90.965 117.675  0.00  0.00    -0.047 C 
ATOM      6  C   LIG d   1      -3.779  91.780 118.819  0.00  0.00     0.091 C 
ENDROOT
BRANCH   1   7
ATOM      7  O   LIG d   1      -5.941  92.586 119.644  0.00  0.00    -0.368 OA
BRANCH   7   8
ATOM      8  C   LIG d   1      -7.250  93.171 119.437  0.00  0.00     0.119 C 
BRANCH   8   9
ATOM      9  C   LIG d   1      -7.040  94.620 118.959  0.00  0.00     0.028 C 
ATOM     10  C   LIG d   1      -8.155  95.565 119.439  0.00  0.00     0.006 C 
ENDBRANCH   8   9
BRANCH   8  11
ATOM     11  C   LIG d   1      -8.023  93.287 120.754  0.00  0.00     0.028 C 
ATOM     12  C   LIG d   1      -7.113  93.193 121.989  0.00  0.00     0.006 C 
ENDBRANCH   8  11
ENDBRANCH   7   8
ENDBRANCH   1   7
BRANCH   6  13
ATOM     13  N   LIG d   1      -2.993  92.992 119.166  0.00  0.00    -0.311 N 
ATOM     14  C   LIG d   1      -2.054  93.012 120.110  0.00  0.00     0.210 C 
ATOM     15  C   LIG d   1      -1.378  94.370 120.322  0.00  0.00     0.109 C 
ATOM     16  O   LIG d   1      -1.695  92.026 120.771  0.00  0.00    -0.276 OA
ATOM     17  H   LIG d   1      -3.198  93.830 118.657  0.00  0.00     0.149 HD
ENDBRANCH   6  13
BRANCH   5  18
ATOM     18  N   LIG d   1      -1.813  90.411 118.035  0.00  0.00     0.381 N 
ATOM     19  H   LIG d   1      -1.402  90.961 118.763  0.00  0.00    -0.090 HD
ATOM     20  H   LIG d   1      -1.213  90.454 117.230  0.00  0.00    -0.090 HD
ATOM     21  H   LIG d   1      -1.910  89.467 118.336  0.00  0.00    -0.090 HD
ENDBRANCH   5  18
BRANCH   3  22
ATOM     22  C   LIG d   1      -6.123  89.421 116.195  0.00  0.00     0.382 C 
ATOM     23  O   LIG d   1      -7.243  89.836 115.811  0.00  0.00    -0.241 OA
ATOM     24  O   LIG d   1      -5.713  88.311 115.805  0.00  0.00    -0.241 OA
ENDBRANCH   3  22
TORSDOF 7
ENDMDL
MODEL 7
REMARK VINA RESULT:      -4.4     13.520     16.208
REMARK  7 active torsions:
REMARK  status: ('A' for Active; 'I' for Inactive)
REMARK    1  A    between atoms: C_2  and  C_3 
REMARK    2  A    between atoms: C_3  and  O_6 
REMARK    3  A    between atoms: C_3  and  C_4 
REMARK    4  A    between atoms: C_7  and  O_6 
REMARK    5  A    between atoms: C_9  and  C_10 
REMARK    6  A    between atoms: N_15  and  C_14 
REMARK    7  A    between atoms: N_20  and  C_19 
REMARK       I    between atoms: C_22  and  N_20 
ROOT
ATOM      1  C   LIG d   1      -4.208  90.995 119.816  0.00  0.00     0.161 C 
ATOM      2  C   LIG d   1      -3.211  90.199 119.228  0.00  0.00     0.016 C 
ATOM      3  C   LIG d   1      -3.244  89.780 117.878  0.00  0.00     0.038 C 
ATOM      4  C   LIG d   1      -4.207  90.259 116.977  0.00  0.00     0.028 C 
ATOM      5  C   LIG d   1      -5.517  90.660 117.647  0.00  0.00    -0.047 C 
ATOM      6  C   LIG d   1      -5.208  91.619 118.820  0.00  0.00     0.091 C 
ENDROOT
BRANCH   1   7
ATOM      7  O   LIG d   1      -3.599  92.022 120.624  0.00  0.00    -0.368 OA
BRANCH   7   8
ATOM      8  C   LIG d   1      -3.272  93.259 119.943  0.00  0.00     0.119 C 
BRANCH   8   9
ATOM      9  C   LIG d   1      -1.740  93.421 119.990  0.00  0.00     0.028 C 
ATOM     10  C   LIG d   1      -1.089  93.247 118.608  0.00  0.00     0.006 C 
ENDBRANCH   8   9
BRANCH   8  11
ATOM     11  C   LIG d   1      -3.832  94.472 120.691  0.00  0.00     0.028 C 
ATOM     12  C   LIG d   1      -4.523  94.092 122.010  0.00  0.00     0.006 C 
ENDBRANCH   8  11
ENDBRANCH   7   8
ENDBRANCH   1   7
BRANCH   6  13
ATOM     13  N   LIG d   1      -6.427  91.993 119.582  0.00  0.00    -0.311 N 
ATOM     14  C   LIG d   1      -7.142  93.088 119.329  0.00  0.00     0.210 C 
ATOM     15  C   LIG d   1      -8.351  93.297 120.246  0.00  0.00     0.109 C 
ATOM     16  O   LIG d   1      -6.908  93.890 118.412  0.00  0.00    -0.276 OA
ATOM     17  H   LIG d   1      -6.707  91.383 120.324  0.00  0.00     0.149 HD
ENDBRANCH   6  13
BRANCH   5  18
ATOM     18  N   LIG d   1      -6.378  91.268 116.615  0.00  0.00     0.381 N 
ATOM     19  H   LIG d   1      -7.278  90.832 116.625  0.00  0.00    -0.090 HD
ATOM     20  H   LIG d   1      -5.963  91.112 115.713  0.00  0.00    -0.090 HD
ATOM     21  H   LIG d   1      -6.472  92.245 116.781  0.00  0.00    -0.090 HD
ENDBRANCH   5  18
BRANCH   3  22
ATOM     22  C   LIG d   1      -2.329  88.841 117.427  0.00  0.00     0.382 C 
ATOM     23  O   LIG d   1      -1.113  88.965 117.709  0.00  0.00    -0.241 OA
ATOM     24  O   LIG d   1      -2.698  87.896 116.705  0.00  0.00    -0.241 OA
ENDBRANCH   3  22
TORSDOF 7
ENDMDL
MODEL 8
REMARK VINA RESULT:      -4.4     15.269     17.327
REMARK  7 active torsions:
REMARK  status: ('A' for Active; 'I' for Inactive)
REMARK    1  A    between atoms: C_2  and  C_3 
REMARK    2  A    between atoms: C_3  and  O_6 
REMARK    3  A    between atoms: C_3  and  C_4 
REMARK    4  A    between atoms: C_7  and  O_6 
REMARK    5  A    between atoms: C_9  and  C_10 
REMARK    6  A    between atoms: N_15  and  C_14 
REMARK    7  A    between atoms: N_20  and  C_19 
REMARK       I    between atoms: C_22  and  N_20 
ROOT
ATOM      1  C   LIG d   1      -0.914  92.490 118.324  0.00  0.00     0.161 C 
ATOM      2  C   LIG d   1       0.232  91.806 117.889  0.00  0.00     0.016 C 
ATOM      3  C   LIG d   1       1.548  92.283 118.091  0.00  0.00     0.038 C 
ATOM      4  C   LIG d   1       1.813  93.412 118.881  0.00  0.00     0.028 C 
ATOM      5  C   LIG d   1       0.663  94.412 118.914  0.00  0.00    -0.047 C 
ATOM      6  C   LIG d   1      -0.640  93.667 119.284  0.00  0.00     0.091 C 
ENDROOT
BRANCH   1   7
ATOM      7  O   LIG d   1      -1.841  91.562 118.921  0.00  0.00    -0.368 OA
BRANCH   7   8
ATOM      8  C   LIG d   1      -3.094  91.371 118.219  0.00  0.00     0.119 C 
BRANCH   8   9
ATOM      9  C   LIG d   1      -4.223  91.863 119.145  0.00  0.00     0.028 C 
ATOM     10  C   LIG d   1      -3.843  91.774 120.633  0.00  0.00     0.006 C 
ENDBRANCH   8   9
BRANCH   8  11
ATOM     11  C   LIG d   1      -3.381  89.885 117.984  0.00  0.00     0.028 C 
ATOM     12  C   LIG d   1      -2.330  88.967 118.628  0.00  0.00     0.006 C 
ENDBRANCH   8  11
ENDBRANCH   7   8
ENDBRANCH   1   7
BRANCH   6  13
ATOM     13  N   LIG d   1      -1.830  94.557 119.256  0.00  0.00    -0.311 N 
ATOM     14  C   LIG d   1      -2.318  95.161 120.338  0.00  0.00     0.210 C 
ATOM     15  C   LIG d   1      -3.563  96.019 120.092  0.00  0.00     0.109 C 
ATOM     16  O   LIG d   1      -1.820  95.094 121.472  0.00  0.00    -0.276 OA
ATOM     17  H   LIG d   1      -2.278  94.692 118.371  0.00  0.00     0.149 HD
ENDBRANCH   6  13
BRANCH   5  18
ATOM     18  N   LIG d   1       1.019  95.468 119.880  0.00  0.00     0.381 N 
ATOM     19  H   LIG d   1       1.866  95.224 120.352  0.00  0.00    -0.090 HD
ATOM     20  H   LIG d   1       0.287  95.543 120.565  0.00  0.00    -0.090 HD
ATOM     21  H   LIG d   1       1.131  96.338 119.408  0.00  0.00    -0.090 HD
ENDBRANCH   5  18
BRANCH   3  22
ATOM     22  C   LIG d   1       2.612  91.651 117.466  0.00  0.00     0.382 C 
ATOM     23  O   LIG d   1       3.557  92.331 116.998  0.00  0.00    -0.241 OA
ATOM     24  O   LIG d   1       2.618  90.414 117.326  0.00  0.00    -0.241 OA
ENDBRANCH   3  22
TORSDOF 7
ENDMDL
MODEL 9
REMARK VINA RESULT:      -4.4     13.580     15.914
REMARK  7 active torsions:
REMARK  status: ('A' for Active; 'I' for Inactive)
REMARK    1  A    between atoms: C_2  and  C_3 
REMARK    2  A    between atoms: C_3  and  O_6 
REMARK    3  A    between atoms: C_3  and  C_4 
REMARK    4  A    between atoms: C_7  and  O_6 
REMARK    5  A    between atoms: C_9  and  C_10 
REMARK    6  A    between atoms: N_15  and  C_14 
REMARK    7  A    between atoms: N_20  and  C_19 
REMARK       I    between atoms: C_22  and  N_20 
ROOT
ATOM      1  C   LIG d   1      -4.046  91.157 119.072  0.00  0.00     0.161 C 
ATOM      2  C   LIG d   1      -5.095  90.749 118.231  0.00  0.00     0.016 C 
ATOM      3  C   LIG d   1      -4.913  89.897 117.117  0.00  0.00     0.038 C 
ATOM      4  C   LIG d   1      -3.687  89.268 116.857  0.00  0.00     0.028 C 
ATOM      5  C   LIG d   1      -2.484  90.045 117.382  0.00  0.00    -0.047 C 
ATOM      6  C   LIG d   1      -2.721  90.392 118.869  0.00  0.00     0.091 C 
ENDROOT
BRANCH   1   7
ATOM      7  O   LIG d   1      -4.465  91.078 120.448  0.00  0.00    -0.368 OA
BRANCH   7   8
ATOM      8  C   LIG d   1      -4.722  92.341 121.110  0.00  0.00     0.119 C 
BRANCH   8   9
ATOM      9  C   LIG d   1      -6.251  92.500 121.224  0.00  0.00     0.028 C 
ATOM     10  C   LIG d   1      -6.818  93.484 120.188  0.00  0.00     0.006 C 
ENDBRANCH   8   9
BRANCH   8  11
ATOM     11  C   LIG d   1      -4.255  93.523 120.255  0.00  0.00     0.028 C 
ATOM     12  C   LIG d   1      -3.081  94.287 120.888  0.00  0.00     0.006 C 
ENDBRANCH   8  11
ENDBRANCH   7   8
ENDBRANCH   1   7
BRANCH   6  13
ATOM     13  N   LIG d   1      -1.629  91.225 119.438  0.00  0.00    -0.311 N 
ATOM     14  C   LIG d   1      -0.586  90.719 120.093  0.00  0.00     0.210 C 
ATOM     15  C   LIG d   1       0.414  91.756 120.614  0.00  0.00     0.109 C 
ATOM     16  O   LIG d   1      -0.378  89.509 120.265  0.00  0.00    -0.276 OA
ATOM     17  H   LIG d   1      -1.702  92.217 119.317  0.00  0.00     0.149 HD
ENDBRANCH   6  13
BRANCH   5  18
ATOM     18  N   LIG d   1      -1.286  89.212 117.166  0.00  0.00     0.381 N 
ATOM     19  H   LIG d   1      -1.556  88.256 117.047  0.00  0.00    -0.090 HD
ATOM     20  H   LIG d   1      -0.696  89.275 117.977  0.00  0.00    -0.090 HD
ATOM     21  H   LIG d   1      -0.792  89.528 116.361  0.00  0.00    -0.090 HD
ENDBRANCH   5  18
BRANCH   3  22
ATOM     22  C   LIG d   1      -5.958  89.698 116.227  0.00  0.00     0.382 C 
ATOM     23  O   LIG d   1      -6.210  88.543 115.805  0.00  0.00    -0.241 OA
ATOM     24  O   LIG d   1      -6.622  90.663 115.807  0.00  0.00    -0.241 OA
ENDBRANCH   3  22
TORSDOF 7
ENDMDL
