MODEL 1
REMARK VINA RESULT:      -5.4      0.000      0.000
REMARK  7 active torsions:
REMARK  status: ('A' for Active; 'I' for Inactive)
REMARK    1  A    between atoms: C_2  and  C_3 
REMARK    2  A    between atoms: C_3  and  O_6 
REMARK    3  A    between atoms: C_3  and  C_4 
REMARK    4  A    between atoms: C_7  and  O_6 
REMARK    5  A    between atoms: C_9  and  C_10 
REMARK    6  A    between atoms: N_15  and  C_14 
REMARK    7  A    between atoms: N_20  and  C_19 
REMARK       I    between atoms: C_22  and  N_20 
ROOT
ATOM      1  C   LIG d   1      -6.403  75.321 116.908  0.00  0.00     0.161 C 
ATOM      2  C   LIG d   1      -5.118  74.921 116.506  0.00  0.00     0.016 C 
ATOM      3  C   LIG d   1      -3.930  75.510 116.997  0.00  0.00     0.038 C 
ATOM      4  C   LIG d   1      -3.943  76.442 118.045  0.00  0.00     0.028 C 
ATOM      5  C   LIG d   1      -5.240  77.241 118.129  0.00  0.00    -0.047 C 
ATOM      6  C   LIG d   1      -6.434  76.260 118.133  0.00  0.00     0.091 C 
ENDROOT
BRANCH   1   7
ATOM      7  O   LIG d   1      -7.224  74.161 117.146  0.00  0.00    -0.368 OA
BRANCH   7   8
ATOM      8  C   LIG d   1      -8.200  73.849 116.122  0.00  0.00     0.119 C 
BRANCH   8   9
ATOM      9  C   LIG d   1      -9.567  74.360 116.614  0.00  0.00     0.028 C 
ATOM     10  C   LIG d   1     -10.652  73.271 116.571  0.00  0.00     0.006 C 
ENDBRANCH   8   9
BRANCH   8  11
ATOM     11  C   LIG d   1      -8.369  72.336 115.954  0.00  0.00     0.028 C 
ATOM     12  C   LIG d   1      -7.032  71.579 116.000  0.00  0.00     0.006 C 
ENDBRANCH   8  11
ENDBRANCH   7   8
ENDBRANCH   1   7
BRANCH   6  13
ATOM     13  N   LIG d   1      -7.744  76.962 118.128  0.00  0.00    -0.311 N 
ATOM     14  C   LIG d   1      -8.432  77.238 119.235  0.00  0.00     0.210 C 
ATOM     15  C   LIG d   1      -9.769  77.950 119.005  0.00  0.00     0.109 C 
ATOM     16  O   LIG d   1      -8.047  76.989 120.387  0.00  0.00    -0.276 OA
ATOM     17  H   LIG d   1      -8.116  77.228 117.237  0.00  0.00     0.149 HD
ENDBRANCH   6  13
BRANCH   5  18
ATOM     18  N   LIG d   1      -5.172  78.074 119.345  0.00  0.00     0.381 N 
ATOM     19  H   LIG d   1      -4.646  77.600 120.052  0.00  0.00    -0.090 HD
ATOM     20  H   LIG d   1      -6.104  78.222 119.690  0.00  0.00    -0.090 HD
ATOM     21  H   LIG d   1      -4.745  78.950 119.135  0.00  0.00    -0.090 HD
ENDBRANCH   5  18
BRANCH   3  22
ATOM     22  C   LIG d   1      -2.714  75.195 116.411  0.00  0.00     0.382 C 
ATOM     23  O   LIG d   1      -1.873  76.099 116.187  0.00  0.00    -0.241 OA
ATOM     24  O   LIG d   1      -2.464  74.026 116.062  0.00  0.00    -0.241 OA
ENDBRANCH   3  22
TORSDOF 7
ENDMDL
MODEL 2
REMARK VINA RESULT:      -5.4     14.949     17.666
REMARK  7 active torsions:
REMARK  status: ('A' for Active; 'I' for Inactive)
REMARK    1  A    between atoms: C_2  and  C_3 
REMARK    2  A    between atoms: C_3  and  O_6 
REMARK    3  A    between atoms: C_3  and  C_4 
REMARK    4  A    between atoms: C_7  and  O_6 
REMARK    5  A    between atoms: C_9  and  C_10 
REMARK    6  A    between atoms: N_15  and  C_14 
REMARK    7  A    between atoms: N_20  and  C_19 
REMARK       I    between atoms: C_22  and  N_20 
ROOT
ATOM      1  C   LIG d   1      -4.609  92.381 118.710  0.00  0.00     0.161 C 
ATOM      2  C   LIG d   1      -5.839  93.059 118.669  0.00  0.00     0.016 C 
ATOM      3  C   LIG d   1      -6.871  92.744 117.755  0.00  0.00     0.038 C 
ATOM      4  C   LIG d   1      -6.801  91.622 116.916  0.00  0.00     0.028 C 
ATOM      5  C   LIG d   1      -5.373  91.213 116.570  0.00  0.00    -0.047 C 
ATOM      6  C   LIG d   1      -4.558  91.084 117.877  0.00  0.00     0.091 C 
ENDROOT
BRANCH   1   7
ATOM      7  O   LIG d   1      -4.245  92.113 120.078  0.00  0.00    -0.368 OA
BRANCH   7   8
ATOM      8  C   LIG d   1      -3.082  92.817 120.578  0.00  0.00     0.119 C 
BRANCH   8   9
ATOM      9  C   LIG d   1      -2.521  93.665 119.420  0.00  0.00     0.028 C 
ATOM     10  C   LIG d   1      -1.023  93.412 119.180  0.00  0.00     0.006 C 
ENDBRANCH   8   9
BRANCH   8  11
ATOM     11  C   LIG d   1      -1.959  91.845 120.950  0.00  0.00     0.028 C 
ATOM     12  C   LIG d   1      -2.481  90.545 121.582  0.00  0.00     0.006 C 
ENDBRANCH   8  11
ENDBRANCH   7   8
ENDBRANCH   1   7
BRANCH   6  13
ATOM     13  N   LIG d   1      -3.128  90.768 117.624  0.00  0.00    -0.311 N 
ATOM     14  C   LIG d   1      -2.553  89.625 117.993  0.00  0.00     0.210 C 
ATOM     15  C   LIG d   1      -1.063  89.511 117.653  0.00  0.00     0.109 C 
ATOM     16  O   LIG d   1      -3.142  88.681 118.541  0.00  0.00    -0.276 OA
ATOM     17  H   LIG d   1      -2.583  91.466 117.156  0.00  0.00     0.149 HD
ENDBRANCH   6  13
BRANCH   5  18
ATOM     18  N   LIG d   1      -5.443  89.953 115.805  0.00  0.00     0.381 N 
ATOM     19  H   LIG d   1      -4.534  89.712 115.465  0.00  0.00    -0.090 HD
ATOM     20  H   LIG d   1      -6.050  90.086 115.015  0.00  0.00    -0.090 HD
ATOM     21  H   LIG d   1      -5.794  89.222 116.384  0.00  0.00    -0.090 HD
ENDBRANCH   5  18
BRANCH   3  22
ATOM     22  C   LIG d   1      -7.973  93.579 117.648  0.00  0.00     0.382 C 
ATOM     23  O   LIG d   1      -8.681  93.553 116.612  0.00  0.00    -0.241 OA
ATOM     24  O   LIG d   1      -8.242  94.389 118.555  0.00  0.00    -0.241 OA
ENDBRANCH   3  22
TORSDOF 7
ENDMDL
MODEL 3
REMARK VINA RESULT:      -5.3     15.447     17.869
REMARK  7 active torsions:
REMARK  status: ('A' for Active; 'I' for Inactive)
REMARK    1  A    between atoms: C_2  and  C_3 
REMARK    2  A    between atoms: C_3  and  O_6 
REMARK    3  A    between atoms: C_3  and  C_4 
REMARK    4  A    between atoms: C_7  and  O_6 
REMARK    5  A    between atoms: C_9  and  C_10 
REMARK    6  A    between atoms: N_15  and  C_14 
REMARK    7  A    between atoms: N_20  and  C_19 
REMARK       I    between atoms: C_22  and  N_20 
ROOT
ATOM      1  C   LIG d   1      -5.098  92.184 118.582  0.00  0.00     0.161 C 
ATOM      2  C   LIG d   1      -6.383  92.544 118.143  0.00  0.00     0.016 C 
ATOM      3  C   LIG d   1      -6.995  93.779 118.458  0.00  0.00     0.038 C 
ATOM      4  C   LIG d   1      -6.299  94.807 119.111  0.00  0.00     0.028 C 
ATOM      5  C   LIG d   1      -5.177  94.301 120.012  0.00  0.00    -0.047 C 
ATOM      6  C   LIG d   1      -4.280  93.337 119.202  0.00  0.00     0.091 C 
ENDROOT
BRANCH   1   7
ATOM      7  O   LIG d   1      -4.364  91.575 117.501  0.00  0.00    -0.368 OA
BRANCH   7   8
ATOM      8  C   LIG d   1      -4.491  90.138 117.375  0.00  0.00     0.119 C 
BRANCH   8   9
ATOM      9  C   LIG d   1      -3.084  89.533 117.547  0.00  0.00     0.028 C 
ATOM     10  C   LIG d   1      -2.759  89.209 119.015  0.00  0.00     0.006 C 
ENDBRANCH   8   9
BRANCH   8  11
ATOM     11  C   LIG d   1      -4.934  89.738 115.965  0.00  0.00     0.028 C 
ATOM     12  C   LIG d   1      -6.462  89.643 115.825  0.00  0.00     0.006 C 
ENDBRANCH   8  11
ENDBRANCH   7   8
ENDBRANCH   1   7
BRANCH   6  13
ATOM     13  N   LIG d   1      -3.206  92.730 120.032  0.00  0.00    -0.311 N 
ATOM     14  C   LIG d   1      -1.911  92.817 119.733  0.00  0.00     0.210 C 
ATOM     15  C   LIG d   1      -0.972  92.104 120.711  0.00  0.00     0.109 C 
ATOM     16  O   LIG d   1      -1.449  93.444 118.768  0.00  0.00    -0.276 OA
ATOM     17  H   LIG d   1      -3.491  92.229 120.851  0.00  0.00     0.149 HD
ENDBRANCH   6  13
BRANCH   5  18
ATOM     18  N   LIG d   1      -4.449  95.478 120.521  0.00  0.00     0.381 N 
ATOM     19  H   LIG d   1      -5.066  96.264 120.568  0.00  0.00    -0.090 HD
ATOM     20  H   LIG d   1      -3.704  95.700 119.884  0.00  0.00    -0.090 HD
ATOM     21  H   LIG d   1      -4.077  95.284 121.425  0.00  0.00    -0.090 HD
ENDBRANCH   5  18
BRANCH   3  22
ATOM     22  C   LIG d   1      -8.332  93.980 118.152  0.00  0.00     0.382 C 
ATOM     23  O   LIG d   1      -9.154  94.227 119.067  0.00  0.00    -0.241 OA
ATOM     24  O   LIG d   1      -8.735  93.874 116.978  0.00  0.00    -0.241 OA
ENDBRANCH   3  22
TORSDOF 7
ENDMDL
MODEL 4
REMARK VINA RESULT:      -5.3      1.988      5.035
REMARK  7 active torsions:
REMARK  status: ('A' for Active; 'I' for Inactive)
REMARK    1  A    between atoms: C_2  and  C_3 
REMARK    2  A    between atoms: C_3  and  O_6 
REMARK    3  A    between atoms: C_3  and  C_4 
REMARK    4  A    between atoms: C_7  and  O_6 
REMARK    5  A    between atoms: C_9  and  C_10 
REMARK    6  A    between atoms: N_15  and  C_14 
REMARK    7  A    between atoms: N_20  and  C_19 
REMARK       I    between atoms: C_22  and  N_20 
ROOT
ATOM      1  C   LIG d   1      -7.864  76.324 117.366  0.00  0.00     0.161 C 
ATOM      2  C   LIG d   1      -8.907  76.938 118.079  0.00  0.00     0.016 C 
ATOM      3  C   LIG d   1      -8.920  78.313 118.408  0.00  0.00     0.038 C 
ATOM      4  C   LIG d   1      -7.956  79.203 117.913  0.00  0.00     0.028 C 
ATOM      5  C   LIG d   1      -6.616  78.540 117.613  0.00  0.00    -0.047 C 
ATOM      6  C   LIG d   1      -6.858  77.300 116.722  0.00  0.00     0.091 C 
ENDROOT
BRANCH   1   7
ATOM      7  O   LIG d   1      -8.409  75.436 116.370  0.00  0.00    -0.368 OA
BRANCH   7   8
ATOM      8  C   LIG d   1      -8.372  74.023 116.687  0.00  0.00     0.119 C 
BRANCH   8   9
ATOM      9  C   LIG d   1      -7.285  73.379 115.805  0.00  0.00     0.028 C 
ATOM     10  C   LIG d   1      -7.327  71.842 115.849  0.00  0.00     0.006 C 
ENDBRANCH   8   9
BRANCH   8  11
ATOM     11  C   LIG d   1      -9.679  73.329 116.291  0.00  0.00     0.028 C 
ATOM     12  C   LIG d   1     -10.918  73.992 116.912  0.00  0.00     0.006 C 
ENDBRANCH   8  11
ENDBRANCH   7   8
ENDBRANCH   1   7
BRANCH   6  13
ATOM     13  N   LIG d   1      -5.608  76.544 116.450  0.00  0.00    -0.311 N 
ATOM     14  C   LIG d   1      -4.757  76.168 117.404  0.00  0.00     0.210 C 
ATOM     15  C   LIG d   1      -3.519  75.415 116.905  0.00  0.00     0.109 C 
ATOM     16  O   LIG d   1      -4.926  76.358 118.618  0.00  0.00    -0.276 OA
ATOM     17  H   LIG d   1      -5.408  76.321 115.495  0.00  0.00     0.149 HD
ENDBRANCH   6  13
BRANCH   5  18
ATOM     18  N   LIG d   1      -5.751  79.550 116.976  0.00  0.00     0.381 N 
ATOM     19  H   LIG d   1      -6.314  80.221 116.491  0.00  0.00    -0.090 HD
ATOM     20  H   LIG d   1      -5.157  79.094 116.305  0.00  0.00    -0.090 HD
ATOM     21  H   LIG d   1      -5.195  80.008 117.665  0.00  0.00    -0.090 HD
ENDBRANCH   5  18
BRANCH   3  22
ATOM     22  C   LIG d   1      -9.884  78.802 119.276  0.00  0.00     0.382 C 
ATOM     23  O   LIG d   1     -10.555  78.010 119.980  0.00  0.00    -0.241 OA
ATOM     24  O   LIG d   1     -10.123  80.024 119.331  0.00  0.00    -0.241 OA
ENDBRANCH   3  22
TORSDOF 7
ENDMDL
MODEL 5
REMARK VINA RESULT:      -5.3      2.335      5.501
REMARK  7 active torsions:
REMARK  status: ('A' for Active; 'I' for Inactive)
REMARK    1  A    between atoms: C_2  and  C_3 
REMARK    2  A    between atoms: C_3  and  O_6 
REMARK    3  A    between atoms: C_3  and  C_4 
REMARK    4  A    between atoms: C_7  and  O_6 
REMARK    5  A    between atoms: C_9  and  C_10 
REMARK    6  A    between atoms: N_15  and  C_14 
REMARK    7  A    between atoms: N_20  and  C_19 
REMARK       I    between atoms: C_22  and  N_20 
ROOT
ATOM      1  C   LIG d   1      -7.778  75.935 116.456  0.00  0.00     0.161 C 
ATOM      2  C   LIG d   1      -8.920  75.123 116.552  0.00  0.00     0.016 C 
ATOM      3  C   LIG d   1      -8.872  73.710 116.560  0.00  0.00     0.038 C 
ATOM      4  C   LIG d   1      -7.658  73.010 116.624  0.00  0.00     0.028 C 
ATOM      5  C   LIG d   1      -6.485  73.774 116.020  0.00  0.00    -0.047 C 
ATOM      6  C   LIG d   1      -6.438  75.191 116.637  0.00  0.00     0.091 C 
ENDROOT
BRANCH   1   7
ATOM      7  O   LIG d   1      -7.875  77.027 117.391  0.00  0.00    -0.368 OA
BRANCH   7   8
ATOM      8  C   LIG d   1      -8.665  76.780 118.580  0.00  0.00     0.119 C 
BRANCH   8   9
ATOM      9  C   LIG d   1      -9.632  77.968 118.748  0.00  0.00     0.028 C 
ATOM     10  C   LIG d   1      -9.064  79.274 118.168  0.00  0.00     0.006 C 
ENDBRANCH   8   9
BRANCH   8  11
ATOM     11  C   LIG d   1      -7.793  76.786 119.839  0.00  0.00     0.028 C 
ATOM     12  C   LIG d   1      -7.225  75.398 120.176  0.00  0.00     0.006 C 
ENDBRANCH   8  11
ENDBRANCH   7   8
ENDBRANCH   1   7
BRANCH   6  13
ATOM     13  N   LIG d   1      -5.371  76.034 116.040  0.00  0.00    -0.311 N 
ATOM     14  C   LIG d   1      -4.344  76.520 116.736  0.00  0.00     0.210 C 
ATOM     15  C   LIG d   1      -3.367  77.383 115.931  0.00  0.00     0.109 C 
ATOM     16  O   LIG d   1      -4.132  76.291 117.936  0.00  0.00    -0.276 OA
ATOM     17  H   LIG d   1      -5.447  76.243 115.063  0.00  0.00     0.149 HD
ENDBRANCH   6  13
BRANCH   5  18
ATOM     18  N   LIG d   1      -5.262  72.991 116.278  0.00  0.00     0.381 N 
ATOM     19  H   LIG d   1      -5.163  72.279 115.583  0.00  0.00    -0.090 HD
ATOM     20  H   LIG d   1      -5.345  72.545 117.175  0.00  0.00    -0.090 HD
ATOM     21  H   LIG d   1      -4.465  73.589 116.268  0.00  0.00    -0.090 HD
ENDBRANCH   5  18
BRANCH   3  22
ATOM     22  C   LIG d   1     -10.048  72.982 116.462  0.00  0.00     0.382 C 
ATOM     23  O   LIG d   1     -10.004  71.739 116.294  0.00  0.00    -0.241 OA
ATOM     24  O   LIG d   1     -11.152  73.557 116.495  0.00  0.00    -0.241 OA
ENDBRANCH   3  22
TORSDOF 7
ENDMDL
MODEL 6
REMARK VINA RESULT:      -5.3     14.983     17.065
REMARK  7 active torsions:
REMARK  status: ('A' for Active; 'I' for Inactive)
REMARK    1  A    between atoms: C_2  and  C_3 
REMARK    2  A    between atoms: C_3  and  O_6 
REMARK    3  A    between atoms: C_3  and  C_4 
REMARK    4  A    between atoms: C_7  and  O_6 
REMARK    5  A    between atoms: C_9  and  C_10 
REMARK    6  A    between atoms: N_15  and  C_14 
REMARK    7  A    between atoms: N_20  and  C_19 
REMARK       I    between atoms: C_22  and  N_20 
ROOT
ATOM      1  C   LIG d   1      -3.888  91.185 118.137  0.00  0.00     0.161 C 
ATOM      2  C   LIG d   1      -4.708  90.423 117.288  0.00  0.00     0.016 C 
ATOM      3  C   LIG d   1      -5.981  90.850 116.847  0.00  0.00     0.038 C 
ATOM      4  C   LIG d   1      -6.460  92.143 117.104  0.00  0.00     0.028 C 
ATOM      5  C   LIG d   1      -5.887  92.759 118.376  0.00  0.00    -0.047 C 
ATOM      6  C   LIG d   1      -4.346  92.645 118.339  0.00  0.00     0.091 C 
ENDROOT
BRANCH   1   7
ATOM      7  O   LIG d   1      -2.527  91.147 117.665  0.00  0.00    -0.368 OA
BRANCH   7   8
ATOM      8  C   LIG d   1      -1.586  90.417 118.490  0.00  0.00     0.119 C 
BRANCH   8   9
ATOM      9  C   LIG d   1      -0.863  89.404 117.582  0.00  0.00     0.028 C 
ATOM     10  C   LIG d   1       0.478  89.941 117.054  0.00  0.00     0.006 C 
ENDBRANCH   8   9
BRANCH   8  11
ATOM     11  C   LIG d   1      -2.308  89.573 119.545  0.00  0.00     0.028 C 
ATOM     12  C   LIG d   1      -1.706  89.731 120.950  0.00  0.00     0.006 C 
ENDBRANCH   8  11
ENDBRANCH   7   8
ENDBRANCH   1   7
BRANCH   6  13
ATOM     13  N   LIG d   1      -3.710  93.148 119.584  0.00  0.00    -0.311 N 
ATOM     14  C   LIG d   1      -2.766  94.088 119.597  0.00  0.00     0.210 C 
ATOM     15  C   LIG d   1      -2.230  94.447 120.987  0.00  0.00     0.109 C 
ATOM     16  O   LIG d   1      -2.346  94.682 118.593  0.00  0.00    -0.276 OA
ATOM     17  H   LIG d   1      -4.014  92.743 120.448  0.00  0.00     0.149 HD
ENDBRANCH   6  13
BRANCH   5  18
ATOM     18  N   LIG d   1      -6.362  94.154 118.449  0.00  0.00     0.381 N 
ATOM     19  H   LIG d   1      -5.585  94.780 118.378  0.00  0.00    -0.090 HD
ATOM     20  H   LIG d   1      -6.804  94.300 119.340  0.00  0.00    -0.090 HD
ATOM     21  H   LIG d   1      -7.011  94.332 117.715  0.00  0.00    -0.090 HD
ENDBRANCH   5  18
BRANCH   3  22
ATOM     22  C   LIG d   1      -6.807  89.964 116.172  0.00  0.00     0.382 C 
ATOM     23  O   LIG d   1      -8.009  90.261 115.965  0.00  0.00    -0.241 OA
ATOM     24  O   LIG d   1      -6.378  88.854 115.806  0.00  0.00    -0.241 OA
ENDBRANCH   3  22
TORSDOF 7
ENDMDL
MODEL 7
REMARK VINA RESULT:      -5.1     15.590     18.046
REMARK  7 active torsions:
REMARK  status: ('A' for Active; 'I' for Inactive)
REMARK    1  A    between atoms: C_2  and  C_3 
REMARK    2  A    between atoms: C_3  and  O_6 
REMARK    3  A    between atoms: C_3  and  C_4 
REMARK    4  A    between atoms: C_7  and  O_6 
REMARK    5  A    between atoms: C_9  and  C_10 
REMARK    6  A    between atoms: N_15  and  C_14 
REMARK    7  A    between atoms: N_20  and  C_19 
REMARK       I    between atoms: C_22  and  N_20 
ROOT
ATOM      1  C   LIG d   1      -5.984  92.844 118.456  0.00  0.00     0.161 C 
ATOM      2  C   LIG d   1      -6.654  91.827 117.755  0.00  0.00     0.016 C 
ATOM      3  C   LIG d   1      -5.987  90.778 117.082  0.00  0.00     0.038 C 
ATOM      4  C   LIG d   1      -4.602  90.588 117.191  0.00  0.00     0.028 C 
ATOM      5  C   LIG d   1      -3.834  91.876 117.470  0.00  0.00    -0.047 C 
ATOM      6  C   LIG d   1      -4.478  92.592 118.680  0.00  0.00     0.091 C 
ENDROOT
BRANCH   1   7
ATOM      7  O   LIG d   1      -6.644  93.086 119.714  0.00  0.00    -0.368 OA
BRANCH   7   8
ATOM      8  C   LIG d   1      -7.751  94.021 119.684  0.00  0.00     0.119 C 
BRANCH   8   9
ATOM      9  C   LIG d   1      -7.162  95.440 119.799  0.00  0.00     0.028 C 
ATOM     10  C   LIG d   1      -7.511  96.320 118.588  0.00  0.00     0.006 C 
ENDBRANCH   8   9
BRANCH   8  11
ATOM     11  C   LIG d   1      -8.654  93.855 120.910  0.00  0.00     0.028 C 
ATOM     12  C   LIG d   1     -10.134  94.132 120.603  0.00  0.00     0.006 C 
ENDBRANCH   8  11
ENDBRANCH   7   8
ENDBRANCH   1   7
BRANCH   6  13
ATOM     13  N   LIG d   1      -3.841  93.903 118.968  0.00  0.00    -0.311 N 
ATOM     14  C   LIG d   1      -3.311  94.217 120.149  0.00  0.00     0.210 C 
ATOM     15  C   LIG d   1      -2.723  95.629 120.239  0.00  0.00     0.109 C 
ATOM     16  O   LIG d   1      -3.245  93.450 121.121  0.00  0.00    -0.276 OA
ATOM     17  H   LIG d   1      -3.823  94.575 118.225  0.00  0.00     0.149 HD
ENDBRANCH   6  13
BRANCH   5  18
ATOM     18  N   LIG d   1      -2.423  91.514 117.697  0.00  0.00     0.381 N 
ATOM     19  H   LIG d   1      -2.296  90.534 117.543  0.00  0.00    -0.090 HD
ATOM     20  H   LIG d   1      -2.185  91.716 118.652  0.00  0.00    -0.090 HD
ATOM     21  H   LIG d   1      -1.834  92.033 117.084  0.00  0.00    -0.090 HD
ENDBRANCH   5  18
BRANCH   3  22
ATOM     22  C   LIG d   1      -6.705  89.927 116.255  0.00  0.00     0.382 C 
ATOM     23  O   LIG d   1      -7.906  90.176 115.990  0.00  0.00    -0.241 OA
ATOM     24  O   LIG d   1      -6.180  88.889 115.808  0.00  0.00    -0.241 OA
ENDBRANCH   3  22
TORSDOF 7
ENDMDL
MODEL 8
REMARK VINA RESULT:      -4.9      1.992      5.046
REMARK  7 active torsions:
REMARK  status: ('A' for Active; 'I' for Inactive)
REMARK    1  A    between atoms: C_2  and  C_3 
REMARK    2  A    between atoms: C_3  and  O_6 
REMARK    3  A    between atoms: C_3  and  C_4 
REMARK    4  A    between atoms: C_7  and  O_6 
REMARK    5  A    between atoms: C_9  and  C_10 
REMARK    6  A    between atoms: N_15  and  C_14 
REMARK    7  A    between atoms: N_20  and  C_19 
REMARK       I    between atoms: C_22  and  N_20 
ROOT
ATOM      1  C   LIG d   1      -6.074  75.254 116.820  0.00  0.00     0.161 C 
ATOM      2  C   LIG d   1      -6.495  74.000 116.346  0.00  0.00     0.016 C 
ATOM      3  C   LIG d   1      -7.837  73.559 116.396  0.00  0.00     0.038 C 
ATOM      4  C   LIG d   1      -8.882  74.408 116.789  0.00  0.00     0.028 C 
ATOM      5  C   LIG d   1      -8.441  75.508 117.749  0.00  0.00    -0.047 C 
ATOM      6  C   LIG d   1      -7.217  76.237 117.149  0.00  0.00     0.091 C 
ENDROOT
BRANCH   1   7
ATOM      7  O   LIG d   1      -5.157  75.848 115.881  0.00  0.00    -0.368 OA
BRANCH   7   8
ATOM      8  C   LIG d   1      -3.783  75.974 116.324  0.00  0.00     0.119 C 
BRANCH   8   9
ATOM      9  C   LIG d   1      -3.048  74.679 115.925  0.00  0.00     0.028 C 
ATOM     10  C   LIG d   1      -2.157  74.138 117.055  0.00  0.00     0.006 C 
ENDBRANCH   8   9
BRANCH   8  11
ATOM     11  C   LIG d   1      -3.694  76.036 117.851  0.00  0.00     0.028 C 
ATOM     12  C   LIG d   1      -3.128  77.371 118.361  0.00  0.00     0.006 C 
ENDBRANCH   8  11
ENDBRANCH   7   8
ENDBRANCH   1   7
BRANCH   6  13
ATOM     13  N   LIG d   1      -6.670  77.273 118.063  0.00  0.00    -0.311 N 
ATOM     14  C   LIG d   1      -7.030  78.554 118.019  0.00  0.00     0.210 C 
ATOM     15  C   LIG d   1      -6.329  79.459 119.038  0.00  0.00     0.109 C 
ATOM     16  O   LIG d   1      -7.886  79.022 117.253  0.00  0.00    -0.276 OA
ATOM     17  H   LIG d   1      -5.992  76.974 118.737  0.00  0.00     0.149 HD
ENDBRANCH   6  13
BRANCH   5  18
ATOM     18  N   LIG d   1      -9.596  76.400 117.966  0.00  0.00     0.381 N 
ATOM     19  H   LIG d   1     -10.421  75.854 118.117  0.00  0.00    -0.090 HD
ATOM     20  H   LIG d   1      -9.733  76.960 117.144  0.00  0.00    -0.090 HD
ATOM     21  H   LIG d   1      -9.429  76.987 118.753  0.00  0.00    -0.090 HD
ENDBRANCH   5  18
BRANCH   3  22
ATOM     22  C   LIG d   1      -8.140  72.241 116.089  0.00  0.00     0.382 C 
ATOM     23  O   LIG d   1      -7.220  71.436 115.805  0.00  0.00    -0.241 OA
ATOM     24  O   LIG d   1      -9.324  71.858 116.048  0.00  0.00    -0.241 OA
ENDBRANCH   3  22
TORSDOF 7
ENDMDL
MODEL 9
REMARK VINA RESULT:      -4.6      2.775      6.028
REMARK  7 active torsions:
REMARK  status: ('A' for Active; 'I' for Inactive)
REMARK    1  A    between atoms: C_2  and  C_3 
REMARK    2  A    between atoms: C_3  and  O_6 
REMARK    3  A    between atoms: C_3  and  C_4 
REMARK    4  A    between atoms: C_7  and  O_6 
REMARK    5  A    between atoms: C_9  and  C_10 
REMARK    6  A    between atoms: N_15  and  C_14 
REMARK    7  A    between atoms: N_20  and  C_19 
REMARK       I    between atoms: C_22  and  N_20 
ROOT
ATOM      1  C   LIG d   1      -8.738  77.323 117.731  0.00  0.00     0.161 C 
ATOM      2  C   LIG d   1      -9.715  76.315 117.697  0.00  0.00     0.016 C 
ATOM      3  C   LIG d   1      -9.479  75.018 117.186  0.00  0.00     0.038 C 
ATOM      4  C   LIG d   1      -8.196  74.592 116.809  0.00  0.00     0.028 C 
ATOM      5  C   LIG d   1      -7.290  75.731 116.353  0.00  0.00    -0.047 C 
ATOM      6  C   LIG d   1      -7.303  76.843 117.426  0.00  0.00     0.091 C 
ENDROOT
BRANCH   1   7
ATOM      7  O   LIG d   1      -8.780  78.003 119.001  0.00  0.00    -0.368 OA
BRANCH   7   8
ATOM      8  C   LIG d   1      -9.717  79.103 119.104  0.00  0.00     0.119 C 
BRANCH   8   9
ATOM      9  C   LIG d   1      -9.122  80.293 118.329  0.00  0.00     0.028 C 
ATOM     10  C   LIG d   1     -10.200  81.130 117.619  0.00  0.00     0.006 C 
ENDBRANCH   8   9
BRANCH   8  11
ATOM     11  C   LIG d   1      -9.850  79.587 120.551  0.00  0.00     0.028 C 
ATOM     12  C   LIG d   1      -9.325  78.565 121.572  0.00  0.00     0.006 C 
ENDBRANCH   8  11
ENDBRANCH   7   8
ENDBRANCH   1   7
BRANCH   6  13
ATOM     13  N   LIG d   1      -6.508  78.032 117.021  0.00  0.00    -0.311 N 
ATOM     14  C   LIG d   1      -5.549  78.564 117.776  0.00  0.00     0.210 C 
ATOM     15  C   LIG d   1      -4.866  79.799 117.179  0.00  0.00     0.109 C 
ATOM     16  O   LIG d   1      -5.177  78.112 118.870  0.00  0.00    -0.276 OA
ATOM     17  H   LIG d   1      -6.723  78.443 116.134  0.00  0.00     0.149 HD
ENDBRANCH   6  13
BRANCH   5  18
ATOM     18  N   LIG d   1      -5.947  75.166 116.122  0.00  0.00     0.381 N 
ATOM     19  H   LIG d   1      -5.377  75.832 115.640  0.00  0.00    -0.090 HD
ATOM     20  H   LIG d   1      -6.033  74.348 115.545  0.00  0.00    -0.090 HD
ATOM     21  H   LIG d   1      -5.524  74.925 116.992  0.00  0.00    -0.090 HD
ENDBRANCH   5  18
BRANCH   3  22
ATOM     22  C   LIG d   1     -10.541  74.144 117.010  0.00  0.00     0.382 C 
ATOM     23  O   LIG d   1     -11.677  74.442 117.451  0.00  0.00    -0.241 OA
ATOM     24  O   LIG d   1     -10.367  73.043 116.455  0.00  0.00    -0.241 OA
ENDBRANCH   3  22
TORSDOF 7
ENDMDL
