MODEL 1
REMARK VINA RESULT:      -5.7      0.000      0.000
REMARK  7 active torsions:
REMARK  status: ('A' for Active; 'I' for Inactive)
REMARK    1  A    between atoms: C_2  and  C_3 
REMARK    2  A    between atoms: C_3  and  O_6 
REMARK    3  A    between atoms: C_3  and  C_4 
REMARK    4  A    between atoms: C_7  and  O_6 
REMARK    5  A    between atoms: C_9  and  C_10 
REMARK    6  A    between atoms: N_15  and  C_14 
REMARK    7  A    between atoms: N_20  and  C_19 
REMARK       I    between atoms: C_22  and  N_20 
ROOT
ATOM      1  C   LIG d   1      -7.621  76.204 117.686  0.00  0.00     0.161 C 
ATOM      2  C   LIG d   1      -8.646  77.158 117.794  0.00  0.00     0.016 C 
ATOM      3  C   LIG d   1      -8.416  78.553 117.776  0.00  0.00     0.038 C 
ATOM      4  C   LIG d   1      -7.152  79.093 117.496  0.00  0.00     0.028 C 
ATOM      5  C   LIG d   1      -6.000  78.170 117.882  0.00  0.00    -0.047 C 
ATOM      6  C   LIG d   1      -6.249  76.774 117.268  0.00  0.00     0.091 C 
ENDROOT
BRANCH   1   7
ATOM      7  O   LIG d   1      -8.023  75.154 116.784  0.00  0.00    -0.368 OA
BRANCH   7   8
ATOM      8  C   LIG d   1      -8.154  73.833 117.363  0.00  0.00     0.119 C 
BRANCH   8   9
ATOM      9  C   LIG d   1      -7.076  72.938 116.722  0.00  0.00     0.028 C 
ATOM     10  C   LIG d   1      -7.619  71.553 116.329  0.00  0.00     0.006 C 
ENDBRANCH   8   9
BRANCH   8  11
ATOM     11  C   LIG d   1      -9.492  73.189 116.986  0.00  0.00     0.028 C 
ATOM     12  C   LIG d   1     -10.631  74.213 116.862  0.00  0.00     0.006 C 
ENDBRANCH   8  11
ENDBRANCH   7   8
ENDBRANCH   1   7
BRANCH   6  13
ATOM     13  N   LIG d   1      -5.212  75.787 117.667  0.00  0.00    -0.311 N 
ATOM     14  C   LIG d   1      -4.114  75.547 116.951  0.00  0.00     0.210 C 
ATOM     15  C   LIG d   1      -3.185  74.476 117.532  0.00  0.00     0.109 C 
ATOM     16  O   LIG d   1      -3.806  76.142 115.907  0.00  0.00    -0.276 OA
ATOM     17  H   LIG d   1      -5.366  75.281 118.517  0.00  0.00     0.149 HD
ENDBRANCH   6  13
BRANCH   5  18
ATOM     18  N   LIG d   1      -4.751  78.796 117.409  0.00  0.00     0.381 N 
ATOM     19  H   LIG d   1      -3.970  78.404 117.898  0.00  0.00    -0.090 HD
ATOM     20  H   LIG d   1      -4.785  79.780 117.607  0.00  0.00    -0.090 HD
ATOM     21  H   LIG d   1      -4.646  78.650 116.429  0.00  0.00    -0.090 HD
ENDBRANCH   5  18
BRANCH   3  22
ATOM     22  C   LIG d   1      -9.451  79.424 118.080  0.00  0.00     0.382 C 
ATOM     23  O   LIG d   1     -10.490  78.993 118.635  0.00  0.00    -0.241 OA
ATOM     24  O   LIG d   1      -9.377  80.628 117.767  0.00  0.00    -0.241 OA
ENDBRANCH   3  22
TORSDOF 7
ENDMDL
MODEL 2
REMARK VINA RESULT:      -5.3      2.442      4.921
REMARK  7 active torsions:
REMARK  status: ('A' for Active; 'I' for Inactive)
REMARK    1  A    between atoms: C_2  and  C_3 
REMARK    2  A    between atoms: C_3  and  O_6 
REMARK    3  A    between atoms: C_3  and  C_4 
REMARK    4  A    between atoms: C_7  and  O_6 
REMARK    5  A    between atoms: C_9  and  C_10 
REMARK    6  A    between atoms: N_15  and  C_14 
REMARK    7  A    between atoms: N_20  and  C_19 
REMARK       I    between atoms: C_22  and  N_20 
ROOT
ATOM      1  C   LIG d   1      -5.164  75.547 116.280  0.00  0.00     0.161 C 
ATOM      2  C   LIG d   1      -4.888  76.924 116.315  0.00  0.00     0.016 C 
ATOM      3  C   LIG d   1      -5.859  77.904 116.627  0.00  0.00     0.038 C 
ATOM      4  C   LIG d   1      -7.143  77.560 117.075  0.00  0.00     0.028 C 
ATOM      5  C   LIG d   1      -7.617  76.201 116.569  0.00  0.00    -0.047 C 
ATOM      6  C   LIG d   1      -6.530  75.145 116.874  0.00  0.00     0.091 C 
ENDROOT
BRANCH   1   7
ATOM      7  O   LIG d   1      -4.102  74.819 116.929  0.00  0.00    -0.368 OA
BRANCH   7   8
ATOM      8  C   LIG d   1      -2.902  75.574 117.226  0.00  0.00     0.119 C 
BRANCH   8   9
ATOM      9  C   LIG d   1      -1.742  74.927 116.444  0.00  0.00     0.028 C 
ATOM     10  C   LIG d   1      -0.867  74.026 117.330  0.00  0.00     0.006 C 
ENDBRANCH   8   9
BRANCH   8  11
ATOM     11  C   LIG d   1      -2.515  75.446 118.703  0.00  0.00     0.028 C 
ATOM     12  C   LIG d   1      -3.238  76.465 119.598  0.00  0.00     0.006 C 
ENDBRANCH   8  11
ENDBRANCH   7   8
ENDBRANCH   1   7
BRANCH   6  13
ATOM     13  N   LIG d   1      -6.877  73.804 116.337  0.00  0.00    -0.311 N 
ATOM     14  C   LIG d   1      -7.458  72.851 117.064  0.00  0.00     0.210 C 
ATOM     15  C   LIG d   1      -7.711  71.535 116.322  0.00  0.00     0.109 C 
ATOM     16  O   LIG d   1      -7.817  72.981 118.244  0.00  0.00    -0.276 OA
ATOM     17  H   LIG d   1      -6.649  73.623 115.379  0.00  0.00     0.149 HD
ENDBRANCH   6  13
BRANCH   5  18
ATOM     18  N   LIG d   1      -8.907  75.909 117.222  0.00  0.00     0.381 N 
ATOM     19  H   LIG d   1      -8.748  75.454 118.099  0.00  0.00    -0.090 HD
ATOM     20  H   LIG d   1      -9.434  75.286 116.635  0.00  0.00    -0.090 HD
ATOM     21  H   LIG d   1      -9.416  76.753 117.365  0.00  0.00    -0.090 HD
ENDBRANCH   5  18
BRANCH   3  22
ATOM     22  C   LIG d   1      -5.560  79.246 116.453  0.00  0.00     0.382 C 
ATOM     23  O   LIG d   1      -6.377  80.124 116.823  0.00  0.00    -0.241 OA
ATOM     24  O   LIG d   1      -4.503  79.591 115.890  0.00  0.00    -0.241 OA
ENDBRANCH   3  22
TORSDOF 7
ENDMDL
MODEL 3
REMARK VINA RESULT:      -5.1      2.134      5.371
REMARK  7 active torsions:
REMARK  status: ('A' for Active; 'I' for Inactive)
REMARK    1  A    between atoms: C_2  and  C_3 
REMARK    2  A    between atoms: C_3  and  O_6 
REMARK    3  A    between atoms: C_3  and  C_4 
REMARK    4  A    between atoms: C_7  and  O_6 
REMARK    5  A    between atoms: C_9  and  C_10 
REMARK    6  A    between atoms: N_15  and  C_14 
REMARK    7  A    between atoms: N_20  and  C_19 
REMARK       I    between atoms: C_22  and  N_20 
ROOT
ATOM      1  C   LIG d   1      -4.634  75.842 116.790  0.00  0.00     0.161 C 
ATOM      2  C   LIG d   1      -3.732  74.792 117.030  0.00  0.00     0.016 C 
ATOM      3  C   LIG d   1      -2.861  74.753 118.143  0.00  0.00     0.038 C 
ATOM      4  C   LIG d   1      -2.941  75.694 119.180  0.00  0.00     0.028 C 
ATOM      5  C   LIG d   1      -3.487  77.046 118.731  0.00  0.00    -0.047 C 
ATOM      6  C   LIG d   1      -4.813  76.822 117.969  0.00  0.00     0.091 C 
ENDROOT
BRANCH   1   7
ATOM      7  O   LIG d   1      -5.910  75.308 116.385  0.00  0.00    -0.368 OA
BRANCH   7   8
ATOM      8  C   LIG d   1      -6.413  74.196 117.166  0.00  0.00     0.119 C 
BRANCH   8   9
ATOM      9  C   LIG d   1      -6.831  73.088 116.180  0.00  0.00     0.028 C 
ATOM     10  C   LIG d   1      -7.928  72.176 116.753  0.00  0.00     0.006 C 
ENDBRANCH   8   9
BRANCH   8  11
ATOM     11  C   LIG d   1      -7.693  74.576 117.916  0.00  0.00     0.028 C 
ATOM     12  C   LIG d   1      -8.402  75.795 117.305  0.00  0.00     0.006 C 
ENDBRANCH   8  11
ENDBRANCH   7   8
ENDBRANCH   1   7
BRANCH   6  13
ATOM     13  N   LIG d   1      -5.372  78.086 117.421  0.00  0.00    -0.311 N 
ATOM     14  C   LIG d   1      -6.287  78.818 118.055  0.00  0.00     0.210 C 
ATOM     15  C   LIG d   1      -6.743  80.074 117.306  0.00  0.00     0.109 C 
ATOM     16  O   LIG d   1      -6.740  78.564 119.181  0.00  0.00    -0.276 OA
ATOM     17  H   LIG d   1      -5.037  78.383 116.526  0.00  0.00     0.149 HD
ENDBRANCH   6  13
BRANCH   5  18
ATOM     18  N   LIG d   1      -3.646  77.884 119.934  0.00  0.00     0.381 N 
ATOM     19  H   LIG d   1      -3.202  77.444 120.715  0.00  0.00    -0.090 HD
ATOM     20  H   LIG d   1      -4.625  77.977 120.139  0.00  0.00    -0.090 HD
ATOM     21  H   LIG d   1      -3.245  78.783 119.778  0.00  0.00    -0.090 HD
ENDBRANCH   5  18
BRANCH   3  22
ATOM     22  C   LIG d   1      -1.871  73.785 118.206  0.00  0.00     0.382 C 
ATOM     23  O   LIG d   1      -1.035  73.681 117.276  0.00  0.00    -0.241 OA
ATOM     24  O   LIG d   1      -1.828  72.986 119.161  0.00  0.00    -0.241 OA
ENDBRANCH   3  22
TORSDOF 7
ENDMDL
MODEL 4
REMARK VINA RESULT:      -5.0      1.855      5.231
REMARK  7 active torsions:
REMARK  status: ('A' for Active; 'I' for Inactive)
REMARK    1  A    between atoms: C_2  and  C_3 
REMARK    2  A    between atoms: C_3  and  O_6 
REMARK    3  A    between atoms: C_3  and  C_4 
REMARK    4  A    between atoms: C_7  and  O_6 
REMARK    5  A    between atoms: C_9  and  C_10 
REMARK    6  A    between atoms: N_15  and  C_14 
REMARK    7  A    between atoms: N_20  and  C_19 
REMARK       I    between atoms: C_22  and  N_20 
ROOT
ATOM      1  C   LIG d   1      -5.784  75.038 117.356  0.00  0.00     0.161 C 
ATOM      2  C   LIG d   1      -4.516  74.439 117.285  0.00  0.00     0.016 C 
ATOM      3  C   LIG d   1      -3.342  75.037 117.799  0.00  0.00     0.038 C 
ATOM      4  C   LIG d   1      -3.383  76.215 118.559  0.00  0.00     0.028 C 
ATOM      5  C   LIG d   1      -4.569  77.113 118.222  0.00  0.00    -0.047 C 
ATOM      6  C   LIG d   1      -5.865  76.272 118.279  0.00  0.00     0.091 C 
ENDROOT
BRANCH   1   7
ATOM      7  O   LIG d   1      -6.767  74.058 117.742  0.00  0.00    -0.368 OA
BRANCH   7   8
ATOM      8  C   LIG d   1      -7.675  73.621 116.701  0.00  0.00     0.119 C 
BRANCH   8   9
ATOM      9  C   LIG d   1      -9.098  73.636 117.292  0.00  0.00     0.028 C 
ATOM     10  C   LIG d   1      -9.902  74.872 116.853  0.00  0.00     0.006 C 
ENDBRANCH   8   9
BRANCH   8  11
ATOM     11  C   LIG d   1      -7.414  72.163 116.310  0.00  0.00     0.028 C 
ATOM     12  C   LIG d   1      -8.631  71.256 116.547  0.00  0.00     0.006 C 
ENDBRANCH   8  11
ENDBRANCH   7   8
ENDBRANCH   1   7
BRANCH   6  13
ATOM     13  N   LIG d   1      -7.065  77.054 117.880  0.00  0.00    -0.311 N 
ATOM     14  C   LIG d   1      -7.867  77.661 118.753  0.00  0.00     0.210 C 
ATOM     15  C   LIG d   1      -9.059  78.396 118.132  0.00  0.00     0.109 C 
ATOM     16  O   LIG d   1      -7.687  77.688 119.980  0.00  0.00    -0.276 OA
ATOM     17  H   LIG d   1      -7.268  77.110 116.902  0.00  0.00     0.149 HD
ENDBRANCH   6  13
BRANCH   5  18
ATOM     18  N   LIG d   1      -4.565  78.234 119.180  0.00  0.00     0.381 N 
ATOM     19  H   LIG d   1      -4.829  79.079 118.713  0.00  0.00    -0.090 HD
ATOM     20  H   LIG d   1      -3.635  78.351 119.541  0.00  0.00    -0.090 HD
ATOM     21  H   LIG d   1      -5.198  78.048 119.927  0.00  0.00    -0.090 HD
ENDBRANCH   5  18
BRANCH   3  22
ATOM     22  C   LIG d   1      -2.106  74.475 117.520  0.00  0.00     0.382 C 
ATOM     23  O   LIG d   1      -1.384  74.964 116.618  0.00  0.00    -0.241 OA
ATOM     24  O   LIG d   1      -1.722  73.458 118.129  0.00  0.00    -0.241 OA
ENDBRANCH   3  22
TORSDOF 7
ENDMDL
MODEL 5
REMARK VINA RESULT:      -5.0      1.902      5.068
REMARK  7 active torsions:
REMARK  status: ('A' for Active; 'I' for Inactive)
REMARK    1  A    between atoms: C_2  and  C_3 
REMARK    2  A    between atoms: C_3  and  O_6 
REMARK    3  A    between atoms: C_3  and  C_4 
REMARK    4  A    between atoms: C_7  and  O_6 
REMARK    5  A    between atoms: C_9  and  C_10 
REMARK    6  A    between atoms: N_15  and  C_14 
REMARK    7  A    between atoms: N_20  and  C_19 
REMARK       I    between atoms: C_22  and  N_20 
ROOT
ATOM      1  C   LIG d   1      -7.777  76.548 117.396  0.00  0.00     0.161 C 
ATOM      2  C   LIG d   1      -8.774  75.563 117.307  0.00  0.00     0.016 C 
ATOM      3  C   LIG d   1      -8.497  74.179 117.225  0.00  0.00     0.038 C 
ATOM      4  C   LIG d   1      -7.197  73.673 117.380  0.00  0.00     0.028 C 
ATOM      5  C   LIG d   1      -6.110  74.659 116.965  0.00  0.00    -0.047 C 
ATOM      6  C   LIG d   1      -6.359  76.008 117.678  0.00  0.00     0.091 C 
ENDROOT
BRANCH   1   7
ATOM      7  O   LIG d   1      -8.145  77.529 118.385  0.00  0.00    -0.368 OA
BRANCH   7   8
ATOM      8  C   LIG d   1      -8.469  78.849 117.884  0.00  0.00     0.119 C 
BRANCH   8   9
ATOM      9  C   LIG d   1      -7.408  79.824 118.429  0.00  0.00     0.028 C 
ATOM     10  C   LIG d   1      -6.575  80.471 117.309  0.00  0.00     0.006 C 
ENDBRANCH   8   9
BRANCH   8  11
ATOM     11  C   LIG d   1      -9.804  79.346 118.447  0.00  0.00     0.028 C 
ATOM     12  C   LIG d   1     -10.109  80.802 118.058  0.00  0.00     0.006 C 
ENDBRANCH   8  11
ENDBRANCH   7   8
ENDBRANCH   1   7
BRANCH   6  13
ATOM     13  N   LIG d   1      -5.389  77.055 117.263  0.00  0.00    -0.311 N 
ATOM     14  C   LIG d   1      -4.275  77.332 117.939  0.00  0.00     0.210 C 
ATOM     15  C   LIG d   1      -3.424  78.461 117.349  0.00  0.00     0.109 C 
ATOM     16  O   LIG d   1      -3.894  76.727 118.952  0.00  0.00    -0.276 OA
ATOM     17  H   LIG d   1      -5.604  77.574 116.434  0.00  0.00     0.149 HD
ENDBRANCH   6  13
BRANCH   5  18
ATOM     18  N   LIG d   1      -4.808  74.056 117.307  0.00  0.00     0.381 N 
ATOM     19  H   LIG d   1      -4.514  73.446 116.571  0.00  0.00    -0.090 HD
ATOM     20  H   LIG d   1      -4.911  73.513 118.145  0.00  0.00    -0.090 HD
ATOM     21  H   LIG d   1      -4.128  74.771 117.447  0.00  0.00    -0.090 HD
ENDBRANCH   5  18
BRANCH   3  22
ATOM     22  C   LIG d   1      -9.521  73.288 116.946  0.00  0.00     0.382 C 
ATOM     23  O   LIG d   1      -9.255  72.095 116.662  0.00  0.00    -0.241 OA
ATOM     24  O   LIG d   1     -10.706  73.672 116.932  0.00  0.00    -0.241 OA
ENDBRANCH   3  22
TORSDOF 7
ENDMDL
MODEL 6
REMARK VINA RESULT:      -5.0     13.732     15.974
REMARK  7 active torsions:
REMARK  status: ('A' for Active; 'I' for Inactive)
REMARK    1  A    between atoms: C_2  and  C_3 
REMARK    2  A    between atoms: C_3  and  O_6 
REMARK    3  A    between atoms: C_3  and  C_4 
REMARK    4  A    between atoms: C_7  and  O_6 
REMARK    5  A    between atoms: C_9  and  C_10 
REMARK    6  A    between atoms: N_15  and  C_14 
REMARK    7  A    between atoms: N_20  and  C_19 
REMARK       I    between atoms: C_22  and  N_20 
ROOT
ATOM      1  C   LIG d   1      -4.892  91.398 119.178  0.00  0.00     0.161 C 
ATOM      2  C   LIG d   1      -6.035  91.069 118.431  0.00  0.00     0.016 C 
ATOM      3  C   LIG d   1      -6.002  90.258 117.273  0.00  0.00     0.038 C 
ATOM      4  C   LIG d   1      -4.835  89.593 116.867  0.00  0.00     0.028 C 
ATOM      5  C   LIG d   1      -3.554  90.299 117.298  0.00  0.00    -0.047 C 
ATOM      6  C   LIG d   1      -3.627  90.591 118.814  0.00  0.00     0.091 C 
ENDROOT
BRANCH   1   7
ATOM      7  O   LIG d   1      -5.176  91.276 120.585  0.00  0.00    -0.368 OA
BRANCH   7   8
ATOM      8  C   LIG d   1      -5.229  92.515 121.334  0.00  0.00     0.119 C 
BRANCH   8   9
ATOM      9  C   LIG d   1      -5.124  93.673 120.322  0.00  0.00     0.028 C 
ATOM     10  C   LIG d   1      -6.396  94.537 120.286  0.00  0.00     0.006 C 
ENDBRANCH   8   9
BRANCH   8  11
ATOM     11  C   LIG d   1      -4.010  92.666 122.250  0.00  0.00     0.028 C 
ATOM     12  C   LIG d   1      -3.076  93.807 121.816  0.00  0.00     0.006 C 
ENDBRANCH   8  11
ENDBRANCH   7   8
ENDBRANCH   1   7
BRANCH   6  13
ATOM     13  N   LIG d   1      -2.450  91.356 119.301  0.00  0.00    -0.311 N 
ATOM     14  C   LIG d   1      -1.372  90.782 119.832  0.00  0.00     0.210 C 
ATOM     15  C   LIG d   1      -0.280  91.755 120.289  0.00  0.00     0.109 C 
ATOM     16  O   LIG d   1      -1.202  89.558 119.938  0.00  0.00    -0.276 OA
ATOM     17  H   LIG d   1      -2.490  92.353 119.225  0.00  0.00     0.149 HD
ENDBRANCH   6  13
BRANCH   5  18
ATOM     18  N   LIG d   1      -2.421  89.430 116.930  0.00  0.00     0.381 N 
ATOM     19  H   LIG d   1      -2.304  89.427 115.936  0.00  0.00    -0.090 HD
ATOM     20  H   LIG d   1      -2.621  88.491 117.227  0.00  0.00    -0.090 HD
ATOM     21  H   LIG d   1      -1.587  89.754 117.368  0.00  0.00    -0.090 HD
ENDBRANCH   5  18
BRANCH   3  22
ATOM     22  C   LIG d   1      -7.136  90.138 116.485  0.00  0.00     0.382 C 
ATOM     23  O   LIG d   1      -7.580  91.137 115.869  0.00  0.00    -0.241 OA
ATOM     24  O   LIG d   1      -7.747  89.055 116.418  0.00  0.00    -0.241 OA
ENDBRANCH   3  22
TORSDOF 7
ENDMDL
MODEL 7
REMARK VINA RESULT:      -4.9      1.579      2.211
REMARK  7 active torsions:
REMARK  status: ('A' for Active; 'I' for Inactive)
REMARK    1  A    between atoms: C_2  and  C_3 
REMARK    2  A    between atoms: C_3  and  O_6 
REMARK    3  A    between atoms: C_3  and  C_4 
REMARK    4  A    between atoms: C_7  and  O_6 
REMARK    5  A    between atoms: C_9  and  C_10 
REMARK    6  A    between atoms: N_15  and  C_14 
REMARK    7  A    between atoms: N_20  and  C_19 
REMARK       I    between atoms: C_22  and  N_20 
ROOT
ATOM      1  C   LIG d   1      -7.333  77.813 117.684  0.00  0.00     0.161 C 
ATOM      2  C   LIG d   1      -8.570  78.450 117.878  0.00  0.00     0.016 C 
ATOM      3  C   LIG d   1      -8.728  79.855 117.890  0.00  0.00     0.038 C 
ATOM      4  C   LIG d   1      -7.677  80.722 117.556  0.00  0.00     0.028 C 
ATOM      5  C   LIG d   1      -6.297  80.143 117.849  0.00  0.00    -0.047 C 
ATOM      6  C   LIG d   1      -6.195  78.740 117.207  0.00  0.00     0.091 C 
ENDROOT
BRANCH   1   7
ATOM      7  O   LIG d   1      -7.491  76.706 116.774  0.00  0.00    -0.368 OA
BRANCH   7   8
ATOM      8  C   LIG d   1      -7.348  75.383 117.349  0.00  0.00     0.119 C 
BRANCH   8   9
ATOM      9  C   LIG d   1      -6.367  74.596 116.459  0.00  0.00     0.028 C 
ATOM     10  C   LIG d   1      -4.955  74.523 117.064  0.00  0.00     0.006 C 
ENDBRANCH   8   9
BRANCH   8  11
ATOM     11  C   LIG d   1      -8.665  74.604 117.289  0.00  0.00     0.028 C 
ATOM     12  C   LIG d   1      -8.455  73.084 117.202  0.00  0.00     0.006 C 
ENDBRANCH   8  11
ENDBRANCH   7   8
ENDBRANCH   1   7
BRANCH   6  13
ATOM     13  N   LIG d   1      -4.907  78.067 117.517  0.00  0.00    -0.311 N 
ATOM     14  C   LIG d   1      -3.803  78.226 116.789  0.00  0.00     0.210 C 
ATOM     15  C   LIG d   1      -2.590  77.425 117.271  0.00  0.00     0.109 C 
ATOM     16  O   LIG d   1      -3.705  78.979 115.808  0.00  0.00    -0.276 OA
ATOM     17  H   LIG d   1      -4.889  77.462 118.315  0.00  0.00     0.149 HD
ENDBRANCH   6  13
BRANCH   5  18
ATOM     18  N   LIG d   1      -5.296  81.091 117.327  0.00  0.00     0.381 N 
ATOM     19  H   LIG d   1      -4.376  80.718 117.455  0.00  0.00    -0.090 HD
ATOM     20  H   LIG d   1      -5.362  81.951 117.843  0.00  0.00    -0.090 HD
ATOM     21  H   LIG d   1      -5.460  81.263 116.359  0.00  0.00    -0.090 HD
ENDBRANCH   5  18
BRANCH   3  22
ATOM     22  C   LIG d   1      -9.939  80.407 118.279  0.00  0.00     0.382 C 
ATOM     23  O   LIG d   1     -10.593  81.113 117.474  0.00  0.00    -0.241 OA
ATOM     24  O   LIG d   1     -10.365  80.245 119.438  0.00  0.00    -0.241 OA
ENDBRANCH   3  22
TORSDOF 7
ENDMDL
MODEL 8
REMARK VINA RESULT:      -4.8      2.057      5.359
REMARK  7 active torsions:
REMARK  status: ('A' for Active; 'I' for Inactive)
REMARK    1  A    between atoms: C_2  and  C_3 
REMARK    2  A    between atoms: C_3  and  O_6 
REMARK    3  A    between atoms: C_3  and  C_4 
REMARK    4  A    between atoms: C_7  and  O_6 
REMARK    5  A    between atoms: C_9  and  C_10 
REMARK    6  A    between atoms: N_15  and  C_14 
REMARK    7  A    between atoms: N_20  and  C_19 
REMARK       I    between atoms: C_22  and  N_20 
ROOT
ATOM      1  C   LIG d   1      -5.700  75.615 117.629  0.00  0.00     0.161 C 
ATOM      2  C   LIG d   1      -6.455  74.438 117.496  0.00  0.00     0.016 C 
ATOM      3  C   LIG d   1      -7.867  74.423 117.428  0.00  0.00     0.038 C 
ATOM      4  C   LIG d   1      -8.618  75.605 117.338  0.00  0.00     0.028 C 
ATOM      5  C   LIG d   1      -7.932  76.808 117.976  0.00  0.00    -0.047 C 
ATOM      6  C   LIG d   1      -6.495  76.921 117.419  0.00  0.00     0.091 C 
ENDROOT
BRANCH   1   7
ATOM      7  O   LIG d   1      -4.566  75.571 116.740  0.00  0.00    -0.368 OA
BRANCH   7   8
ATOM      8  C   LIG d   1      -3.352  74.997 117.284  0.00  0.00     0.119 C 
BRANCH   8   9
ATOM      9  C   LIG d   1      -3.070  75.696 118.628  0.00  0.00     0.028 C 
ATOM     10  C   LIG d   1      -2.316  77.025 118.451  0.00  0.00     0.006 C 
ENDBRANCH   8   9
BRANCH   8  11
ATOM     11  C   LIG d   1      -2.141  75.313 116.401  0.00  0.00     0.028 C 
ATOM     12  C   LIG d   1      -1.054  74.229 116.470  0.00  0.00     0.006 C 
ENDBRANCH   8  11
ENDBRANCH   7   8
ENDBRANCH   1   7
BRANCH   6  13
ATOM     13  N   LIG d   1      -5.725  78.022 118.055  0.00  0.00    -0.311 N 
ATOM     14  C   LIG d   1      -5.663  79.256 117.556  0.00  0.00     0.210 C 
ATOM     15  C   LIG d   1      -4.798  80.234 118.356  0.00  0.00     0.109 C 
ATOM     16  O   LIG d   1      -6.268  79.640 116.544  0.00  0.00    -0.276 OA
ATOM     17  H   LIG d   1      -5.230  77.806 118.897  0.00  0.00     0.149 HD
ENDBRANCH   6  13
BRANCH   5  18
ATOM     18  N   LIG d   1      -8.758  77.996 117.688  0.00  0.00     0.381 N 
ATOM     19  H   LIG d   1      -9.460  78.100 118.394  0.00  0.00    -0.090 HD
ATOM     20  H   LIG d   1      -9.217  77.866 116.804  0.00  0.00    -0.090 HD
ATOM     21  H   LIG d   1      -8.185  78.810 117.657  0.00  0.00    -0.090 HD
ENDBRANCH   5  18
BRANCH   3  22
ATOM     22  C   LIG d   1      -8.545  73.215 117.492  0.00  0.00     0.382 C 
ATOM     23  O   LIG d   1      -8.008  72.223 118.039  0.00  0.00    -0.241 OA
ATOM     24  O   LIG d   1      -9.670  73.094 116.970  0.00  0.00    -0.241 OA
ENDBRANCH   3  22
TORSDOF 7
ENDMDL
MODEL 9
REMARK VINA RESULT:      -4.7     17.643     19.292
REMARK  7 active torsions:
REMARK  status: ('A' for Active; 'I' for Inactive)
REMARK    1  A    between atoms: C_2  and  C_3 
REMARK    2  A    between atoms: C_3  and  O_6 
REMARK    3  A    between atoms: C_3  and  C_4 
REMARK    4  A    between atoms: C_7  and  O_6 
REMARK    5  A    between atoms: C_9  and  C_10 
REMARK    6  A    between atoms: N_15  and  C_14 
REMARK    7  A    between atoms: N_20  and  C_19 
REMARK       I    between atoms: C_22  and  N_20 
ROOT
ATOM      1  C   LIG d   1      -0.244  59.566 120.003  0.00  0.00     0.161 C 
ATOM      2  C   LIG d   1      -1.517  59.311 119.468  0.00  0.00     0.016 C 
ATOM      3  C   LIG d   1      -1.801  59.347 118.083  0.00  0.00     0.038 C 
ATOM      4  C   LIG d   1      -0.789  59.493 117.123  0.00  0.00     0.028 C 
ATOM      5  C   LIG d   1       0.428  60.255 117.636  0.00  0.00    -0.047 C 
ATOM      6  C   LIG d   1       0.896  59.617 118.964  0.00  0.00     0.091 C 
ENDROOT
BRANCH   1   7
ATOM      7  O   LIG d   1       0.057  58.599 121.030  0.00  0.00    -0.368 OA
BRANCH   7   8
ATOM      8  C   LIG d   1      -0.512  57.279 120.849  0.00  0.00     0.119 C 
BRANCH   8   9
ATOM      9  C   LIG d   1      -1.091  56.835 122.206  0.00  0.00     0.028 C 
ATOM     10  C   LIG d   1      -2.435  56.102 122.060  0.00  0.00     0.006 C 
ENDBRANCH   8   9
BRANCH   8  11
ATOM     11  C   LIG d   1       0.568  56.248 120.511  0.00  0.00     0.028 C 
ATOM     12  C   LIG d   1       0.660  55.952 119.006  0.00  0.00     0.006 C 
ENDBRANCH   8  11
ENDBRANCH   7   8
ENDBRANCH   1   7
BRANCH   6  13
ATOM     13  N   LIG d   1       2.031  60.354 119.578  0.00  0.00    -0.311 N 
ATOM     14  C   LIG d   1       3.054  59.753 120.184  0.00  0.00     0.210 C 
ATOM     15  C   LIG d   1       4.108  60.700 120.766  0.00  0.00     0.109 C 
ATOM     16  O   LIG d   1       3.205  58.525 120.265  0.00  0.00    -0.276 OA
ATOM     17  H   LIG d   1       2.005  61.354 119.530  0.00  0.00     0.149 HD
ENDBRANCH   6  13
BRANCH   5  18
ATOM     18  N   LIG d   1       1.458  60.214 116.581  0.00  0.00     0.381 N 
ATOM     19  H   LIG d   1       1.952  61.083 116.556  0.00  0.00    -0.090 HD
ATOM     20  H   LIG d   1       1.008  60.081 115.692  0.00  0.00    -0.090 HD
ATOM     21  H   LIG d   1       2.094  59.467 116.754  0.00  0.00    -0.090 HD
ENDBRANCH   5  18
BRANCH   3  22
ATOM     22  C   LIG d   1      -3.115  59.275 117.649  0.00  0.00     0.382 C 
ATOM     23  O   LIG d   1      -3.840  58.312 117.998  0.00  0.00    -0.241 OA
ATOM     24  O   LIG d   1      -3.573  60.138 116.876  0.00  0.00    -0.241 OA
ENDBRANCH   3  22
TORSDOF 7
ENDMDL
