MODEL 1
REMARK VINA RESULT:      -5.4      0.000      0.000
REMARK  7 active torsions:
REMARK  status: ('A' for Active; 'I' for Inactive)
REMARK    1  A    between atoms: C_2  and  C_3 
REMARK    2  A    between atoms: C_3  and  O_6 
REMARK    3  A    between atoms: C_3  and  C_4 
REMARK    4  A    between atoms: C_7  and  O_6 
REMARK    5  A    between atoms: C_9  and  C_10 
REMARK    6  A    between atoms: N_15  and  C_14 
REMARK    7  A    between atoms: N_20  and  C_19 
REMARK       I    between atoms: C_22  and  N_20 
ROOT
ATOM      1  C   LIG d   1      -8.508  75.658 118.540  0.00  0.00     0.161 C 
ATOM      2  C   LIG d   1      -8.349  74.306 118.194  0.00  0.00     0.016 C 
ATOM      3  C   LIG d   1      -7.515  73.865 117.140  0.00  0.00     0.038 C 
ATOM      4  C   LIG d   1      -6.662  74.741 116.454  0.00  0.00     0.028 C 
ATOM      5  C   LIG d   1      -7.163  76.181 116.431  0.00  0.00    -0.047 C 
ATOM      6  C   LIG d   1      -7.500  76.618 117.875  0.00  0.00     0.091 C 
ENDROOT
BRANCH   1   7
ATOM      7  O   LIG d   1      -8.468  75.803 119.973  0.00  0.00    -0.368 OA
BRANCH   7   8
ATOM      8  C   LIG d   1      -9.538  76.579 120.565  0.00  0.00     0.119 C 
BRANCH   8   9
ATOM      9  C   LIG d   1      -8.910  77.498 121.631  0.00  0.00     0.028 C 
ATOM     10  C   LIG d   1      -7.384  77.331 121.723  0.00  0.00     0.006 C 
ENDBRANCH   8   9
BRANCH   8  11
ATOM     11  C   LIG d   1     -10.519  75.684 121.328  0.00  0.00     0.028 C 
ATOM     12  C   LIG d   1     -11.982  75.918 120.918  0.00  0.00     0.006 C 
ENDBRANCH   8  11
ENDBRANCH   7   8
ENDBRANCH   1   7
BRANCH   6  13
ATOM     13  N   LIG d   1      -8.077  77.987 117.933  0.00  0.00    -0.311 N 
ATOM     14  C   LIG d   1      -7.433  79.033 118.448  0.00  0.00     0.210 C 
ATOM     15  C   LIG d   1      -8.217  80.349 118.427  0.00  0.00     0.109 C 
ATOM     16  O   LIG d   1      -6.275  79.002 118.890  0.00  0.00    -0.276 OA
ATOM     17  H   LIG d   1      -9.001  78.108 117.567  0.00  0.00     0.149 HD
ENDBRANCH   6  13
BRANCH   5  18
ATOM     18  N   LIG d   1      -6.114  77.009 115.806  0.00  0.00     0.381 N 
ATOM     19  H   LIG d   1      -5.645  76.482 115.097  0.00  0.00    -0.090 HD
ATOM     20  H   LIG d   1      -5.441  77.264 116.506  0.00  0.00    -0.090 HD
ATOM     21  H   LIG d   1      -6.518  77.828 115.408  0.00  0.00    -0.090 HD
ENDBRANCH   5  18
BRANCH   3  22
ATOM     22  C   LIG d   1      -7.560  72.539 116.737  0.00  0.00     0.382 C 
ATOM     23  O   LIG d   1      -8.315  71.729 117.328  0.00  0.00    -0.241 OA
ATOM     24  O   LIG d   1      -6.824  72.132 115.818  0.00  0.00    -0.241 OA
ENDBRANCH   3  22
TORSDOF 7
ENDMDL
MODEL 2
REMARK VINA RESULT:      -5.3     15.100     17.948
REMARK  7 active torsions:
REMARK  status: ('A' for Active; 'I' for Inactive)
REMARK    1  A    between atoms: C_2  and  C_3 
REMARK    2  A    between atoms: C_3  and  O_6 
REMARK    3  A    between atoms: C_3  and  C_4 
REMARK    4  A    between atoms: C_7  and  O_6 
REMARK    5  A    between atoms: C_9  and  C_10 
REMARK    6  A    between atoms: N_15  and  C_14 
REMARK    7  A    between atoms: N_20  and  C_19 
REMARK       I    between atoms: C_22  and  N_20 
ROOT
ATOM      1  C   LIG d   1      -6.414  93.764 117.646  0.00  0.00     0.161 C 
ATOM      2  C   LIG d   1      -6.873  92.544 117.123  0.00  0.00     0.016 C 
ATOM      3  C   LIG d   1      -6.025  91.446 116.850  0.00  0.00     0.038 C 
ATOM      4  C   LIG d   1      -4.674  91.442 117.225  0.00  0.00     0.028 C 
ATOM      5  C   LIG d   1      -4.060  92.836 117.293  0.00  0.00    -0.047 C 
ATOM      6  C   LIG d   1      -4.961  93.739 118.165  0.00  0.00     0.091 C 
ENDROOT
BRANCH   1   7
ATOM      7  O   LIG d   1      -7.308  94.220 118.680  0.00  0.00    -0.368 OA
BRANCH   7   8
ATOM      8  C   LIG d   1      -8.439  95.012 118.242  0.00  0.00     0.119 C 
BRANCH   8   9
ATOM      9  C   LIG d   1      -7.948  96.462 118.065  0.00  0.00     0.028 C 
ATOM     10  C   LIG d   1      -9.080  97.490 118.231  0.00  0.00     0.006 C 
ENDBRANCH   8   9
BRANCH   8  11
ATOM     11  C   LIG d   1      -9.523  95.081 119.321  0.00  0.00     0.028 C 
ATOM     12  C   LIG d   1      -9.845  93.707 119.930  0.00  0.00     0.006 C 
ENDBRANCH   8  11
ENDBRANCH   7   8
ENDBRANCH   1   7
BRANCH   6  13
ATOM     13  N   LIG d   1      -4.477  95.144 118.215  0.00  0.00    -0.311 N 
ATOM     14  C   LIG d   1      -4.273  95.809 119.350  0.00  0.00     0.210 C 
ATOM     15  C   LIG d   1      -3.792  97.253 119.177  0.00  0.00     0.109 C 
ATOM     16  O   LIG d   1      -4.412  95.329 120.486  0.00  0.00    -0.276 OA
ATOM     17  H   LIG d   1      -4.308  95.599 117.339  0.00  0.00     0.149 HD
ENDBRANCH   6  13
BRANCH   5  18
ATOM     18  N   LIG d   1      -2.692  92.695 117.827  0.00  0.00     0.381 N 
ATOM     19  H   LIG d   1      -2.587  91.797 118.256  0.00  0.00    -0.090 HD
ATOM     20  H   LIG d   1      -2.543  93.399 118.528  0.00  0.00    -0.090 HD
ATOM     21  H   LIG d   1      -2.027  92.800 117.093  0.00  0.00    -0.090 HD
ENDBRANCH   5  18
BRANCH   3  22
ATOM     22  C   LIG d   1      -6.520  90.351 116.158  0.00  0.00     0.382 C 
ATOM     23  O   LIG d   1      -7.749  90.262 115.922  0.00  0.00    -0.241 OA
ATOM     24  O   LIG d   1      -5.760  89.430 115.805  0.00  0.00    -0.241 OA
ENDBRANCH   3  22
TORSDOF 7
ENDMDL
MODEL 3
REMARK VINA RESULT:      -5.3      1.183      2.040
REMARK  7 active torsions:
REMARK  status: ('A' for Active; 'I' for Inactive)
REMARK    1  A    between atoms: C_2  and  C_3 
REMARK    2  A    between atoms: C_3  and  O_6 
REMARK    3  A    between atoms: C_3  and  C_4 
REMARK    4  A    between atoms: C_7  and  O_6 
REMARK    5  A    between atoms: C_9  and  C_10 
REMARK    6  A    between atoms: N_15  and  C_14 
REMARK    7  A    between atoms: N_20  and  C_19 
REMARK       I    between atoms: C_22  and  N_20 
ROOT
ATOM      1  C   LIG d   1      -8.979  76.746 117.917  0.00  0.00     0.161 C 
ATOM      2  C   LIG d   1      -8.693  75.407 117.601  0.00  0.00     0.016 C 
ATOM      3  C   LIG d   1      -7.489  74.993 116.985  0.00  0.00     0.038 C 
ATOM      4  C   LIG d   1      -6.419  75.876 116.780  0.00  0.00     0.028 C 
ATOM      5  C   LIG d   1      -6.855  77.329 116.621  0.00  0.00    -0.047 C 
ATOM      6  C   LIG d   1      -7.778  77.708 117.801  0.00  0.00     0.091 C 
ENDROOT
BRANCH   1   7
ATOM      7  O   LIG d   1      -9.559  76.824 119.234  0.00  0.00    -0.368 OA
BRANCH   7   8
ATOM      8  C   LIG d   1      -9.151  75.797 120.172  0.00  0.00     0.119 C 
BRANCH   8   9
ATOM      9  C   LIG d   1     -10.328  75.558 121.137  0.00  0.00     0.028 C 
ATOM     10  C   LIG d   1     -11.477  76.558 120.921  0.00  0.00     0.006 C 
ENDBRANCH   8   9
BRANCH   8  11
ATOM     11  C   LIG d   1      -7.995  76.277 121.054  0.00  0.00     0.028 C 
ATOM     12  C   LIG d   1      -8.046  75.690 122.474  0.00  0.00     0.006 C 
ENDBRANCH   8  11
ENDBRANCH   7   8
ENDBRANCH   1   7
BRANCH   6  13
ATOM     13  N   LIG d   1      -8.317  79.087 117.679  0.00  0.00    -0.311 N 
ATOM     14  C   LIG d   1      -7.971  80.085 118.491  0.00  0.00     0.210 C 
ATOM     15  C   LIG d   1      -8.660  81.422 118.203  0.00  0.00     0.109 C 
ATOM     16  O   LIG d   1      -7.135  79.996 119.403  0.00  0.00    -0.276 OA
ATOM     17  H   LIG d   1      -8.978  79.255 116.946  0.00  0.00     0.149 HD
ENDBRANCH   6  13
BRANCH   5  18
ATOM     18  N   LIG d   1      -5.635  78.155 116.552  0.00  0.00     0.381 N 
ATOM     19  H   LIG d   1      -4.827  77.575 116.656  0.00  0.00    -0.090 HD
ATOM     20  H   LIG d   1      -5.648  78.817 117.308  0.00  0.00    -0.090 HD
ATOM     21  H   LIG d   1      -5.598  78.636 115.681  0.00  0.00    -0.090 HD
ENDBRANCH   5  18
BRANCH   3  22
ATOM     22  C   LIG d   1      -7.363  73.688 116.532  0.00  0.00     0.382 C 
ATOM     23  O   LIG d   1      -6.392  73.369 115.805  0.00  0.00    -0.241 OA
ATOM     24  O   LIG d   1      -8.232  72.838 116.803  0.00  0.00    -0.241 OA
ENDBRANCH   3  22
TORSDOF 7
ENDMDL
MODEL 4
REMARK VINA RESULT:      -5.1      2.811      4.700
REMARK  7 active torsions:
REMARK  status: ('A' for Active; 'I' for Inactive)
REMARK    1  A    between atoms: C_2  and  C_3 
REMARK    2  A    between atoms: C_3  and  O_6 
REMARK    3  A    between atoms: C_3  and  C_4 
REMARK    4  A    between atoms: C_7  and  O_6 
REMARK    5  A    between atoms: C_9  and  C_10 
REMARK    6  A    between atoms: N_15  and  C_14 
REMARK    7  A    between atoms: N_20  and  C_19 
REMARK       I    between atoms: C_22  and  N_20 
ROOT
ATOM      1  C   LIG d   1      -7.466  77.967 119.368  0.00  0.00     0.161 C 
ATOM      2  C   LIG d   1      -6.264  78.220 118.686  0.00  0.00     0.016 C 
ATOM      3  C   LIG d   1      -5.868  77.523 117.522  0.00  0.00     0.038 C 
ATOM      4  C   LIG d   1      -6.724  76.623 116.869  0.00  0.00     0.028 C 
ATOM      5  C   LIG d   1      -7.737  75.967 117.801  0.00  0.00    -0.047 C 
ATOM      6  C   LIG d   1      -8.463  77.068 118.608  0.00  0.00     0.091 C 
ENDROOT
BRANCH   1   7
ATOM      7  O   LIG d   1      -8.092  79.213 119.732  0.00  0.00    -0.368 OA
BRANCH   7   8
ATOM      8  C   LIG d   1      -8.042  80.267 118.739  0.00  0.00     0.119 C 
BRANCH   8   9
ATOM      9  C   LIG d   1      -7.853  81.600 119.487  0.00  0.00     0.028 C 
ATOM     10  C   LIG d   1      -6.688  81.550 120.491  0.00  0.00     0.006 C 
ENDBRANCH   8   9
BRANCH   8  11
ATOM     11  C   LIG d   1      -9.378  80.401 118.001  0.00  0.00     0.028 C 
ATOM     12  C   LIG d   1      -9.569  81.787 117.364  0.00  0.00     0.006 C 
ENDBRANCH   8  11
ENDBRANCH   7   8
ENDBRANCH   1   7
BRANCH   6  13
ATOM     13  N   LIG d   1      -9.413  76.507 119.604  0.00  0.00    -0.311 N 
ATOM     14  C   LIG d   1     -10.721  76.756 119.591  0.00  0.00     0.210 C 
ATOM     15  C   LIG d   1     -11.516  76.095 120.721  0.00  0.00     0.109 C 
ATOM     16  O   LIG d   1     -11.303  77.436 118.733  0.00  0.00    -0.276 OA
ATOM     17  H   LIG d   1      -9.030  75.919 120.318  0.00  0.00     0.149 HD
ENDBRANCH   6  13
BRANCH   5  18
ATOM     18  N   LIG d   1      -8.652  75.162 116.969  0.00  0.00     0.381 N 
ATOM     19  H   LIG d   1      -9.520  75.032 117.448  0.00  0.00    -0.090 HD
ATOM     20  H   LIG d   1      -8.239  74.259 116.813  0.00  0.00    -0.090 HD
ATOM     21  H   LIG d   1      -8.810  75.618 116.097  0.00  0.00    -0.090 HD
ENDBRANCH   5  18
BRANCH   3  22
ATOM     22  C   LIG d   1      -4.586  77.694 117.021  0.00  0.00     0.382 C 
ATOM     23  O   LIG d   1      -3.694  78.201 117.742  0.00  0.00    -0.241 OA
ATOM     24  O   LIG d   1      -4.322  77.388 115.843  0.00  0.00    -0.241 OA
ENDBRANCH   3  22
TORSDOF 7
ENDMDL
MODEL 5
REMARK VINA RESULT:      -5.0     16.041     18.933
REMARK  7 active torsions:
REMARK  status: ('A' for Active; 'I' for Inactive)
REMARK    1  A    between atoms: C_2  and  C_3 
REMARK    2  A    between atoms: C_3  and  O_6 
REMARK    3  A    between atoms: C_3  and  C_4 
REMARK    4  A    between atoms: C_7  and  O_6 
REMARK    5  A    between atoms: C_9  and  C_10 
REMARK    6  A    between atoms: N_15  and  C_14 
REMARK    7  A    between atoms: N_20  and  C_19 
REMARK       I    between atoms: C_22  and  N_20 
ROOT
ATOM      1  C   LIG d   1       0.957  59.841 119.502  0.00  0.00     0.161 C 
ATOM      2  C   LIG d   1       2.291  59.811 119.941  0.00  0.00     0.016 C 
ATOM      3  C   LIG d   1       2.762  60.548 121.052  0.00  0.00     0.038 C 
ATOM      4  C   LIG d   1       1.892  61.252 121.897  0.00  0.00     0.028 C 
ATOM      5  C   LIG d   1       0.618  61.719 121.201  0.00  0.00    -0.047 C 
ATOM      6  C   LIG d   1      -0.029  60.516 120.478  0.00  0.00     0.091 C 
ENDROOT
BRANCH   1   7
ATOM      7  O   LIG d   1       0.516  58.505 119.188  0.00  0.00    -0.368 OA
BRANCH   7   8
ATOM      8  C   LIG d   1       0.530  58.143 117.785  0.00  0.00     0.119 C 
BRANCH   8   9
ATOM      9  C   LIG d   1       0.337  59.437 116.971  0.00  0.00     0.028 C 
ATOM     10  C   LIG d   1      -1.053  59.519 116.318  0.00  0.00     0.006 C 
ENDBRANCH   8   9
BRANCH   8  11
ATOM     11  C   LIG d   1      -0.667  57.257 117.427  0.00  0.00     0.028 C 
ATOM     12  C   LIG d   1      -0.285  55.778 117.262  0.00  0.00     0.006 C 
ENDBRANCH   8  11
ENDBRANCH   7   8
ENDBRANCH   1   7
BRANCH   6  13
ATOM     13  N   LIG d   1      -1.236  60.903 119.702  0.00  0.00    -0.311 N 
ATOM     14  C   LIG d   1      -2.470  60.873 120.202  0.00  0.00     0.210 C 
ATOM     15  C   LIG d   1      -3.573  61.293 119.226  0.00  0.00     0.109 C 
ATOM     16  O   LIG d   1      -2.752  60.570 121.371  0.00  0.00    -0.276 OA
ATOM     17  H   LIG d   1      -1.095  61.193 118.754  0.00  0.00     0.149 HD
ENDBRANCH   6  13
BRANCH   5  18
ATOM     18  N   LIG d   1      -0.257  62.316 122.228  0.00  0.00     0.381 N 
ATOM     19  H   LIG d   1      -0.777  61.597 122.690  0.00  0.00    -0.090 HD
ATOM     20  H   LIG d   1      -0.908  62.936 121.779  0.00  0.00    -0.090 HD
ATOM     21  H   LIG d   1       0.289  62.820 122.891  0.00  0.00    -0.090 HD
ENDBRANCH   5  18
BRANCH   3  22
ATOM     22  C   LIG d   1       4.124  60.617 121.303  0.00  0.00     0.382 C 
ATOM     23  O   LIG d   1       4.935  60.685 120.348  0.00  0.00    -0.241 OA
ATOM     24  O   LIG d   1       4.554  60.568 122.471  0.00  0.00    -0.241 OA
ENDBRANCH   3  22
TORSDOF 7
ENDMDL
MODEL 6
REMARK VINA RESULT:      -5.0     14.894     17.314
REMARK  7 active torsions:
REMARK  status: ('A' for Active; 'I' for Inactive)
REMARK    1  A    between atoms: C_2  and  C_3 
REMARK    2  A    between atoms: C_3  and  O_6 
REMARK    3  A    between atoms: C_3  and  C_4 
REMARK    4  A    between atoms: C_7  and  O_6 
REMARK    5  A    between atoms: C_9  and  C_10 
REMARK    6  A    between atoms: N_15  and  C_14 
REMARK    7  A    between atoms: N_20  and  C_19 
REMARK       I    between atoms: C_22  and  N_20 
ROOT
ATOM      1  C   LIG d   1      -3.909  92.855 117.899  0.00  0.00     0.161 C 
ATOM      2  C   LIG d   1      -5.066  93.633 117.732  0.00  0.00     0.016 C 
ATOM      3  C   LIG d   1      -6.201  93.195 117.010  0.00  0.00     0.038 C 
ATOM      4  C   LIG d   1      -6.313  91.881 116.531  0.00  0.00     0.028 C 
ATOM      5  C   LIG d   1      -4.968  91.225 116.240  0.00  0.00    -0.047 C 
ATOM      6  C   LIG d   1      -4.056  91.377 117.479  0.00  0.00     0.091 C 
ENDROOT
BRANCH   1   7
ATOM      7  O   LIG d   1      -3.453  92.944 119.263  0.00  0.00    -0.368 OA
BRANCH   7   8
ATOM      8  C   LIG d   1      -4.277  93.727 120.161  0.00  0.00     0.119 C 
BRANCH   8   9
ATOM      9  C   LIG d   1      -3.345  94.679 120.934  0.00  0.00     0.028 C 
ATOM     10  C   LIG d   1      -1.883  94.577 120.467  0.00  0.00     0.006 C 
ENDBRANCH   8   9
BRANCH   8  11
ATOM     11  C   LIG d   1      -4.932  92.845 121.228  0.00  0.00     0.028 C 
ATOM     12  C   LIG d   1      -6.450  92.705 121.035  0.00  0.00     0.006 C 
ENDBRANCH   8  11
ENDBRANCH   7   8
ENDBRANCH   1   7
BRANCH   6  13
ATOM     13  N   LIG d   1      -2.691  90.837 117.248  0.00  0.00    -0.311 N 
ATOM     14  C   LIG d   1      -2.319  89.609 117.605  0.00  0.00     0.210 C 
ATOM     15  C   LIG d   1      -0.860  89.259 117.292  0.00  0.00     0.109 C 
ATOM     16  O   LIG d   1      -3.067  88.765 118.121  0.00  0.00    -0.276 OA
ATOM     17  H   LIG d   1      -2.029  91.444 116.806  0.00  0.00     0.149 HD
ENDBRANCH   6  13
BRANCH   5  18
ATOM     18  N   LIG d   1      -5.226  89.818 115.881  0.00  0.00     0.381 N 
ATOM     19  H   LIG d   1      -6.129  89.737 115.456  0.00  0.00    -0.090 HD
ATOM     20  H   LIG d   1      -5.221  89.263 116.718  0.00  0.00    -0.090 HD
ATOM     21  H   LIG d   1      -4.525  89.492 115.253  0.00  0.00    -0.090 HD
ENDBRANCH   5  18
BRANCH   3  22
ATOM     22  C   LIG d   1      -7.222  94.089 116.726  0.00  0.00     0.382 C 
ATOM     23  O   LIG d   1      -8.036  93.839 115.805  0.00  0.00    -0.241 OA
ATOM     24  O   LIG d   1      -7.313  95.163 117.351  0.00  0.00    -0.241 OA
ENDBRANCH   3  22
TORSDOF 7
ENDMDL
MODEL 7
REMARK VINA RESULT:      -5.0     14.875     17.503
REMARK  7 active torsions:
REMARK  status: ('A' for Active; 'I' for Inactive)
REMARK    1  A    between atoms: C_2  and  C_3 
REMARK    2  A    between atoms: C_3  and  O_6 
REMARK    3  A    between atoms: C_3  and  C_4 
REMARK    4  A    between atoms: C_7  and  O_6 
REMARK    5  A    between atoms: C_9  and  C_10 
REMARK    6  A    between atoms: N_15  and  C_14 
REMARK    7  A    between atoms: N_20  and  C_19 
REMARK       I    between atoms: C_22  and  N_20 
ROOT
ATOM      1  C   LIG d   1      -3.838  92.722 117.795  0.00  0.00     0.161 C 
ATOM      2  C   LIG d   1      -4.977  93.535 117.673  0.00  0.00     0.016 C 
ATOM      3  C   LIG d   1      -6.148  93.137 116.988  0.00  0.00     0.038 C 
ATOM      4  C   LIG d   1      -6.316  91.830 116.505  0.00  0.00     0.028 C 
ATOM      5  C   LIG d   1      -5.002  91.137 116.163  0.00  0.00    -0.047 C 
ATOM      6  C   LIG d   1      -4.044  91.253 117.371  0.00  0.00     0.091 C 
ENDROOT
BRANCH   1   7
ATOM      7  O   LIG d   1      -3.333  92.789 119.143  0.00  0.00    -0.368 OA
BRANCH   7   8
ATOM      8  C   LIG d   1      -2.051  93.442 119.312  0.00  0.00     0.119 C 
BRANCH   8   9
ATOM      9  C   LIG d   1      -1.144  92.485 120.109  0.00  0.00     0.028 C 
ATOM     10  C   LIG d   1      -1.947  91.430 120.889  0.00  0.00     0.006 C 
ENDBRANCH   8   9
BRANCH   8  11
ATOM     11  C   LIG d   1      -2.176  94.699 120.179  0.00  0.00     0.028 C 
ATOM     12  C   LIG d   1      -0.863  95.066 120.889  0.00  0.00     0.006 C 
ENDBRANCH   8  11
ENDBRANCH   7   8
ENDBRANCH   1   7
BRANCH   6  13
ATOM     13  N   LIG d   1      -2.704  90.674 117.090  0.00  0.00    -0.311 N 
ATOM     14  C   LIG d   1      -2.267  89.539 117.634  0.00  0.00     0.210 C 
ATOM     15  C   LIG d   1      -0.849  89.131 117.225  0.00  0.00     0.109 C 
ATOM     16  O   LIG d   1      -2.932  88.816 118.391  0.00  0.00    -0.276 OA
ATOM     17  H   LIG d   1      -2.111  91.180 116.462  0.00  0.00     0.149 HD
ENDBRANCH   6  13
BRANCH   5  18
ATOM     18  N   LIG d   1      -5.314  89.741 115.805  0.00  0.00     0.381 N 
ATOM     19  H   LIG d   1      -5.196  89.609 114.820  0.00  0.00    -0.090 HD
ATOM     20  H   LIG d   1      -6.274  89.553 116.036  0.00  0.00    -0.090 HD
ATOM     21  H   LIG d   1      -4.717  89.119 116.304  0.00  0.00    -0.090 HD
ENDBRANCH   5  18
BRANCH   3  22
ATOM     22  C   LIG d   1      -7.151  94.063 116.745  0.00  0.00     0.382 C 
ATOM     23  O   LIG d   1      -7.229  95.100 117.446  0.00  0.00    -0.241 OA
ATOM     24  O   LIG d   1      -8.005  93.852 115.863  0.00  0.00    -0.241 OA
ENDBRANCH   3  22
TORSDOF 7
ENDMDL
MODEL 8
REMARK VINA RESULT:      -4.9     15.289     18.281
REMARK  7 active torsions:
REMARK  status: ('A' for Active; 'I' for Inactive)
REMARK    1  A    between atoms: C_2  and  C_3 
REMARK    2  A    between atoms: C_3  and  O_6 
REMARK    3  A    between atoms: C_3  and  C_4 
REMARK    4  A    between atoms: C_7  and  O_6 
REMARK    5  A    between atoms: C_9  and  C_10 
REMARK    6  A    between atoms: N_15  and  C_14 
REMARK    7  A    between atoms: N_20  and  C_19 
REMARK       I    between atoms: C_22  and  N_20 
ROOT
ATOM      1  C   LIG d   1      -5.148  93.446 118.550  0.00  0.00     0.161 C 
ATOM      2  C   LIG d   1      -4.992  92.200 117.920  0.00  0.00     0.016 C 
ATOM      3  C   LIG d   1      -5.909  91.685 116.975  0.00  0.00     0.038 C 
ATOM      4  C   LIG d   1      -6.973  92.453 116.480  0.00  0.00     0.028 C 
ATOM      5  C   LIG d   1      -7.457  93.519 117.457  0.00  0.00    -0.047 C 
ATOM      6  C   LIG d   1      -6.243  94.346 117.940  0.00  0.00     0.091 C 
ENDROOT
BRANCH   1   7
ATOM      7  O   LIG d   1      -3.886  94.141 118.577  0.00  0.00    -0.368 OA
BRANCH   7   8
ATOM      8  C   LIG d   1      -3.211  94.187 119.858  0.00  0.00     0.119 C 
BRANCH   8   9
ATOM      9  C   LIG d   1      -2.521  95.561 119.969  0.00  0.00     0.028 C 
ATOM     10  C   LIG d   1      -3.419  96.710 119.480  0.00  0.00     0.006 C 
ENDBRANCH   8   9
BRANCH   8  11
ATOM     11  C   LIG d   1      -2.080  93.158 119.929  0.00  0.00     0.028 C 
ATOM     12  C   LIG d   1      -1.356  92.974 118.586  0.00  0.00     0.006 C 
ENDBRANCH   8  11
ENDBRANCH   7   8
ENDBRANCH   1   7
BRANCH   6  13
ATOM     13  N   LIG d   1      -6.617  95.356 118.964  0.00  0.00    -0.311 N 
ATOM     14  C   LIG d   1      -7.032  96.586 118.663  0.00  0.00     0.210 C 
ATOM     15  C   LIG d   1      -7.347  97.475 119.870  0.00  0.00     0.109 C 
ATOM     16  O   LIG d   1      -7.200  97.014 117.511  0.00  0.00    -0.276 OA
ATOM     17  H   LIG d   1      -6.540  95.083 119.924  0.00  0.00     0.149 HD
ENDBRANCH   6  13
BRANCH   5  18
ATOM     18  N   LIG d   1      -8.472  94.333 116.763  0.00  0.00     0.381 N 
ATOM     19  H   LIG d   1      -9.373  94.166 117.163  0.00  0.00    -0.090 HD
ATOM     20  H   LIG d   1      -8.501  94.061 115.796  0.00  0.00    -0.090 HD
ATOM     21  H   LIG d   1      -8.242  95.300 116.836  0.00  0.00    -0.090 HD
ENDBRANCH   5  18
BRANCH   3  22
ATOM     22  C   LIG d   1      -5.789  90.372 116.545  0.00  0.00     0.382 C 
ATOM     23  O   LIG d   1      -6.808  89.733 116.189  0.00  0.00    -0.241 OA
ATOM     24  O   LIG d   1      -4.680  89.805 116.552  0.00  0.00    -0.241 OA
ENDBRANCH   3  22
TORSDOF 7
ENDMDL
MODEL 9
REMARK VINA RESULT:      -4.8      3.557      5.706
REMARK  7 active torsions:
REMARK  status: ('A' for Active; 'I' for Inactive)
REMARK    1  A    between atoms: C_2  and  C_3 
REMARK    2  A    between atoms: C_3  and  O_6 
REMARK    3  A    between atoms: C_3  and  C_4 
REMARK    4  A    between atoms: C_7  and  O_6 
REMARK    5  A    between atoms: C_9  and  C_10 
REMARK    6  A    between atoms: N_15  and  C_14 
REMARK    7  A    between atoms: N_20  and  C_19 
REMARK       I    between atoms: C_22  and  N_20 
ROOT
ATOM      1  C   LIG d   1      -8.407  79.836 120.590  0.00  0.00     0.161 C 
ATOM      2  C   LIG d   1      -8.133  78.669 119.859  0.00  0.00     0.016 C 
ATOM      3  C   LIG d   1      -8.596  78.449 118.541  0.00  0.00     0.038 C 
ATOM      4  C   LIG d   1      -9.243  79.454 117.806  0.00  0.00     0.028 C 
ATOM      5  C   LIG d   1      -9.982  80.462 118.678  0.00  0.00    -0.047 C 
ATOM      6  C   LIG d   1      -9.017  80.988 119.765  0.00  0.00     0.091 C 
ENDROOT
BRANCH   1   7
ATOM      7  O   LIG d   1      -7.215  80.281 121.267  0.00  0.00    -0.368 OA
BRANCH   7   8
ATOM      8  C   LIG d   1      -6.181  80.851 120.427  0.00  0.00     0.119 C 
BRANCH   8   9
ATOM      9  C   LIG d   1      -4.916  79.988 120.598  0.00  0.00     0.028 C 
ATOM     10  C   LIG d   1      -4.605  79.149 119.347  0.00  0.00     0.006 C 
ENDBRANCH   8   9
BRANCH   8  11
ATOM     11  C   LIG d   1      -5.784  82.251 120.906  0.00  0.00     0.028 C 
ATOM     12  C   LIG d   1      -4.282  82.532 120.745  0.00  0.00     0.006 C 
ENDBRANCH   8  11
ENDBRANCH   7   8
ENDBRANCH   1   7
BRANCH   6  13
ATOM     13  N   LIG d   1      -9.684  81.917 120.714  0.00  0.00    -0.311 N 
ATOM     14  C   LIG d   1      -9.467  83.231 120.728  0.00  0.00     0.210 C 
ATOM     15  C   LIG d   1     -10.242  84.003 121.801  0.00  0.00     0.109 C 
ATOM     16  O   LIG d   1      -8.731  83.835 119.934  0.00  0.00    -0.276 OA
ATOM     17  H   LIG d   1     -10.322  81.516 121.373  0.00  0.00     0.149 HD
ENDBRANCH   6  13
BRANCH   5  18
ATOM     18  N   LIG d   1     -10.493  81.527 117.794  0.00  0.00     0.381 N 
ATOM     19  H   LIG d   1     -11.324  81.215 117.333  0.00  0.00    -0.090 HD
ATOM     20  H   LIG d   1      -9.801  81.727 117.093  0.00  0.00    -0.090 HD
ATOM     21  H   LIG d   1     -10.686  82.348 118.325  0.00  0.00    -0.090 HD
ENDBRANCH   5  18
BRANCH   3  22
ATOM     22  C   LIG d   1      -8.448  77.199 117.960  0.00  0.00     0.382 C 
ATOM     23  O   LIG d   1      -7.307  76.689 117.851  0.00  0.00    -0.241 OA
ATOM     24  O   LIG d   1      -9.436  76.594 117.502  0.00  0.00    -0.241 OA
ENDBRANCH   3  22
TORSDOF 7
ENDMDL
