MODEL 1
REMARK VINA RESULT:      -5.2      0.000      0.000
REMARK  7 active torsions:
REMARK  status: ('A' for Active; 'I' for Inactive)
REMARK    1  A    between atoms: C_2  and  C_3 
REMARK    2  A    between atoms: C_3  and  O_6 
REMARK    3  A    between atoms: C_3  and  C_4 
REMARK    4  A    between atoms: C_7  and  O_6 
REMARK    5  A    between atoms: C_9  and  C_10 
REMARK    6  A    between atoms: N_15  and  C_14 
REMARK    7  A    between atoms: N_20  and  C_19 
REMARK       I    between atoms: C_22  and  N_20 
ROOT
ATOM      1  C   LIG d   1      -1.175  60.265 118.848  0.00  0.00     0.161 C 
ATOM      2  C   LIG d   1       0.131  59.989 118.411  0.00  0.00     0.016 C 
ATOM      3  C   LIG d   1       1.152  59.510 119.264  0.00  0.00     0.038 C 
ATOM      4  C   LIG d   1       0.894  59.130 120.589  0.00  0.00     0.028 C 
ATOM      5  C   LIG d   1      -0.288  59.866 121.211  0.00  0.00    -0.047 C 
ATOM      6  C   LIG d   1      -1.505  59.751 120.265  0.00  0.00     0.091 C 
ENDROOT
BRANCH   1   7
ATOM      7  O   LIG d   1      -2.127  59.754 117.895  0.00  0.00    -0.368 OA
BRANCH   7   8
ATOM      8  C   LIG d   1      -2.450  58.346 118.008  0.00  0.00     0.119 C 
BRANCH   8   9
ATOM      9  C   LIG d   1      -2.025  57.667 116.692  0.00  0.00     0.028 C 
ATOM     10  C   LIG d   1      -0.761  56.806 116.856  0.00  0.00     0.006 C 
ENDBRANCH   8   9
BRANCH   8  11
ATOM     11  C   LIG d   1      -3.962  58.127 118.108  0.00  0.00     0.028 C 
ATOM     12  C   LIG d   1      -4.769  59.402 117.819  0.00  0.00     0.006 C 
ENDBRANCH   8  11
ENDBRANCH   7   8
ENDBRANCH   1   7
BRANCH   6  13
ATOM     13  N   LIG d   1      -2.681  60.514 120.758  0.00  0.00    -0.311 N 
ATOM     14  C   LIG d   1      -3.676  59.963 121.451  0.00  0.00     0.210 C 
ATOM     15  C   LIG d   1      -4.800  60.925 121.845  0.00  0.00     0.109 C 
ATOM     16  O   LIG d   1      -3.718  58.774 121.803  0.00  0.00    -0.276 OA
ATOM     17  H   LIG d   1      -2.712  61.492 120.543  0.00  0.00     0.149 HD
ENDBRANCH   6  13
BRANCH   5  18
ATOM     18  N   LIG d   1      -0.532  59.275 122.541  0.00  0.00     0.381 N 
ATOM     19  H   LIG d   1      -0.082  58.383 122.603  0.00  0.00    -0.090 HD
ATOM     20  H   LIG d   1      -1.520  59.138 122.660  0.00  0.00    -0.090 HD
ATOM     21  H   LIG d   1      -0.185  59.880 123.252  0.00  0.00    -0.090 HD
ENDBRANCH   5  18
BRANCH   3  22
ATOM     22  C   LIG d   1       2.459  59.446 118.804  0.00  0.00     0.382 C 
ATOM     23  O   LIG d   1       2.905  60.349 118.055  0.00  0.00    -0.241 OA
ATOM     24  O   LIG d   1       3.183  58.474 119.091  0.00  0.00    -0.241 OA
ENDBRANCH   3  22
TORSDOF 7
ENDMDL
MODEL 2
REMARK VINA RESULT:      -5.0      2.410      5.751
REMARK  7 active torsions:
REMARK  status: ('A' for Active; 'I' for Inactive)
REMARK    1  A    between atoms: C_2  and  C_3 
REMARK    2  A    between atoms: C_3  and  O_6 
REMARK    3  A    between atoms: C_3  and  C_4 
REMARK    4  A    between atoms: C_7  and  O_6 
REMARK    5  A    between atoms: C_9  and  C_10 
REMARK    6  A    between atoms: N_15  and  C_14 
REMARK    7  A    between atoms: N_20  and  C_19 
REMARK       I    between atoms: C_22  and  N_20 
ROOT
ATOM      1  C   LIG d   1      -0.992  60.137 119.444  0.00  0.00     0.161 C 
ATOM      2  C   LIG d   1      -2.343  59.882 119.156  0.00  0.00     0.016 C 
ATOM      3  C   LIG d   1      -2.782  59.273 117.958  0.00  0.00     0.038 C 
ATOM      4  C   LIG d   1      -1.881  58.737 117.026  0.00  0.00     0.028 C 
ATOM      5  C   LIG d   1      -0.518  59.421 117.037  0.00  0.00    -0.047 C 
ATOM      6  C   LIG d   1       0.012  59.458 118.489  0.00  0.00     0.091 C 
ENDROOT
BRANCH   1   7
ATOM      7  O   LIG d   1      -0.707  59.775 120.810  0.00  0.00    -0.368 OA
BRANCH   7   8
ATOM      8  C   LIG d   1      -0.480  58.366 121.062  0.00  0.00     0.119 C 
BRANCH   8   9
ATOM      9  C   LIG d   1      -1.550  57.898 122.068  0.00  0.00     0.028 C 
ATOM     10  C   LIG d   1      -2.619  57.007 121.414  0.00  0.00     0.006 C 
ENDBRANCH   8   9
BRANCH   8  11
ATOM     11  C   LIG d   1       0.862  58.135 121.761  0.00  0.00     0.028 C 
ATOM     12  C   LIG d   1       1.540  59.443 122.198  0.00  0.00     0.006 C 
ENDBRANCH   8  11
ENDBRANCH   7   8
ENDBRANCH   1   7
BRANCH   6  13
ATOM     13  N   LIG d   1       1.303  60.186 118.602  0.00  0.00    -0.311 N 
ATOM     14  C   LIG d   1       2.488  59.578 118.620  0.00  0.00     0.210 C 
ATOM     15  C   LIG d   1       3.692  60.514 118.764  0.00  0.00     0.109 C 
ATOM     16  O   LIG d   1       2.658  58.356 118.498  0.00  0.00    -0.276 OA
ATOM     17  H   LIG d   1       1.259  61.184 118.674  0.00  0.00     0.149 HD
ENDBRANCH   6  13
BRANCH   5  18
ATOM     18  N   LIG d   1       0.363  58.675 116.119  0.00  0.00     0.381 N 
ATOM     19  H   LIG d   1      -0.025  58.683 115.197  0.00  0.00    -0.090 HD
ATOM     20  H   LIG d   1       0.422  57.721 116.428  0.00  0.00    -0.090 HD
ATOM     21  H   LIG d   1       1.270  59.086 116.109  0.00  0.00    -0.090 HD
ENDBRANCH   5  18
BRANCH   3  22
ATOM     22  C   LIG d   1      -4.137  59.232 117.664  0.00  0.00     0.382 C 
ATOM     23  O   LIG d   1      -4.824  58.242 118.014  0.00  0.00    -0.241 OA
ATOM     24  O   LIG d   1      -4.670  60.151 117.014  0.00  0.00    -0.241 OA
ENDBRANCH   3  22
TORSDOF 7
ENDMDL
MODEL 3
REMARK VINA RESULT:      -4.9      2.432      3.710
REMARK  7 active torsions:
REMARK  status: ('A' for Active; 'I' for Inactive)
REMARK    1  A    between atoms: C_2  and  C_3 
REMARK    2  A    between atoms: C_3  and  O_6 
REMARK    3  A    between atoms: C_3  and  C_4 
REMARK    4  A    between atoms: C_7  and  O_6 
REMARK    5  A    between atoms: C_9  and  C_10 
REMARK    6  A    between atoms: N_15  and  C_14 
REMARK    7  A    between atoms: N_20  and  C_19 
REMARK       I    between atoms: C_22  and  N_20 
ROOT
ATOM      1  C   LIG d   1      -1.272  59.000 118.732  0.00  0.00     0.161 C 
ATOM      2  C   LIG d   1      -0.051  59.661 118.952  0.00  0.00     0.016 C 
ATOM      3  C   LIG d   1       1.182  59.213 118.423  0.00  0.00     0.038 C 
ATOM      4  C   LIG d   1       1.255  58.153 117.509  0.00  0.00     0.028 C 
ATOM      5  C   LIG d   1       0.119  57.146 117.656  0.00  0.00    -0.047 C 
ATOM      6  C   LIG d   1      -1.228  57.905 117.646  0.00  0.00     0.091 C 
ENDROOT
BRANCH   1   7
ATOM      7  O   LIG d   1      -2.301  59.963 118.432  0.00  0.00    -0.368 OA
BRANCH   7   8
ATOM      8  C   LIG d   1      -3.297  60.174 119.463  0.00  0.00     0.119 C 
BRANCH   8   9
ATOM      9  C   LIG d   1      -4.643  60.436 118.760  0.00  0.00     0.028 C 
ATOM     10  C   LIG d   1      -4.955  59.387 117.680  0.00  0.00     0.006 C 
ENDBRANCH   8   9
BRANCH   8  11
ATOM     11  C   LIG d   1      -3.005  61.444 120.268  0.00  0.00     0.028 C 
ATOM     12  C   LIG d   1      -2.305  61.155 121.605  0.00  0.00     0.006 C 
ENDBRANCH   8  11
ENDBRANCH   7   8
ENDBRANCH   1   7
BRANCH   6  13
ATOM     13  N   LIG d   1      -2.388  57.003 117.870  0.00  0.00    -0.311 N 
ATOM     14  C   LIG d   1      -2.581  56.324 118.999  0.00  0.00     0.210 C 
ATOM     15  C   LIG d   1      -3.830  55.436 119.014  0.00  0.00     0.109 C 
ATOM     16  O   LIG d   1      -1.855  56.397 120.002  0.00  0.00    -0.276 OA
ATOM     17  H   LIG d   1      -3.044  56.909 117.120  0.00  0.00     0.149 HD
ENDBRANCH   6  13
BRANCH   5  18
ATOM     18  N   LIG d   1       0.241  56.172 116.555  0.00  0.00     0.381 N 
ATOM     19  H   LIG d   1       1.199  55.904 116.444  0.00  0.00    -0.090 HD
ATOM     20  H   LIG d   1      -0.066  56.605 115.702  0.00  0.00    -0.090 HD
ATOM     21  H   LIG d   1      -0.315  55.368 116.748  0.00  0.00    -0.090 HD
ENDBRANCH   5  18
BRANCH   3  22
ATOM     22  C   LIG d   1       2.364  59.806 118.841  0.00  0.00     0.382 C 
ATOM     23  O   LIG d   1       3.009  60.540 118.055  0.00  0.00    -0.241 OA
ATOM     24  O   LIG d   1       2.815  59.580 119.980  0.00  0.00    -0.241 OA
ENDBRANCH   3  22
TORSDOF 7
ENDMDL
MODEL 4
REMARK VINA RESULT:      -4.8      2.813      5.648
REMARK  7 active torsions:
REMARK  status: ('A' for Active; 'I' for Inactive)
REMARK    1  A    between atoms: C_2  and  C_3 
REMARK    2  A    between atoms: C_3  and  O_6 
REMARK    3  A    between atoms: C_3  and  C_4 
REMARK    4  A    between atoms: C_7  and  O_6 
REMARK    5  A    between atoms: C_9  and  C_10 
REMARK    6  A    between atoms: N_15  and  C_14 
REMARK    7  A    between atoms: N_20  and  C_19 
REMARK       I    between atoms: C_22  and  N_20 
ROOT
ATOM      1  C   LIG d   1      -1.351  58.405 119.760  0.00  0.00     0.161 C 
ATOM      2  C   LIG d   1      -2.680  58.706 119.419  0.00  0.00     0.016 C 
ATOM      3  C   LIG d   1      -3.075  59.132 118.130  0.00  0.00     0.038 C 
ATOM      4  C   LIG d   1      -2.184  59.141 117.047  0.00  0.00     0.028 C 
ATOM      5  C   LIG d   1      -0.729  59.329 117.461  0.00  0.00    -0.047 C 
ATOM      6  C   LIG d   1      -0.383  58.301 118.563  0.00  0.00     0.091 C 
ENDROOT
BRANCH   1   7
ATOM      7  O   LIG d   1      -1.310  57.195 120.544  0.00  0.00    -0.368 OA
BRANCH   7   8
ATOM      8  C   LIG d   1      -1.379  55.953 119.802  0.00  0.00     0.119 C 
BRANCH   8   9
ATOM      9  C   LIG d   1      -2.690  55.248 120.200  0.00  0.00     0.028 C 
ATOM     10  C   LIG d   1      -3.712  55.218 119.051  0.00  0.00     0.006 C 
ENDBRANCH   8   9
BRANCH   8  11
ATOM     11  C   LIG d   1      -0.260  54.993 120.217  0.00  0.00     0.028 C 
ATOM     12  C   LIG d   1       0.656  55.580 121.302  0.00  0.00     0.006 C 
ENDBRANCH   8  11
ENDBRANCH   7   8
ENDBRANCH   1   7
BRANCH   6  13
ATOM     13  N   LIG d   1       0.998  58.472 119.085  0.00  0.00    -0.311 N 
ATOM     14  C   LIG d   1       2.043  57.782 118.632  0.00  0.00     0.210 C 
ATOM     15  C   LIG d   1       3.374  58.098 119.321  0.00  0.00     0.109 C 
ATOM     16  O   LIG d   1       2.000  56.961 117.703  0.00  0.00    -0.276 OA
ATOM     17  H   LIG d   1       1.129  59.140 119.819  0.00  0.00     0.149 HD
ENDBRANCH   6  13
BRANCH   5  18
ATOM     18  N   LIG d   1       0.102  59.180 116.251  0.00  0.00     0.381 N 
ATOM     19  H   LIG d   1      -0.061  59.949 115.632  0.00  0.00    -0.090 HD
ATOM     20  H   LIG d   1      -0.160  58.333 115.779  0.00  0.00    -0.090 HD
ATOM     21  H   LIG d   1       1.066  59.145 116.501  0.00  0.00    -0.090 HD
ENDBRANCH   5  18
BRANCH   3  22
ATOM     22  C   LIG d   1      -4.366  59.594 117.925  0.00  0.00     0.382 C 
ATOM     23  O   LIG d   1      -4.620  60.817 118.037  0.00  0.00    -0.241 OA
ATOM     24  O   LIG d   1      -5.290  58.797 117.673  0.00  0.00    -0.241 OA
ENDBRANCH   3  22
TORSDOF 7
ENDMDL
MODEL 5
REMARK VINA RESULT:      -4.8     32.926     34.584
REMARK  7 active torsions:
REMARK  status: ('A' for Active; 'I' for Inactive)
REMARK    1  A    between atoms: C_2  and  C_3 
REMARK    2  A    between atoms: C_3  and  O_6 
REMARK    3  A    between atoms: C_3  and  C_4 
REMARK    4  A    between atoms: C_7  and  O_6 
REMARK    5  A    between atoms: C_9  and  C_10 
REMARK    6  A    between atoms: N_15  and  C_14 
REMARK    7  A    between atoms: N_20  and  C_19 
REMARK       I    between atoms: C_22  and  N_20 
ROOT
ATOM      1  C   LIG d   1      -5.565  93.426 118.695  0.00  0.00     0.161 C 
ATOM      2  C   LIG d   1      -6.235  92.325 118.136  0.00  0.00     0.016 C 
ATOM      3  C   LIG d   1      -5.584  91.312 117.396  0.00  0.00     0.038 C 
ATOM      4  C   LIG d   1      -4.187  91.252 117.290  0.00  0.00     0.028 C 
ATOM      5  C   LIG d   1      -3.512  92.614 117.409  0.00  0.00    -0.047 C 
ATOM      6  C   LIG d   1      -4.026  93.320 118.685  0.00  0.00     0.091 C 
ENDROOT
BRANCH   1   7
ATOM      7  O   LIG d   1      -6.043  93.661 120.034  0.00  0.00    -0.368 OA
BRANCH   7   8
ATOM      8  C   LIG d   1      -6.802  94.879 120.236  0.00  0.00     0.119 C 
BRANCH   8   9
ATOM      9  C   LIG d   1      -8.270  94.475 120.473  0.00  0.00     0.028 C 
ATOM     10  C   LIG d   1      -8.397  93.178 121.291  0.00  0.00     0.006 C 
ENDBRANCH   8   9
BRANCH   8  11
ATOM     11  C   LIG d   1      -6.818  95.741 118.971  0.00  0.00     0.028 C 
ATOM     12  C   LIG d   1      -6.103  97.089 119.159  0.00  0.00     0.006 C 
ENDBRANCH   8  11
ENDBRANCH   7   8
ENDBRANCH   1   7
BRANCH   6  13
ATOM     13  N   LIG d   1      -3.479  94.694 118.832  0.00  0.00    -0.311 N 
ATOM     14  C   LIG d   1      -2.387  94.976 119.540  0.00  0.00     0.210 C 
ATOM     15  C   LIG d   1      -2.006  96.459 119.579  0.00  0.00     0.109 C 
ATOM     16  O   LIG d   1      -1.678  94.134 120.113  0.00  0.00    -0.276 OA
ATOM     17  H   LIG d   1      -3.974  95.433 118.374  0.00  0.00     0.149 HD
ENDBRANCH   6  13
BRANCH   5  18
ATOM     18  N   LIG d   1      -2.054  92.390 117.420  0.00  0.00     0.381 N 
ATOM     19  H   LIG d   1      -1.642  92.797 116.604  0.00  0.00    -0.090 HD
ATOM     20  H   LIG d   1      -1.877  91.401 117.403  0.00  0.00    -0.090 HD
ATOM     21  H   LIG d   1      -1.653  92.792 118.239  0.00  0.00    -0.090 HD
ENDBRANCH   5  18
BRANCH   3  22
ATOM     22  C   LIG d   1      -6.337  90.366 116.716  0.00  0.00     0.382 C 
ATOM     23  O   LIG d   1      -5.769  89.398 116.155  0.00  0.00    -0.241 OA
ATOM     24  O   LIG d   1      -7.573  90.492 116.621  0.00  0.00    -0.241 OA
ENDBRANCH   3  22
TORSDOF 7
ENDMDL
MODEL 6
REMARK VINA RESULT:      -4.8      2.932      5.271
REMARK  7 active torsions:
REMARK  status: ('A' for Active; 'I' for Inactive)
REMARK    1  A    between atoms: C_2  and  C_3 
REMARK    2  A    between atoms: C_3  and  O_6 
REMARK    3  A    between atoms: C_3  and  C_4 
REMARK    4  A    between atoms: C_7  and  O_6 
REMARK    5  A    between atoms: C_9  and  C_10 
REMARK    6  A    between atoms: N_15  and  C_14 
REMARK    7  A    between atoms: N_20  and  C_19 
REMARK       I    between atoms: C_22  and  N_20 
ROOT
ATOM      1  C   LIG d   1      -0.588  57.528 119.774  0.00  0.00     0.161 C 
ATOM      2  C   LIG d   1      -1.458  58.616 119.959  0.00  0.00     0.016 C 
ATOM      3  C   LIG d   1      -1.221  59.901 119.421  0.00  0.00     0.038 C 
ATOM      4  C   LIG d   1      -0.168  60.149 118.528  0.00  0.00     0.028 C 
ATOM      5  C   LIG d   1       1.019  59.209 118.716  0.00  0.00    -0.047 C 
ATOM      6  C   LIG d   1       0.508  57.750 118.711  0.00  0.00     0.091 C 
ENDROOT
BRANCH   1   7
ATOM      7  O   LIG d   1      -1.348  56.341 119.469  0.00  0.00    -0.368 OA
BRANCH   7   8
ATOM      8  C   LIG d   1      -1.692  56.146 118.076  0.00  0.00     0.119 C 
BRANCH   8   9
ATOM      9  C   LIG d   1      -3.225  56.259 117.957  0.00  0.00     0.028 C 
ATOM     10  C   LIG d   1      -3.952  55.697 119.190  0.00  0.00     0.006 C 
ENDBRANCH   8   9
BRANCH   8  11
ATOM     11  C   LIG d   1      -1.354  54.726 117.612  0.00  0.00     0.028 C 
ATOM     12  C   LIG d   1      -0.682  53.885 118.710  0.00  0.00     0.006 C 
ENDBRANCH   8  11
ENDBRANCH   7   8
ENDBRANCH   1   7
BRANCH   6  13
ATOM     13  N   LIG d   1       1.594  56.769 118.973  0.00  0.00    -0.311 N 
ATOM     14  C   LIG d   1       2.231  56.107 118.010  0.00  0.00     0.210 C 
ATOM     15  C   LIG d   1       3.303  55.128 118.499  0.00  0.00     0.109 C 
ATOM     16  O   LIG d   1       2.033  56.260 116.795  0.00  0.00    -0.276 OA
ATOM     17  H   LIG d   1       1.840  56.607 119.930  0.00  0.00     0.149 HD
ENDBRANCH   6  13
BRANCH   5  18
ATOM     18  N   LIG d   1       1.983  59.488 117.635  0.00  0.00     0.381 N 
ATOM     19  H   LIG d   1       2.105  60.476 117.536  0.00  0.00    -0.090 HD
ATOM     20  H   LIG d   1       1.616  59.128 116.771  0.00  0.00    -0.090 HD
ATOM     21  H   LIG d   1       2.857  59.056 117.839  0.00  0.00    -0.090 HD
ENDBRANCH   5  18
BRANCH   3  22
ATOM     22  C   LIG d   1      -2.022  60.966 119.807  0.00  0.00     0.382 C 
ATOM     23  O   LIG d   1      -3.099  61.191 119.205  0.00  0.00    -0.241 OA
ATOM     24  O   LIG d   1      -1.658  61.731 120.720  0.00  0.00    -0.241 OA
ENDBRANCH   3  22
TORSDOF 7
ENDMDL
MODEL 7
REMARK VINA RESULT:      -4.7     30.972     32.636
REMARK  7 active torsions:
REMARK  status: ('A' for Active; 'I' for Inactive)
REMARK    1  A    between atoms: C_2  and  C_3 
REMARK    2  A    between atoms: C_3  and  O_6 
REMARK    3  A    between atoms: C_3  and  C_4 
REMARK    4  A    between atoms: C_7  and  O_6 
REMARK    5  A    between atoms: C_9  and  C_10 
REMARK    6  A    between atoms: N_15  and  C_14 
REMARK    7  A    between atoms: N_20  and  C_19 
REMARK       I    between atoms: C_22  and  N_20 
ROOT
ATOM      1  C   LIG d   1      -3.404  92.270 118.031  0.00  0.00     0.161 C 
ATOM      2  C   LIG d   1      -4.682  92.832 117.874  0.00  0.00     0.016 C 
ATOM      3  C   LIG d   1      -5.714  92.220 117.125  0.00  0.00     0.038 C 
ATOM      4  C   LIG d   1      -5.584  90.924 116.604  0.00  0.00     0.028 C 
ATOM      5  C   LIG d   1      -4.141  90.532 116.309  0.00  0.00    -0.047 C 
ATOM      6  C   LIG d   1      -3.280  90.804 117.563  0.00  0.00     0.091 C 
ENDROOT
BRANCH   1   7
ATOM      7  O   LIG d   1      -2.980  92.395 119.403  0.00  0.00    -0.368 OA
BRANCH   7   8
ATOM      8  C   LIG d   1      -3.555  91.448 120.337  0.00  0.00     0.119 C 
BRANCH   8   9
ATOM      9  C   LIG d   1      -4.367  92.252 121.371  0.00  0.00     0.028 C 
ATOM     10  C   LIG d   1      -5.884  92.065 121.199  0.00  0.00     0.006 C 
ENDBRANCH   8   9
BRANCH   8  11
ATOM     11  C   LIG d   1      -2.468  90.731 121.143  0.00  0.00     0.028 C 
ATOM     12  C   LIG d   1      -1.063  91.301 120.888  0.00  0.00     0.006 C 
ENDBRANCH   8  11
ENDBRANCH   7   8
ENDBRANCH   1   7
BRANCH   6  13
ATOM     13  N   LIG d   1      -1.838  90.527 117.333  0.00  0.00    -0.311 N 
ATOM     14  C   LIG d   1      -1.237  89.403 117.719  0.00  0.00     0.210 C 
ATOM     15  C   LIG d   1       0.260  89.327 117.401  0.00  0.00     0.109 C 
ATOM     16  O   LIG d   1      -1.808  88.447 118.266  0.00  0.00    -0.276 OA
ATOM     17  H   LIG d   1      -1.306  91.235 116.867  0.00  0.00     0.149 HD
ENDBRANCH   6  13
BRANCH   5  18
ATOM     18  N   LIG d   1      -4.139  89.113 115.904  0.00  0.00     0.381 N 
ATOM     19  H   LIG d   1      -3.275  88.892 115.449  0.00  0.00    -0.090 HD
ATOM     20  H   LIG d   1      -4.887  88.961 115.251  0.00  0.00    -0.090 HD
ATOM     21  H   LIG d   1      -4.261  88.530 116.702  0.00  0.00    -0.090 HD
ENDBRANCH   5  18
BRANCH   3  22
ATOM     22  C   LIG d   1      -6.878  92.925 116.857  0.00  0.00     0.382 C 
ATOM     23  O   LIG d   1      -7.557  92.648 115.839  0.00  0.00    -0.241 OA
ATOM     24  O   LIG d   1      -7.233  93.863 117.595  0.00  0.00    -0.241 OA
ENDBRANCH   3  22
TORSDOF 7
ENDMDL
MODEL 8
REMARK VINA RESULT:      -4.7      2.581      5.276
REMARK  7 active torsions:
REMARK  status: ('A' for Active; 'I' for Inactive)
REMARK    1  A    between atoms: C_2  and  C_3 
REMARK    2  A    between atoms: C_3  and  O_6 
REMARK    3  A    between atoms: C_3  and  C_4 
REMARK    4  A    between atoms: C_7  and  O_6 
REMARK    5  A    between atoms: C_9  and  C_10 
REMARK    6  A    between atoms: N_15  and  C_14 
REMARK    7  A    between atoms: N_20  and  C_19 
REMARK       I    between atoms: C_22  and  N_20 
ROOT
ATOM      1  C   LIG d   1      -1.542  58.497 118.133  0.00  0.00     0.161 C 
ATOM      2  C   LIG d   1      -2.645  57.630 118.198  0.00  0.00     0.016 C 
ATOM      3  C   LIG d   1      -2.627  56.398 118.892  0.00  0.00     0.038 C 
ATOM      4  C   LIG d   1      -1.544  56.017 119.699  0.00  0.00     0.028 C 
ATOM      5  C   LIG d   1      -0.217  56.623 119.256  0.00  0.00    -0.047 C 
ATOM      6  C   LIG d   1      -0.389  58.151 119.099  0.00  0.00     0.091 C 
ENDROOT
BRANCH   1   7
ATOM      7  O   LIG d   1      -1.975  59.856 118.337  0.00  0.00    -0.368 OA
BRANCH   7   8
ATOM      8  C   LIG d   1      -2.582  60.146 119.621  0.00  0.00     0.119 C 
BRANCH   8   9
ATOM      9  C   LIG d   1      -3.802  61.051 119.362  0.00  0.00     0.028 C 
ATOM     10  C   LIG d   1      -5.087  60.245 119.106  0.00  0.00     0.006 C 
ENDBRANCH   8   9
BRANCH   8  11
ATOM     11  C   LIG d   1      -1.644  60.972 120.506  0.00  0.00     0.028 C 
ATOM     12  C   LIG d   1      -2.295  61.393 121.833  0.00  0.00     0.006 C 
ENDBRANCH   8  11
ENDBRANCH   7   8
ENDBRANCH   1   7
BRANCH   6  13
ATOM     13  N   LIG d   1       0.840  58.811 118.588  0.00  0.00    -0.311 N 
ATOM     14  C   LIG d   1       1.751  59.377 119.377  0.00  0.00     0.210 C 
ATOM     15  C   LIG d   1       2.933  60.019 118.644  0.00  0.00     0.109 C 
ATOM     16  O   LIG d   1       1.709  59.380 120.617  0.00  0.00    -0.276 OA
ATOM     17  H   LIG d   1       0.970  58.827 117.595  0.00  0.00     0.149 HD
ENDBRANCH   6  13
BRANCH   5  18
ATOM     18  N   LIG d   1       0.798  56.256 120.262  0.00  0.00     0.381 N 
ATOM     19  H   LIG d   1       1.258  55.412 119.987  0.00  0.00    -0.090 HD
ATOM     20  H   LIG d   1       0.340  56.093 121.141  0.00  0.00    -0.090 HD
ATOM     21  H   LIG d   1       1.464  56.990 120.358  0.00  0.00    -0.090 HD
ENDBRANCH   5  18
BRANCH   3  22
ATOM     22  C   LIG d   1      -3.685  55.513 118.749  0.00  0.00     0.382 C 
ATOM     23  O   LIG d   1      -4.658  55.568 119.539  0.00  0.00    -0.241 OA
ATOM     24  O   LIG d   1      -3.658  54.633 117.868  0.00  0.00    -0.241 OA
ENDBRANCH   3  22
TORSDOF 7
ENDMDL
MODEL 9
REMARK VINA RESULT:      -4.5     18.966     20.950
REMARK  7 active torsions:
REMARK  status: ('A' for Active; 'I' for Inactive)
REMARK    1  A    between atoms: C_2  and  C_3 
REMARK    2  A    between atoms: C_3  and  O_6 
REMARK    3  A    between atoms: C_3  and  C_4 
REMARK    4  A    between atoms: C_7  and  O_6 
REMARK    5  A    between atoms: C_9  and  C_10 
REMARK    6  A    between atoms: N_15  and  C_14 
REMARK    7  A    between atoms: N_20  and  C_19 
REMARK       I    between atoms: C_22  and  N_20 
ROOT
ATOM      1  C   LIG d   1      -8.935  78.190 118.732  0.00  0.00     0.161 C 
ATOM      2  C   LIG d   1      -8.663  79.344 117.978  0.00  0.00     0.016 C 
ATOM      3  C   LIG d   1      -8.820  80.657 118.480  0.00  0.00     0.038 C 
ATOM      4  C   LIG d   1      -9.116  80.904 119.828  0.00  0.00     0.028 C 
ATOM      5  C   LIG d   1      -9.891  79.773 120.496  0.00  0.00    -0.047 C 
ATOM      6  C   LIG d   1      -9.153  78.440 120.239  0.00  0.00     0.091 C 
ENDROOT
BRANCH   1   7
ATOM      7  O   LIG d   1      -7.891  77.218 118.531  0.00  0.00    -0.368 OA
BRANCH   7   8
ATOM      8  C   LIG d   1      -7.106  77.366 117.321  0.00  0.00     0.119 C 
BRANCH   8   9
ATOM      9  C   LIG d   1      -7.169  76.026 116.562  0.00  0.00     0.028 C 
ATOM     10  C   LIG d   1      -8.610  75.517 116.388  0.00  0.00     0.006 C 
ENDBRANCH   8   9
BRANCH   8  11
ATOM     11  C   LIG d   1      -5.624  77.582 117.641  0.00  0.00     0.028 C 
ATOM     12  C   LIG d   1      -5.079  78.902 117.076  0.00  0.00     0.006 C 
ENDBRANCH   8  11
ENDBRANCH   7   8
ENDBRANCH   1   7
BRANCH   6  13
ATOM     13  N   LIG d   1      -9.888  77.270 120.787  0.00  0.00    -0.311 N 
ATOM     14  C   LIG d   1      -9.314  76.325 121.530  0.00  0.00     0.210 C 
ATOM     15  C   LIG d   1     -10.249  75.196 121.976  0.00  0.00     0.109 C 
ATOM     16  O   LIG d   1      -8.127  76.332 121.888  0.00  0.00    -0.276 OA
ATOM     17  H   LIG d   1     -10.863  77.202 120.570  0.00  0.00     0.149 HD
ENDBRANCH   6  13
BRANCH   5  18
ATOM     18  N   LIG d   1     -10.012  80.101 121.929  0.00  0.00     0.381 N 
ATOM     19  H   LIG d   1     -10.970  80.038 122.211  0.00  0.00    -0.090 HD
ATOM     20  H   LIG d   1      -9.702  81.046 122.073  0.00  0.00    -0.090 HD
ATOM     21  H   LIG d   1      -9.457  79.475 122.470  0.00  0.00    -0.090 HD
ENDBRANCH   5  18
BRANCH   3  22
ATOM     22  C   LIG d   1      -8.718  81.738 117.618  0.00  0.00     0.382 C 
ATOM     23  O   LIG d   1      -7.964  81.674 116.617  0.00  0.00    -0.241 OA
ATOM     24  O   LIG d   1      -9.337  82.794 117.853  0.00  0.00    -0.241 OA
ENDBRANCH   3  22
TORSDOF 7
ENDMDL
