MODEL 1
REMARK VINA RESULT:      -5.6      0.000      0.000
REMARK  7 active torsions:
REMARK  status: ('A' for Active; 'I' for Inactive)
REMARK    1  A    between atoms: C_2  and  C_3 
REMARK    2  A    between atoms: C_3  and  O_6 
REMARK    3  A    between atoms: C_3  and  C_4 
REMARK    4  A    between atoms: C_7  and  O_6 
REMARK    5  A    between atoms: C_9  and  C_10 
REMARK    6  A    between atoms: N_15  and  C_14 
REMARK    7  A    between atoms: N_20  and  C_19 
REMARK       I    between atoms: C_22  and  N_20 
ROOT
ATOM      1  C   LIG d   1      -0.331  60.995 119.069  0.00  0.00     0.161 C 
ATOM      2  C   LIG d   1      -1.733  60.914 119.021  0.00  0.00     0.016 C 
ATOM      3  C   LIG d   1      -2.431  59.921 118.297  0.00  0.00     0.038 C 
ATOM      4  C   LIG d   1      -1.768  58.843 117.689  0.00  0.00     0.028 C 
ATOM      5  C   LIG d   1      -0.333  59.164 117.287  0.00  0.00    -0.047 C 
ATOM      6  C   LIG d   1       0.407  59.764 118.504  0.00  0.00     0.091 C 
ENDROOT
BRANCH   1   7
ATOM      7  O   LIG d   1       0.097  61.260 120.419  0.00  0.00    -0.368 OA
BRANCH   7   8
ATOM      8  C   LIG d   1      -0.097  60.187 121.372  0.00  0.00     0.119 C 
BRANCH   8   9
ATOM      9  C   LIG d   1      -1.183  60.641 122.367  0.00  0.00     0.028 C 
ATOM     10  C   LIG d   1      -2.337  59.630 122.478  0.00  0.00     0.006 C 
ENDBRANCH   8   9
BRANCH   8  11
ATOM     11  C   LIG d   1       1.158  59.959 122.219  0.00  0.00     0.028 C 
ATOM     12  C   LIG d   1       2.291  60.941 121.882  0.00  0.00     0.006 C 
ENDBRANCH   8  11
ENDBRANCH   7   8
ENDBRANCH   1   7
BRANCH   6  13
ATOM     13  N   LIG d   1       1.794  60.184 118.174  0.00  0.00    -0.311 N 
ATOM     14  C   LIG d   1       2.878  59.542 118.608  0.00  0.00     0.210 C 
ATOM     15  C   LIG d   1       4.211  60.153 118.167  0.00  0.00     0.109 C 
ATOM     16  O   LIG d   1       2.860  58.506 119.289  0.00  0.00    -0.276 OA
ATOM     17  H   LIG d   1       1.900  60.997 117.599  0.00  0.00     0.149 HD
ENDBRANCH   6  13
BRANCH   5  18
ATOM     18  N   LIG d   1       0.281  57.917 116.794  0.00  0.00     0.381 N 
ATOM     19  H   LIG d   1      -0.302  57.506 116.092  0.00  0.00    -0.090 HD
ATOM     20  H   LIG d   1       0.359  57.269 117.558  0.00  0.00    -0.090 HD
ATOM     21  H   LIG d   1       1.183  58.107 116.416  0.00  0.00    -0.090 HD
ENDBRANCH   5  18
BRANCH   3  22
ATOM     22  C   LIG d   1      -3.805  60.022 118.141  0.00  0.00     0.382 C 
ATOM     23  O   LIG d   1      -4.550  59.093 118.537  0.00  0.00    -0.241 OA
ATOM     24  O   LIG d   1      -4.305  61.009 117.569  0.00  0.00    -0.241 OA
ENDBRANCH   3  22
TORSDOF 7
ENDMDL
MODEL 2
REMARK VINA RESULT:      -5.3     32.026     33.051
REMARK  7 active torsions:
REMARK  status: ('A' for Active; 'I' for Inactive)
REMARK    1  A    between atoms: C_2  and  C_3 
REMARK    2  A    between atoms: C_3  and  O_6 
REMARK    3  A    between atoms: C_3  and  C_4 
REMARK    4  A    between atoms: C_7  and  O_6 
REMARK    5  A    between atoms: C_9  and  C_10 
REMARK    6  A    between atoms: N_15  and  C_14 
REMARK    7  A    between atoms: N_20  and  C_19 
REMARK       I    between atoms: C_22  and  N_20 
ROOT
ATOM      1  C   LIG d   1      -5.241  93.150 118.494  0.00  0.00     0.161 C 
ATOM      2  C   LIG d   1      -6.558  93.617 118.346  0.00  0.00     0.016 C 
ATOM      3  C   LIG d   1      -7.482  93.062 117.431  0.00  0.00     0.038 C 
ATOM      4  C   LIG d   1      -7.197  91.897 116.704  0.00  0.00     0.028 C 
ATOM      5  C   LIG d   1      -5.708  91.691 116.449  0.00  0.00    -0.047 C 
ATOM      6  C   LIG d   1      -4.948  91.808 117.790  0.00  0.00     0.091 C 
ENDROOT
BRANCH   1   7
ATOM      7  O   LIG d   1      -4.908  93.064 119.894  0.00  0.00    -0.368 OA
BRANCH   7   8
ATOM      8  C   LIG d   1      -4.066  94.122 120.414  0.00  0.00     0.119 C 
BRANCH   8   9
ATOM      9  C   LIG d   1      -2.689  93.505 120.729  0.00  0.00     0.028 C 
ATOM     10  C   LIG d   1      -2.793  92.042 121.190  0.00  0.00     0.006 C 
ENDBRANCH   8   9
BRANCH   8  11
ATOM     11  C   LIG d   1      -4.592  94.645 121.754  0.00  0.00     0.028 C 
ATOM     12  C   LIG d   1      -5.825  93.875 122.251  0.00  0.00     0.006 C 
ENDBRANCH   8  11
ENDBRANCH   7   8
ENDBRANCH   1   7
BRANCH   6  13
ATOM     13  N   LIG d   1      -3.476  91.703 117.618  0.00  0.00    -0.311 N 
ATOM     14  C   LIG d   1      -2.812  90.550 117.670  0.00  0.00     0.210 C 
ATOM     15  C   LIG d   1      -1.296  90.667 117.488  0.00  0.00     0.109 C 
ATOM     16  O   LIG d   1      -3.339  89.437 117.819  0.00  0.00    -0.276 OA
ATOM     17  H   LIG d   1      -2.973  92.555 117.462  0.00  0.00     0.149 HD
ENDBRANCH   6  13
BRANCH   5  18
ATOM     18  N   LIG d   1      -5.544  90.373 115.805  0.00  0.00     0.381 N 
ATOM     19  H   LIG d   1      -6.391  90.118 115.337  0.00  0.00    -0.090 HD
ATOM     20  H   LIG d   1      -5.356  89.686 116.514  0.00  0.00    -0.090 HD
ATOM     21  H   LIG d   1      -4.791  90.403 115.154  0.00  0.00    -0.090 HD
ENDBRANCH   5  18
BRANCH   3  22
ATOM     22  C   LIG d   1      -8.693  93.699 117.206  0.00  0.00     0.382 C 
ATOM     23  O   LIG d   1      -9.435  93.995 118.174  0.00  0.00    -0.241 OA
ATOM     24  O   LIG d   1      -9.074  93.941 116.045  0.00  0.00    -0.241 OA
ENDBRANCH   3  22
TORSDOF 7
ENDMDL
MODEL 3
REMARK VINA RESULT:      -5.3      2.452      3.128
REMARK  7 active torsions:
REMARK  status: ('A' for Active; 'I' for Inactive)
REMARK    1  A    between atoms: C_2  and  C_3 
REMARK    2  A    between atoms: C_3  and  O_6 
REMARK    3  A    between atoms: C_3  and  C_4 
REMARK    4  A    between atoms: C_7  and  O_6 
REMARK    5  A    between atoms: C_9  and  C_10 
REMARK    6  A    between atoms: N_15  and  C_14 
REMARK    7  A    between atoms: N_20  and  C_19 
REMARK       I    between atoms: C_22  and  N_20 
ROOT
ATOM      1  C   LIG d   1      -0.161  58.798 119.609  0.00  0.00     0.161 C 
ATOM      2  C   LIG d   1      -1.537  58.530 119.699  0.00  0.00     0.016 C 
ATOM      3  C   LIG d   1      -2.416  58.591 118.593  0.00  0.00     0.038 C 
ATOM      4  C   LIG d   1      -1.949  58.778 117.284  0.00  0.00     0.028 C 
ATOM      5  C   LIG d   1      -0.637  59.553 117.215  0.00  0.00    -0.047 C 
ATOM      6  C   LIG d   1       0.386  58.895 118.170  0.00  0.00     0.091 C 
ENDROOT
BRANCH   1   7
ATOM      7  O   LIG d   1       0.578  57.815 120.361  0.00  0.00    -0.368 OA
BRANCH   7   8
ATOM      8  C   LIG d   1      -0.080  56.541 120.565  0.00  0.00     0.119 C 
BRANCH   8   9
ATOM      9  C   LIG d   1       0.309  56.038 121.968  0.00  0.00     0.028 C 
ATOM     10  C   LIG d   1      -0.490  54.793 122.388  0.00  0.00     0.006 C 
ENDBRANCH   8   9
BRANCH   8  11
ATOM     11  C   LIG d   1       0.446  55.480 119.593  0.00  0.00     0.028 C 
ATOM     12  C   LIG d   1      -0.533  55.184 118.447  0.00  0.00     0.006 C 
ENDBRANCH   8  11
ENDBRANCH   7   8
ENDBRANCH   1   7
BRANCH   6  13
ATOM     13  N   LIG d   1       1.670  59.641 118.226  0.00  0.00    -0.311 N 
ATOM     14  C   LIG d   1       2.859  59.047 118.313  0.00  0.00     0.210 C 
ATOM     15  C   LIG d   1       4.055  60.002 118.379  0.00  0.00     0.109 C 
ATOM     16  O   LIG d   1       3.039  57.820 118.311  0.00  0.00    -0.276 OA
ATOM     17  H   LIG d   1       1.619  60.640 118.202  0.00  0.00     0.149 HD
ENDBRANCH   6  13
BRANCH   5  18
ATOM     18  N   LIG d   1      -0.195  59.555 115.807  0.00  0.00     0.381 N 
ATOM     19  H   LIG d   1       0.670  59.059 115.723  0.00  0.00    -0.090 HD
ATOM     20  H   LIG d   1      -0.043  60.505 115.516  0.00  0.00    -0.090 HD
ATOM     21  H   LIG d   1      -0.888  59.131 115.231  0.00  0.00    -0.090 HD
ENDBRANCH   5  18
BRANCH   3  22
ATOM     22  C   LIG d   1      -3.785  58.504 118.798  0.00  0.00     0.382 C 
ATOM     23  O   LIG d   1      -4.539  59.422 118.396  0.00  0.00    -0.241 OA
ATOM     24  O   LIG d   1      -4.271  57.539 119.418  0.00  0.00    -0.241 OA
ENDBRANCH   3  22
TORSDOF 7
ENDMDL
MODEL 4
REMARK VINA RESULT:      -5.1     32.259     33.281
REMARK  7 active torsions:
REMARK  status: ('A' for Active; 'I' for Inactive)
REMARK    1  A    between atoms: C_2  and  C_3 
REMARK    2  A    between atoms: C_3  and  O_6 
REMARK    3  A    between atoms: C_3  and  C_4 
REMARK    4  A    between atoms: C_7  and  O_6 
REMARK    5  A    between atoms: C_9  and  C_10 
REMARK    6  A    between atoms: N_15  and  C_14 
REMARK    7  A    between atoms: N_20  and  C_19 
REMARK       I    between atoms: C_22  and  N_20 
ROOT
ATOM      1  C   LIG d   1      -5.384  93.095 118.896  0.00  0.00     0.161 C 
ATOM      2  C   LIG d   1      -6.724  93.517 118.887  0.00  0.00     0.016 C 
ATOM      3  C   LIG d   1      -7.676  93.066 117.943  0.00  0.00     0.038 C 
ATOM      4  C   LIG d   1      -7.387  92.040 117.032  0.00  0.00     0.028 C 
ATOM      5  C   LIG d   1      -5.907  91.945 116.674  0.00  0.00    -0.047 C 
ATOM      6  C   LIG d   1      -5.079  91.892 117.978  0.00  0.00     0.091 C 
ENDROOT
BRANCH   1   7
ATOM      7  O   LIG d   1      -4.970  92.812 120.247  0.00  0.00    -0.368 OA
BRANCH   7   8
ATOM      8  C   LIG d   1      -4.036  93.749 120.837  0.00  0.00     0.119 C 
BRANCH   8   9
ATOM      9  C   LIG d   1      -3.842  94.902 119.834  0.00  0.00     0.028 C 
ATOM     10  C   LIG d   1      -4.275  96.261 120.410  0.00  0.00     0.006 C 
ENDBRANCH   8   9
BRANCH   8  11
ATOM     11  C   LIG d   1      -2.650  93.122 121.008  0.00  0.00     0.028 C 
ATOM     12  C   LIG d   1      -1.599  93.735 120.069  0.00  0.00     0.006 C 
ENDBRANCH   8  11
ENDBRANCH   7   8
ENDBRANCH   1   7
BRANCH   6  13
ATOM     13  N   LIG d   1      -3.615  91.884 117.720  0.00  0.00    -0.311 N 
ATOM     14  C   LIG d   1      -2.881  90.773 117.699  0.00  0.00     0.210 C 
ATOM     15  C   LIG d   1      -1.388  90.989 117.434  0.00  0.00     0.109 C 
ATOM     16  O   LIG d   1      -3.330  89.625 117.842  0.00  0.00    -0.276 OA
ATOM     17  H   LIG d   1      -3.175  92.769 117.562  0.00  0.00     0.149 HD
ENDBRANCH   6  13
BRANCH   5  18
ATOM     18  N   LIG d   1      -5.729  90.751 115.827  0.00  0.00     0.381 N 
ATOM     19  H   LIG d   1      -6.177  90.893 114.944  0.00  0.00    -0.090 HD
ATOM     20  H   LIG d   1      -6.161  89.965 116.278  0.00  0.00    -0.090 HD
ATOM     21  H   LIG d   1      -4.758  90.573 115.690  0.00  0.00    -0.090 HD
ENDBRANCH   5  18
BRANCH   3  22
ATOM     22  C   LIG d   1      -8.921  93.672 117.880  0.00  0.00     0.382 C 
ATOM     23  O   LIG d   1      -9.148  94.548 117.012  0.00  0.00    -0.241 OA
ATOM     24  O   LIG d   1      -9.806  93.385 118.709  0.00  0.00    -0.241 OA
ENDBRANCH   3  22
TORSDOF 7
ENDMDL
MODEL 5
REMARK VINA RESULT:      -5.0     33.129     34.294
REMARK  7 active torsions:
REMARK  status: ('A' for Active; 'I' for Inactive)
REMARK    1  A    between atoms: C_2  and  C_3 
REMARK    2  A    between atoms: C_3  and  O_6 
REMARK    3  A    between atoms: C_3  and  C_4 
REMARK    4  A    between atoms: C_7  and  O_6 
REMARK    5  A    between atoms: C_9  and  C_10 
REMARK    6  A    between atoms: N_15  and  C_14 
REMARK    7  A    between atoms: N_20  and  C_19 
REMARK       I    between atoms: C_22  and  N_20 
ROOT
ATOM      1  C   LIG d   1      -5.292  93.207 118.975  0.00  0.00     0.161 C 
ATOM      2  C   LIG d   1      -6.541  93.060 118.350  0.00  0.00     0.016 C 
ATOM      3  C   LIG d   1      -7.597  93.990 118.492  0.00  0.00     0.038 C 
ATOM      4  C   LIG d   1      -7.421  95.216 119.152  0.00  0.00     0.028 C 
ATOM      5  C   LIG d   1      -6.336  95.176 120.224  0.00  0.00    -0.047 C 
ATOM      6  C   LIG d   1      -5.044  94.592 119.608  0.00  0.00     0.091 C 
ENDROOT
BRANCH   1   7
ATOM      7  O   LIG d   1      -4.239  92.887 118.043  0.00  0.00    -0.368 OA
BRANCH   7   8
ATOM      8  C   LIG d   1      -3.345  91.816 118.436  0.00  0.00     0.119 C 
BRANCH   8   9
ATOM      9  C   LIG d   1      -1.903  92.338 118.285  0.00  0.00     0.028 C 
ATOM     10  C   LIG d   1      -1.121  92.294 119.608  0.00  0.00     0.006 C 
ENDBRANCH   8   9
BRANCH   8  11
ATOM     11  C   LIG d   1      -3.448  90.625 117.478  0.00  0.00     0.028 C 
ATOM     12  C   LIG d   1      -2.689  89.388 117.982  0.00  0.00     0.006 C 
ENDBRANCH   8  11
ENDBRANCH   7   8
ENDBRANCH   1   7
BRANCH   6  13
ATOM     13  N   LIG d   1      -3.957  94.440 120.611  0.00  0.00    -0.311 N 
ATOM     14  C   LIG d   1      -3.046  95.381 120.852  0.00  0.00     0.210 C 
ATOM     15  C   LIG d   1      -2.002  95.013 121.911  0.00  0.00     0.109 C 
ATOM     16  O   LIG d   1      -3.023  96.498 120.314  0.00  0.00    -0.276 OA
ATOM     17  H   LIG d   1      -3.921  93.576 121.116  0.00  0.00     0.149 HD
ENDBRANCH   6  13
BRANCH   5  18
ATOM     18  N   LIG d   1      -6.164  96.549 120.734  0.00  0.00     0.381 N 
ATOM     19  H   LIG d   1      -7.053  96.930 120.989  0.00  0.00    -0.090 HD
ATOM     20  H   LIG d   1      -5.773  97.120 120.005  0.00  0.00    -0.090 HD
ATOM     21  H   LIG d   1      -5.557  96.546 121.524  0.00  0.00    -0.090 HD
ENDBRANCH   5  18
BRANCH   3  22
ATOM     22  C   LIG d   1      -8.857  93.680 118.004  0.00  0.00     0.382 C 
ATOM     23  O   LIG d   1      -9.097  93.785 116.777  0.00  0.00    -0.241 OA
ATOM     24  O   LIG d   1      -9.769  93.339 118.781  0.00  0.00    -0.241 OA
ENDBRANCH   3  22
TORSDOF 7
ENDMDL
MODEL 6
REMARK VINA RESULT:      -4.9     18.633     20.239
REMARK  7 active torsions:
REMARK  status: ('A' for Active; 'I' for Inactive)
REMARK    1  A    between atoms: C_2  and  C_3 
REMARK    2  A    between atoms: C_3  and  O_6 
REMARK    3  A    between atoms: C_3  and  C_4 
REMARK    4  A    between atoms: C_7  and  O_6 
REMARK    5  A    between atoms: C_9  and  C_10 
REMARK    6  A    between atoms: N_15  and  C_14 
REMARK    7  A    between atoms: N_20  and  C_19 
REMARK       I    between atoms: C_22  and  N_20 
ROOT
ATOM      1  C   LIG d   1      -6.832  78.347 117.647  0.00  0.00     0.161 C 
ATOM      2  C   LIG d   1      -6.539  77.077 117.125  0.00  0.00     0.016 C 
ATOM      3  C   LIG d   1      -7.482  76.025 117.061  0.00  0.00     0.038 C 
ATOM      4  C   LIG d   1      -8.834  76.221 117.380  0.00  0.00     0.028 C 
ATOM      5  C   LIG d   1      -9.062  77.343 118.387  0.00  0.00    -0.047 C 
ATOM      6  C   LIG d   1      -8.331  78.614 117.897  0.00  0.00     0.091 C 
ENDROOT
BRANCH   1   7
ATOM      7  O   LIG d   1      -6.277  79.367 116.793  0.00  0.00    -0.368 OA
BRANCH   7   8
ATOM      8  C   LIG d   1      -5.114  80.063 117.304  0.00  0.00     0.119 C 
BRANCH   8   9
ATOM      9  C   LIG d   1      -3.867  79.375 116.717  0.00  0.00     0.028 C 
ATOM     10  C   LIG d   1      -2.925  78.839 117.808  0.00  0.00     0.006 C 
ENDBRANCH   8   9
BRANCH   8  11
ATOM     11  C   LIG d   1      -4.990  79.902 118.822  0.00  0.00     0.028 C 
ATOM     12  C   LIG d   1      -5.213  81.219 119.582  0.00  0.00     0.006 C 
ENDBRANCH   8  11
ENDBRANCH   7   8
ENDBRANCH   1   7
BRANCH   6  13
ATOM     13  N   LIG d   1      -8.433  79.736 118.866  0.00  0.00    -0.311 N 
ATOM     14  C   LIG d   1      -9.360  80.689 118.788  0.00  0.00     0.210 C 
ATOM     15  C   LIG d   1      -9.275  81.764 119.877  0.00  0.00     0.109 C 
ATOM     16  O   LIG d   1     -10.265  80.729 117.941  0.00  0.00    -0.276 OA
ATOM     17  H   LIG d   1      -7.758  79.764 119.604  0.00  0.00     0.149 HD
ENDBRANCH   6  13
BRANCH   5  18
ATOM     18  N   LIG d   1     -10.519  77.530 118.522  0.00  0.00     0.381 N 
ATOM     19  H   LIG d   1     -10.855  78.119 117.786  0.00  0.00    -0.090 HD
ATOM     20  H   LIG d   1     -10.708  77.983 119.399  0.00  0.00    -0.090 HD
ATOM     21  H   LIG d   1     -10.981  76.648 118.489  0.00  0.00    -0.090 HD
ENDBRANCH   5  18
BRANCH   3  22
ATOM     22  C   LIG d   1      -7.065  74.749 116.713  0.00  0.00     0.382 C 
ATOM     23  O   LIG d   1      -6.075  74.597 115.959  0.00  0.00    -0.241 OA
ATOM     24  O   LIG d   1      -7.695  73.749 117.108  0.00  0.00    -0.241 OA
ENDBRANCH   3  22
TORSDOF 7
ENDMDL
MODEL 7
REMARK VINA RESULT:      -4.8      2.610      5.947
REMARK  7 active torsions:
REMARK  status: ('A' for Active; 'I' for Inactive)
REMARK    1  A    between atoms: C_2  and  C_3 
REMARK    2  A    between atoms: C_3  and  O_6 
REMARK    3  A    between atoms: C_3  and  C_4 
REMARK    4  A    between atoms: C_7  and  O_6 
REMARK    5  A    between atoms: C_9  and  C_10 
REMARK    6  A    between atoms: N_15  and  C_14 
REMARK    7  A    between atoms: N_20  and  C_19 
REMARK       I    between atoms: C_22  and  N_20 
ROOT
ATOM      1  C   LIG d   1       0.110  59.092 117.521  0.00  0.00     0.161 C 
ATOM      2  C   LIG d   1       1.507  59.060 117.672  0.00  0.00     0.016 C 
ATOM      3  C   LIG d   1       2.187  59.671 118.751  0.00  0.00     0.038 C 
ATOM      4  C   LIG d   1       1.500  60.231 119.839  0.00  0.00     0.028 C 
ATOM      5  C   LIG d   1       0.104  60.730 119.482  0.00  0.00    -0.047 C 
ATOM      6  C   LIG d   1      -0.663  59.601 118.755  0.00  0.00     0.091 C 
ENDROOT
BRANCH   1   7
ATOM      7  O   LIG d   1      -0.369  57.789 117.133  0.00  0.00    -0.368 OA
BRANCH   7   8
ATOM      8  C   LIG d   1       0.254  56.658 117.790  0.00  0.00     0.119 C 
BRANCH   8   9
ATOM      9  C   LIG d   1       0.258  55.486 116.790  0.00  0.00     0.028 C 
ATOM     10  C   LIG d   1       1.465  54.553 116.984  0.00  0.00     0.006 C 
ENDBRANCH   8   9
BRANCH   8  11
ATOM     11  C   LIG d   1      -0.581  56.175 118.979  0.00  0.00     0.028 C 
ATOM     12  C   LIG d   1       0.163  56.296 120.318  0.00  0.00     0.006 C 
ENDBRANCH   8  11
ENDBRANCH   7   8
ENDBRANCH   1   7
BRANCH   6  13
ATOM     13  N   LIG d   1      -2.008  60.034 118.296  0.00  0.00    -0.311 N 
ATOM     14  C   LIG d   1      -3.119  59.855 119.009  0.00  0.00     0.210 C 
ATOM     15  C   LIG d   1      -4.403  60.357 118.342  0.00  0.00     0.109 C 
ATOM     16  O   LIG d   1      -3.158  59.356 120.144  0.00  0.00    -0.276 OA
ATOM     17  H   LIG d   1      -2.064  60.477 117.400  0.00  0.00     0.149 HD
ENDBRANCH   6  13
BRANCH   5  18
ATOM     18  N   LIG d   1      -0.549  61.161 120.732  0.00  0.00     0.381 N 
ATOM     19  H   LIG d   1      -0.925  60.366 121.209  0.00  0.00    -0.090 HD
ATOM     20  H   LIG d   1      -1.306  61.781 120.507  0.00  0.00    -0.090 HD
ATOM     21  H   LIG d   1       0.109  61.627 121.317  0.00  0.00    -0.090 HD
ENDBRANCH   5  18
BRANCH   3  22
ATOM     22  C   LIG d   1       3.570  59.762 118.728  0.00  0.00     0.382 C 
ATOM     23  O   LIG d   1       4.140  60.429 117.831  0.00  0.00    -0.241 OA
ATOM     24  O   LIG d   1       4.257  59.149 119.566  0.00  0.00    -0.241 OA
ENDBRANCH   3  22
TORSDOF 7
ENDMDL
MODEL 8
REMARK VINA RESULT:      -4.8     33.800     35.015
REMARK  7 active torsions:
REMARK  status: ('A' for Active; 'I' for Inactive)
REMARK    1  A    between atoms: C_2  and  C_3 
REMARK    2  A    between atoms: C_3  and  O_6 
REMARK    3  A    between atoms: C_3  and  C_4 
REMARK    4  A    between atoms: C_7  and  O_6 
REMARK    5  A    between atoms: C_9  and  C_10 
REMARK    6  A    between atoms: N_15  and  C_14 
REMARK    7  A    between atoms: N_20  and  C_19 
REMARK       I    between atoms: C_22  and  N_20 
ROOT
ATOM      1  C   LIG d   1      -5.960  93.790 118.879  0.00  0.00     0.161 C 
ATOM      2  C   LIG d   1      -5.427  92.684 118.196  0.00  0.00     0.016 C 
ATOM      3  C   LIG d   1      -6.009  92.135 117.030  0.00  0.00     0.038 C 
ATOM      4  C   LIG d   1      -7.086  92.754 116.377  0.00  0.00     0.028 C 
ATOM      5  C   LIG d   1      -7.965  93.580 117.310  0.00  0.00    -0.047 C 
ATOM      6  C   LIG d   1      -7.070  94.546 118.119  0.00  0.00     0.091 C 
ENDROOT
BRANCH   1   7
ATOM      7  O   LIG d   1      -4.899  94.694 119.246  0.00  0.00    -0.368 OA
BRANCH   7   8
ATOM      8  C   LIG d   1      -4.769  94.983 120.660  0.00  0.00     0.119 C 
BRANCH   8   9
ATOM      9  C   LIG d   1      -4.571  96.504 120.805  0.00  0.00     0.028 C 
ATOM     10  C   LIG d   1      -4.702  97.244 119.464  0.00  0.00     0.006 C 
ENDBRANCH   8   9
BRANCH   8  11
ATOM     11  C   LIG d   1      -3.501  94.351 121.243  0.00  0.00     0.028 C 
ATOM     12  C   LIG d   1      -2.433  94.066 120.176  0.00  0.00     0.006 C 
ENDBRANCH   8  11
ENDBRANCH   7   8
ENDBRANCH   1   7
BRANCH   6  13
ATOM     13  N   LIG d   1      -7.842  95.332 119.116  0.00  0.00    -0.311 N 
ATOM     14  C   LIG d   1      -8.369  96.528 118.858  0.00  0.00     0.210 C 
ATOM     15  C   LIG d   1      -9.109  97.176 120.032  0.00  0.00     0.109 C 
ATOM     16  O   LIG d   1      -8.321  97.099 117.758  0.00  0.00    -0.276 OA
ATOM     17  H   LIG d   1      -7.956  94.930 120.026  0.00  0.00     0.149 HD
ENDBRANCH   6  13
BRANCH   5  18
ATOM     18  N   LIG d   1      -8.964  94.278 116.478  0.00  0.00     0.381 N 
ATOM     19  H   LIG d   1      -9.578  93.611 116.054  0.00  0.00    -0.090 HD
ATOM     20  H   LIG d   1      -8.488  94.777 115.748  0.00  0.00    -0.090 HD
ATOM     21  H   LIG d   1      -9.489  94.914 117.037  0.00  0.00    -0.090 HD
ENDBRANCH   5  18
BRANCH   3  22
ATOM     22  C   LIG d   1      -5.538  90.932 116.527  0.00  0.00     0.382 C 
ATOM     23  O   LIG d   1      -4.357  90.576 116.757  0.00  0.00    -0.241 OA
ATOM     24  O   LIG d   1      -6.264  90.219 115.809  0.00  0.00    -0.241 OA
ENDBRANCH   3  22
TORSDOF 7
ENDMDL
MODEL 9
REMARK VINA RESULT:      -4.8     31.788     32.905
REMARK  7 active torsions:
REMARK  status: ('A' for Active; 'I' for Inactive)
REMARK    1  A    between atoms: C_2  and  C_3 
REMARK    2  A    between atoms: C_3  and  O_6 
REMARK    3  A    between atoms: C_3  and  C_4 
REMARK    4  A    between atoms: C_7  and  O_6 
REMARK    5  A    between atoms: C_9  and  C_10 
REMARK    6  A    between atoms: N_15  and  C_14 
REMARK    7  A    between atoms: N_20  and  C_19 
REMARK       I    between atoms: C_22  and  N_20 
ROOT
ATOM      1  C   LIG d   1      -3.786  91.974 118.295  0.00  0.00     0.161 C 
ATOM      2  C   LIG d   1      -4.677  91.526 117.306  0.00  0.00     0.016 C 
ATOM      3  C   LIG d   1      -5.974  92.058 117.128  0.00  0.00     0.038 C 
ATOM      4  C   LIG d   1      -6.416  93.186 117.835  0.00  0.00     0.028 C 
ATOM      5  C   LIG d   1      -5.741  93.353 119.193  0.00  0.00    -0.047 C 
ATOM      6  C   LIG d   1      -4.209  93.278 119.003  0.00  0.00     0.091 C 
ENDROOT
BRANCH   1   7
ATOM      7  O   LIG d   1      -2.464  92.113 117.737  0.00  0.00    -0.368 OA
BRANCH   7   8
ATOM      8  C   LIG d   1      -1.499  91.104 118.124  0.00  0.00     0.119 C 
BRANCH   8   9
ATOM      9  C   LIG d   1      -2.213  90.120 119.071  0.00  0.00     0.028 C 
ATOM     10  C   LIG d   1      -2.189  88.675 118.543  0.00  0.00     0.006 C 
ENDBRANCH   8   9
BRANCH   8  11
ATOM     11  C   LIG d   1      -0.361  91.709 118.951  0.00  0.00     0.028 C 
ATOM     12  C   LIG d   1      -0.115  93.192 118.629  0.00  0.00     0.006 C 
ENDBRANCH   8  11
ENDBRANCH   7   8
ENDBRANCH   1   7
BRANCH   6  13
ATOM     13  N   LIG d   1      -3.474  93.348 120.294  0.00  0.00    -0.311 N 
ATOM     14  C   LIG d   1      -2.955  94.473 120.782  0.00  0.00     0.210 C 
ATOM     15  C   LIG d   1      -2.220  94.320 122.117  0.00  0.00     0.109 C 
ATOM     16  O   LIG d   1      -3.060  95.589 120.251  0.00  0.00    -0.276 OA
ATOM     17  H   LIG d   1      -3.369  92.494 120.805  0.00  0.00     0.149 HD
ENDBRANCH   6  13
BRANCH   5  18
ATOM     18  N   LIG d   1      -6.191  94.638 119.760  0.00  0.00     0.381 N 
ATOM     19  H   LIG d   1      -5.541  95.360 119.522  0.00  0.00    -0.090 HD
ATOM     20  H   LIG d   1      -6.222  94.558 120.761  0.00  0.00    -0.090 HD
ATOM     21  H   LIG d   1      -7.096  94.867 119.409  0.00  0.00    -0.090 HD
ENDBRANCH   5  18
BRANCH   3  22
ATOM     22  C   LIG d   1      -6.860  91.436 116.262  0.00  0.00     0.382 C 
ATOM     23  O   LIG d   1      -6.595  90.297 115.806  0.00  0.00    -0.241 OA
ATOM     24  O   LIG d   1      -7.899  92.017 115.895  0.00  0.00    -0.241 OA
ENDBRANCH   3  22
TORSDOF 7
ENDMDL
