MODEL 1
REMARK VINA RESULT:      -5.6      0.000      0.000
REMARK  7 active torsions:
REMARK  status: ('A' for Active; 'I' for Inactive)
REMARK    1  A    between atoms: C_2  and  C_3 
REMARK    2  A    between atoms: C_3  and  O_6 
REMARK    3  A    between atoms: C_3  and  C_4 
REMARK    4  A    between atoms: C_7  and  O_6 
REMARK    5  A    between atoms: C_9  and  C_10 
REMARK    6  A    between atoms: N_15  and  C_14 
REMARK    7  A    between atoms: N_20  and  C_19 
REMARK       I    between atoms: C_22  and  N_20 
ROOT
ATOM      1  C   LIG d   1     -10.361  74.172 118.664  0.00  0.00     0.161 C 
ATOM      2  C   LIG d   1      -9.876  72.917 118.259  0.00  0.00     0.016 C 
ATOM      3  C   LIG d   1      -8.770  72.751 117.395  0.00  0.00     0.038 C 
ATOM      4  C   LIG d   1      -7.974  73.835 116.994  0.00  0.00     0.028 C 
ATOM      5  C   LIG d   1      -8.725  75.162 116.969  0.00  0.00    -0.047 C 
ATOM      6  C   LIG d   1      -9.437  75.361 118.326  0.00  0.00     0.091 C 
ENDROOT
BRANCH   1   7
ATOM      7  O   LIG d   1     -10.654  74.151 120.075  0.00  0.00    -0.368 OA
BRANCH   7   8
ATOM      8  C   LIG d   1     -12.058  74.145 120.434  0.00  0.00     0.119 C 
BRANCH   8   9
ATOM      9  C   LIG d   1     -12.421  72.710 120.861  0.00  0.00     0.028 C 
ATOM     10  C   LIG d   1     -13.416  72.680 122.033  0.00  0.00     0.006 C 
ENDBRANCH   8   9
BRANCH   8  11
ATOM     11  C   LIG d   1     -12.944  74.444 119.221  0.00  0.00     0.028 C 
ATOM     12  C   LIG d   1     -14.161  75.315 119.572  0.00  0.00     0.006 C 
ENDBRANCH   8  11
ENDBRANCH   7   8
ENDBRANCH   1   7
BRANCH   6  13
ATOM     13  N   LIG d   1     -10.264  76.595 118.356  0.00  0.00    -0.311 N 
ATOM     14  C   LIG d   1      -9.822  77.763 118.820  0.00  0.00     0.210 C 
ATOM     15  C   LIG d   1     -10.843  78.904 118.779  0.00  0.00     0.109 C 
ATOM     16  O   LIG d   1      -8.670  77.970 119.232  0.00  0.00    -0.276 OA
ATOM     17  H   LIG d   1     -11.202  76.525 118.012  0.00  0.00     0.149 HD
ENDBRANCH   6  13
BRANCH   5  18
ATOM     18  N   LIG d   1      -7.745  76.223 116.669  0.00  0.00     0.381 N 
ATOM     19  H   LIG d   1      -7.604  76.284 115.680  0.00  0.00    -0.090 HD
ATOM     20  H   LIG d   1      -6.868  75.986 117.098  0.00  0.00    -0.090 HD
ATOM     21  H   LIG d   1      -8.070  77.096 117.020  0.00  0.00    -0.090 HD
ENDBRANCH   5  18
BRANCH   3  22
ATOM     22  C   LIG d   1      -8.474  71.494 116.890  0.00  0.00     0.382 C 
ATOM     23  O   LIG d   1      -9.076  70.485 117.329  0.00  0.00    -0.241 OA
ATOM     24  O   LIG d   1      -7.582  71.352 116.032  0.00  0.00    -0.241 OA
ENDBRANCH   3  22
TORSDOF 7
ENDMDL
MODEL 2
REMARK VINA RESULT:      -5.6      2.310      4.671
REMARK  7 active torsions:
REMARK  status: ('A' for Active; 'I' for Inactive)
REMARK    1  A    between atoms: C_2  and  C_3 
REMARK    2  A    between atoms: C_3  and  O_6 
REMARK    3  A    between atoms: C_3  and  C_4 
REMARK    4  A    between atoms: C_7  and  O_6 
REMARK    5  A    between atoms: C_9  and  C_10 
REMARK    6  A    between atoms: N_15  and  C_14 
REMARK    7  A    between atoms: N_20  and  C_19 
REMARK       I    between atoms: C_22  and  N_20 
ROOT
ATOM      1  C   LIG d   1     -10.735  75.218 117.311  0.00  0.00     0.161 C 
ATOM      2  C   LIG d   1      -9.485  75.679 116.867  0.00  0.00     0.016 C 
ATOM      3  C   LIG d   1      -8.879  76.865 117.344  0.00  0.00     0.038 C 
ATOM      4  C   LIG d   1      -9.418  77.595 118.414  0.00  0.00     0.028 C 
ATOM      5  C   LIG d   1     -10.930  77.445 118.549  0.00  0.00    -0.047 C 
ATOM      6  C   LIG d   1     -11.286  75.941 118.558  0.00  0.00     0.091 C 
ENDROOT
BRANCH   1   7
ATOM      7  O   LIG d   1     -10.678  73.796 117.541  0.00  0.00    -0.368 OA
BRANCH   7   8
ATOM      8  C   LIG d   1      -9.472  73.301 118.174  0.00  0.00     0.119 C 
BRANCH   8   9
ATOM      9  C   LIG d   1      -9.077  71.994 117.459  0.00  0.00     0.028 C 
ATOM     10  C   LIG d   1      -7.742  72.118 116.706  0.00  0.00     0.006 C 
ENDBRANCH   8   9
BRANCH   8  11
ATOM     11  C   LIG d   1      -9.730  72.904 119.631  0.00  0.00     0.028 C 
ATOM     12  C   LIG d   1     -11.207  72.582 119.908  0.00  0.00     0.006 C 
ENDBRANCH   8  11
ENDBRANCH   7   8
ENDBRANCH   1   7
BRANCH   6  13
ATOM     13  N   LIG d   1     -12.753  75.707 118.603  0.00  0.00    -0.311 N 
ATOM     14  C   LIG d   1     -13.435  75.542 119.735  0.00  0.00     0.210 C 
ATOM     15  C   LIG d   1     -14.936  75.293 119.555  0.00  0.00     0.109 C 
ATOM     16  O   LIG d   1     -12.945  75.611 120.872  0.00  0.00    -0.276 OA
ATOM     17  H   LIG d   1     -13.236  75.667 117.726  0.00  0.00     0.149 HD
ENDBRANCH   6  13
BRANCH   5  18
ATOM     18  N   LIG d   1     -11.338  78.144 119.782  0.00  0.00     0.381 N 
ATOM     19  H   LIG d   1     -11.122  79.118 119.706  0.00  0.00    -0.090 HD
ATOM     20  H   LIG d   1     -10.822  77.766 120.556  0.00  0.00    -0.090 HD
ATOM     21  H   LIG d   1     -12.315  78.024 119.934  0.00  0.00    -0.090 HD
ENDBRANCH   5  18
BRANCH   3  22
ATOM     22  C   LIG d   1      -7.741  77.353 116.720  0.00  0.00     0.382 C 
ATOM     23  O   LIG d   1      -7.194  76.691 115.805  0.00  0.00    -0.241 OA
ATOM     24  O   LIG d   1      -7.229  78.427 117.090  0.00  0.00    -0.241 OA
ENDBRANCH   3  22
TORSDOF 7
ENDMDL
MODEL 3
REMARK VINA RESULT:      -5.5     16.915     19.590
REMARK  7 active torsions:
REMARK  status: ('A' for Active; 'I' for Inactive)
REMARK    1  A    between atoms: C_2  and  C_3 
REMARK    2  A    between atoms: C_3  and  O_6 
REMARK    3  A    between atoms: C_3  and  C_4 
REMARK    4  A    between atoms: C_7  and  O_6 
REMARK    5  A    between atoms: C_9  and  C_10 
REMARK    6  A    between atoms: N_15  and  C_14 
REMARK    7  A    between atoms: N_20  and  C_19 
REMARK       I    between atoms: C_22  and  N_20 
ROOT
ATOM      1  C   LIG d   1      -6.508  93.481 118.494  0.00  0.00     0.161 C 
ATOM      2  C   LIG d   1      -7.247  92.561 117.731  0.00  0.00     0.016 C 
ATOM      3  C   LIG d   1      -6.683  91.403 117.148  0.00  0.00     0.038 C 
ATOM      4  C   LIG d   1      -5.365  91.004 117.417  0.00  0.00     0.028 C 
ATOM      5  C   LIG d   1      -4.441  92.165 117.769  0.00  0.00    -0.047 C 
ATOM      6  C   LIG d   1      -5.095  93.005 118.890  0.00  0.00     0.091 C 
ENDROOT
BRANCH   1   7
ATOM      7  O   LIG d   1      -7.257  93.857 119.666  0.00  0.00    -0.368 OA
BRANCH   7   8
ATOM      8  C   LIG d   1      -7.436  95.279 119.879  0.00  0.00     0.119 C 
BRANCH   8   9
ATOM      9  C   LIG d   1      -8.890  95.499 120.338  0.00  0.00     0.028 C 
ATOM     10  C   LIG d   1      -9.717  94.203 120.309  0.00  0.00     0.006 C 
ENDBRANCH   8   9
BRANCH   8  11
ATOM     11  C   LIG d   1      -7.301  96.060 118.569  0.00  0.00     0.028 C 
ATOM     12  C   LIG d   1      -6.618  97.424 118.755  0.00  0.00     0.006 C 
ENDBRANCH   8  11
ENDBRANCH   7   8
ENDBRANCH   1   7
BRANCH   6  13
ATOM     13  N   LIG d   1      -4.295  94.209 119.236  0.00  0.00    -0.311 N 
ATOM     14  C   LIG d   1      -3.870  94.476 120.470  0.00  0.00     0.210 C 
ATOM     15  C   LIG d   1      -3.078  95.780 120.612  0.00  0.00     0.109 C 
ATOM     16  O   LIG d   1      -4.045  93.742 121.454  0.00  0.00    -0.276 OA
ATOM     17  H   LIG d   1      -4.080  94.843 118.492  0.00  0.00     0.149 HD
ENDBRANCH   6  13
BRANCH   5  18
ATOM     18  N   LIG d   1      -3.138  91.594 118.160  0.00  0.00     0.381 N 
ATOM     19  H   LIG d   1      -2.821  92.021 119.007  0.00  0.00    -0.090 HD
ATOM     20  H   LIG d   1      -2.467  91.792 117.438  0.00  0.00    -0.090 HD
ATOM     21  H   LIG d   1      -3.221  90.609 118.286  0.00  0.00    -0.090 HD
ENDBRANCH   5  18
BRANCH   3  22
ATOM     22  C   LIG d   1      -7.429  90.651 116.254  0.00  0.00     0.382 C 
ATOM     23  O   LIG d   1      -6.999  89.541 115.856  0.00  0.00    -0.241 OA
ATOM     24  O   LIG d   1      -8.506  91.088 115.805  0.00  0.00    -0.241 OA
ENDBRANCH   3  22
TORSDOF 7
ENDMDL
MODEL 4
REMARK VINA RESULT:      -5.5      1.092      1.822
REMARK  7 active torsions:
REMARK  status: ('A' for Active; 'I' for Inactive)
REMARK    1  A    between atoms: C_2  and  C_3 
REMARK    2  A    between atoms: C_3  and  O_6 
REMARK    3  A    between atoms: C_3  and  C_4 
REMARK    4  A    between atoms: C_7  and  O_6 
REMARK    5  A    between atoms: C_9  and  C_10 
REMARK    6  A    between atoms: N_15  and  C_14 
REMARK    7  A    between atoms: N_20  and  C_19 
REMARK       I    between atoms: C_22  and  N_20 
ROOT
ATOM      1  C   LIG d   1     -10.443  74.580 118.108  0.00  0.00     0.161 C 
ATOM      2  C   LIG d   1     -10.044  73.261 117.837  0.00  0.00     0.016 C 
ATOM      3  C   LIG d   1      -8.758  72.920 117.360  0.00  0.00     0.038 C 
ATOM      4  C   LIG d   1      -7.727  73.866 117.265  0.00  0.00     0.028 C 
ATOM      5  C   LIG d   1      -8.229  75.289 117.047  0.00  0.00    -0.047 C 
ATOM      6  C   LIG d   1      -9.297  75.614 118.117  0.00  0.00     0.091 C 
ENDROOT
BRANCH   1   7
ATOM      7  O   LIG d   1     -11.167  74.625 119.354  0.00  0.00    -0.368 OA
BRANCH   7   8
ATOM      8  C   LIG d   1     -10.910  73.541 120.280  0.00  0.00     0.119 C 
BRANCH   8   9
ATOM      9  C   LIG d   1     -12.269  72.914 120.646  0.00  0.00     0.028 C 
ATOM     10  C   LIG d   1     -13.440  73.889 120.440  0.00  0.00     0.006 C 
ENDBRANCH   8   9
BRANCH   8  11
ATOM     11  C   LIG d   1     -10.334  74.061 121.601  0.00  0.00     0.028 C 
ATOM     12  C   LIG d   1      -8.812  74.264 121.547  0.00  0.00     0.006 C 
ENDBRANCH   8  11
ENDBRANCH   7   8
ENDBRANCH   1   7
BRANCH   6  13
ATOM     13  N   LIG d   1      -9.902  76.958 117.925  0.00  0.00    -0.311 N 
ATOM     14  C   LIG d   1      -9.925  77.893 118.873  0.00  0.00     0.210 C 
ATOM     15  C   LIG d   1     -10.615  79.201 118.473  0.00  0.00     0.109 C 
ATOM     16  O   LIG d   1      -9.412  77.775 119.995  0.00  0.00    -0.276 OA
ATOM     17  H   LIG d   1     -10.314  77.149 117.032  0.00  0.00     0.149 HD
ENDBRANCH   6  13
BRANCH   5  18
ATOM     18  N   LIG d   1      -7.061  76.188 117.104  0.00  0.00     0.381 N 
ATOM     19  H   LIG d   1      -6.981  76.581 118.021  0.00  0.00    -0.090 HD
ATOM     20  H   LIG d   1      -7.196  76.939 116.450  0.00  0.00    -0.090 HD
ATOM     21  H   LIG d   1      -6.232  75.685 116.877  0.00  0.00    -0.090 HD
ENDBRANCH   5  18
BRANCH   3  22
ATOM     22  C   LIG d   1      -8.504  71.625 116.933  0.00  0.00     0.382 C 
ATOM     23  O   LIG d   1      -7.640  71.414 116.049  0.00  0.00    -0.241 OA
ATOM     24  O   LIG d   1      -9.160  70.669 117.391  0.00  0.00    -0.241 OA
ENDBRANCH   3  22
TORSDOF 7
ENDMDL
MODEL 5
REMARK VINA RESULT:      -5.4      2.932      6.522
REMARK  7 active torsions:
REMARK  status: ('A' for Active; 'I' for Inactive)
REMARK    1  A    between atoms: C_2  and  C_3 
REMARK    2  A    between atoms: C_3  and  O_6 
REMARK    3  A    between atoms: C_3  and  C_4 
REMARK    4  A    between atoms: C_7  and  O_6 
REMARK    5  A    between atoms: C_9  and  C_10 
REMARK    6  A    between atoms: N_15  and  C_14 
REMARK    7  A    between atoms: N_20  and  C_19 
REMARK       I    between atoms: C_22  and  N_20 
ROOT
ATOM      1  C   LIG d   1      -9.645  78.177 118.157  0.00  0.00     0.161 C 
ATOM      2  C   LIG d   1      -8.689  79.193 117.993  0.00  0.00     0.016 C 
ATOM      3  C   LIG d   1      -8.714  80.409 118.715  0.00  0.00     0.038 C 
ATOM      4  C   LIG d   1      -9.616  80.628 119.766  0.00  0.00     0.028 C 
ATOM      5  C   LIG d   1     -10.914  79.839 119.626  0.00  0.00    -0.047 C 
ATOM      6  C   LIG d   1     -10.572  78.352 119.378  0.00  0.00     0.091 C 
ENDROOT
BRANCH   1   7
ATOM      7  O   LIG d   1      -8.990  76.894 118.206  0.00  0.00    -0.368 OA
BRANCH   7   8
ATOM      8  C   LIG d   1      -9.262  75.997 117.100  0.00  0.00     0.119 C 
BRANCH   8   9
ATOM      9  C   LIG d   1      -9.295  74.564 117.664  0.00  0.00     0.028 C 
ATOM     10  C   LIG d   1     -10.615  73.840 117.352  0.00  0.00     0.006 C 
ENDBRANCH   8   9
BRANCH   8  11
ATOM     11  C   LIG d   1      -8.120  76.006 116.081  0.00  0.00     0.028 C 
ATOM     12  C   LIG d   1      -7.134  74.844 116.280  0.00  0.00     0.006 C 
ENDBRANCH   8  11
ENDBRANCH   7   8
ENDBRANCH   1   7
BRANCH   6  13
ATOM     13  N   LIG d   1     -11.783  77.523 119.146  0.00  0.00    -0.311 N 
ATOM     14  C   LIG d   1     -11.992  76.347 119.736  0.00  0.00     0.210 C 
ATOM     15  C   LIG d   1     -13.296  75.648 119.341  0.00  0.00     0.109 C 
ATOM     16  O   LIG d   1     -11.235  75.833 120.573  0.00  0.00    -0.276 OA
ATOM     17  H   LIG d   1     -12.464  77.880 118.504  0.00  0.00     0.149 HD
ENDBRANCH   6  13
BRANCH   5  18
ATOM     18  N   LIG d   1     -11.702  80.055 120.854  0.00  0.00     0.381 N 
ATOM     19  H   LIG d   1     -12.184  80.929 120.798  0.00  0.00    -0.090 HD
ATOM     20  H   LIG d   1     -11.076  80.089 121.640  0.00  0.00    -0.090 HD
ATOM     21  H   LIG d   1     -12.356  79.313 120.974  0.00  0.00    -0.090 HD
ENDBRANCH   5  18
BRANCH   3  22
ATOM     22  C   LIG d   1      -7.853  81.436 118.360  0.00  0.00     0.382 C 
ATOM     23  O   LIG d   1      -7.096  81.306 117.368  0.00  0.00    -0.241 OA
ATOM     24  O   LIG d   1      -7.793  82.475 119.046  0.00  0.00    -0.241 OA
ENDBRANCH   3  22
TORSDOF 7
ENDMDL
MODEL 6
REMARK VINA RESULT:      -5.3      2.622      6.192
REMARK  7 active torsions:
REMARK  status: ('A' for Active; 'I' for Inactive)
REMARK    1  A    between atoms: C_2  and  C_3 
REMARK    2  A    between atoms: C_3  and  O_6 
REMARK    3  A    between atoms: C_3  and  C_4 
REMARK    4  A    between atoms: C_7  and  O_6 
REMARK    5  A    between atoms: C_9  and  C_10 
REMARK    6  A    between atoms: N_15  and  C_14 
REMARK    7  A    between atoms: N_20  and  C_19 
REMARK       I    between atoms: C_22  and  N_20 
ROOT
ATOM      1  C   LIG d   1     -12.497  75.086 118.016  0.00  0.00     0.161 C 
ATOM      2  C   LIG d   1     -13.664  75.658 118.550  0.00  0.00     0.016 C 
ATOM      3  C   LIG d   1     -14.239  75.252 119.776  0.00  0.00     0.038 C 
ATOM      4  C   LIG d   1     -13.598  74.343 120.631  0.00  0.00     0.028 C 
ATOM      5  C   LIG d   1     -12.679  73.370 119.900  0.00  0.00    -0.047 C 
ATOM      6  C   LIG d   1     -11.723  74.171 118.988  0.00  0.00     0.091 C 
ENDROOT
BRANCH   1   7
ATOM      7  O   LIG d   1     -11.634  76.122 117.507  0.00  0.00    -0.368 OA
BRANCH   7   8
ATOM      8  C   LIG d   1     -10.636  76.629 118.428  0.00  0.00     0.119 C 
BRANCH   8   9
ATOM      9  C   LIG d   1     -11.160  77.965 118.988  0.00  0.00     0.028 C 
ATOM     10  C   LIG d   1     -10.332  79.169 118.506  0.00  0.00     0.006 C 
ENDBRANCH   8   9
BRANCH   8  11
ATOM     11  C   LIG d   1      -9.333  76.977 117.701  0.00  0.00     0.028 C 
ATOM     12  C   LIG d   1      -9.002  75.993 116.568  0.00  0.00     0.006 C 
ENDBRANCH   8  11
ENDBRANCH   7   8
ENDBRANCH   1   7
BRANCH   6  13
ATOM     13  N   LIG d   1     -10.846  73.290 118.173  0.00  0.00    -0.311 N 
ATOM     14  C   LIG d   1      -9.640  72.887 118.570  0.00  0.00     0.210 C 
ATOM     15  C   LIG d   1      -8.893  71.999 117.569  0.00  0.00     0.109 C 
ATOM     16  O   LIG d   1      -9.131  73.155 119.668  0.00  0.00    -0.276 OA
ATOM     17  H   LIG d   1     -11.194  73.000 117.280  0.00  0.00     0.149 HD
ENDBRANCH   6  13
BRANCH   5  18
ATOM     18  N   LIG d   1     -11.972  72.573 120.921  0.00  0.00     0.381 N 
ATOM     19  H   LIG d   1     -11.318  73.152 121.409  0.00  0.00    -0.090 HD
ATOM     20  H   LIG d   1     -11.462  71.838 120.464  0.00  0.00    -0.090 HD
ATOM     21  H   LIG d   1     -12.626  72.184 121.563  0.00  0.00    -0.090 HD
ENDBRANCH   5  18
BRANCH   3  22
ATOM     22  C   LIG d   1     -15.490  75.728 120.139  0.00  0.00     0.382 C 
ATOM     23  O   LIG d   1     -15.624  76.402 121.189  0.00  0.00    -0.241 OA
ATOM     24  O   LIG d   1     -16.493  75.453 119.454  0.00  0.00    -0.241 OA
ENDBRANCH   3  22
TORSDOF 7
ENDMDL
MODEL 7
REMARK VINA RESULT:      -5.1      2.504      5.753
REMARK  7 active torsions:
REMARK  status: ('A' for Active; 'I' for Inactive)
REMARK    1  A    between atoms: C_2  and  C_3 
REMARK    2  A    between atoms: C_3  and  O_6 
REMARK    3  A    between atoms: C_3  and  C_4 
REMARK    4  A    between atoms: C_7  and  O_6 
REMARK    5  A    between atoms: C_9  and  C_10 
REMARK    6  A    between atoms: N_15  and  C_14 
REMARK    7  A    between atoms: N_20  and  C_19 
REMARK       I    between atoms: C_22  and  N_20 
ROOT
ATOM      1  C   LIG d   1     -10.716  77.627 118.697  0.00  0.00     0.161 C 
ATOM      2  C   LIG d   1     -10.923  78.966 119.068  0.00  0.00     0.016 C 
ATOM      3  C   LIG d   1      -9.954  79.980 118.895  0.00  0.00     0.038 C 
ATOM      4  C   LIG d   1      -8.759  79.752 118.196  0.00  0.00     0.028 C 
ATOM      5  C   LIG d   1      -8.292  78.302 118.251  0.00  0.00    -0.047 C 
ATOM      6  C   LIG d   1      -9.462  77.382 117.832  0.00  0.00     0.091 C 
ENDROOT
BRANCH   1   7
ATOM      7  O   LIG d   1     -11.890  77.116 118.034  0.00  0.00    -0.368 OA
BRANCH   7   8
ATOM      8  C   LIG d   1     -12.606  76.065 118.727  0.00  0.00     0.119 C 
BRANCH   8   9
ATOM      9  C   LIG d   1     -11.927  75.866 120.096  0.00  0.00     0.028 C 
ATOM     10  C   LIG d   1     -12.853  76.228 121.269  0.00  0.00     0.006 C 
ENDBRANCH   8   9
BRANCH   8  11
ATOM     11  C   LIG d   1     -12.463  74.722 118.004  0.00  0.00     0.028 C 
ATOM     12  C   LIG d   1     -11.761  73.656 118.861  0.00  0.00     0.006 C 
ENDBRANCH   8  11
ENDBRANCH   7   8
ENDBRANCH   1   7
BRANCH   6  13
ATOM     13  N   LIG d   1      -9.116  75.940 117.939  0.00  0.00    -0.311 N 
ATOM     14  C   LIG d   1      -8.625  75.227 116.927  0.00  0.00     0.210 C 
ATOM     15  C   LIG d   1      -8.356  73.753 117.246  0.00  0.00     0.109 C 
ATOM     16  O   LIG d   1      -8.356  75.683 115.806  0.00  0.00    -0.276 OA
ATOM     17  H   LIG d   1      -9.273  75.498 118.824  0.00  0.00     0.149 HD
ENDBRANCH   6  13
BRANCH   5  18
ATOM     18  N   LIG d   1      -7.116  78.178 117.370  0.00  0.00     0.381 N 
ATOM     19  H   LIG d   1      -6.592  77.363 117.617  0.00  0.00    -0.090 HD
ATOM     20  H   LIG d   1      -6.527  78.982 117.499  0.00  0.00    -0.090 HD
ATOM     21  H   LIG d   1      -7.406  78.119 116.419  0.00  0.00    -0.090 HD
ENDBRANCH   5  18
BRANCH   3  22
ATOM     22  C   LIG d   1     -10.158  81.230 119.459  0.00  0.00     0.382 C 
ATOM     23  O   LIG d   1      -9.710  82.255 118.892  0.00  0.00    -0.241 OA
ATOM     24  O   LIG d   1     -10.747  81.341 120.551  0.00  0.00    -0.241 OA
ENDBRANCH   3  22
TORSDOF 7
ENDMDL
MODEL 8
REMARK VINA RESULT:      -5.1     16.885     19.660
REMARK  7 active torsions:
REMARK  status: ('A' for Active; 'I' for Inactive)
REMARK    1  A    between atoms: C_2  and  C_3 
REMARK    2  A    between atoms: C_3  and  O_6 
REMARK    3  A    between atoms: C_3  and  C_4 
REMARK    4  A    between atoms: C_7  and  O_6 
REMARK    5  A    between atoms: C_9  and  C_10 
REMARK    6  A    between atoms: N_15  and  C_14 
REMARK    7  A    between atoms: N_20  and  C_19 
REMARK       I    between atoms: C_22  and  N_20 
ROOT
ATOM      1  C   LIG d   1      -5.251  92.570 118.753  0.00  0.00     0.161 C 
ATOM      2  C   LIG d   1      -5.225  91.524 117.815  0.00  0.00     0.016 C 
ATOM      3  C   LIG d   1      -6.268  91.280 116.893  0.00  0.00     0.038 C 
ATOM      4  C   LIG d   1      -7.347  92.163 116.743  0.00  0.00     0.028 C 
ATOM      5  C   LIG d   1      -7.666  92.950 118.010  0.00  0.00    -0.047 C 
ATOM      6  C   LIG d   1      -6.369  93.610 118.531  0.00  0.00     0.091 C 
ENDROOT
BRANCH   1   7
ATOM      7  O   LIG d   1      -3.965  93.219 118.798  0.00  0.00    -0.368 OA
BRANCH   7   8
ATOM      8  C   LIG d   1      -3.256  93.143 120.059  0.00  0.00     0.119 C 
BRANCH   8   9
ATOM      9  C   LIG d   1      -3.130  94.578 120.606  0.00  0.00     0.028 C 
ATOM     10  C   LIG d   1      -1.706  95.141 120.454  0.00  0.00     0.006 C 
ENDBRANCH   8   9
BRANCH   8  11
ATOM     11  C   LIG d   1      -1.818  92.656 119.862  0.00  0.00     0.028 C 
ATOM     12  C   LIG d   1      -1.577  92.060 118.466  0.00  0.00     0.006 C 
ENDBRANCH   8  11
ENDBRANCH   7   8
ENDBRANCH   1   7
BRANCH   6  13
ATOM     13  N   LIG d   1      -6.576  94.330 119.814  0.00  0.00    -0.311 N 
ATOM     14  C   LIG d   1      -6.838  95.634 119.889  0.00  0.00     0.210 C 
ATOM     15  C   LIG d   1      -6.996  96.181 121.312  0.00  0.00     0.109 C 
ATOM     16  O   LIG d   1      -6.988  96.383 118.912  0.00  0.00    -0.276 OA
ATOM     17  H   LIG d   1      -6.503  93.793 120.656  0.00  0.00     0.149 HD
ENDBRANCH   6  13
BRANCH   5  18
ATOM     18  N   LIG d   1      -8.718  93.928 117.674  0.00  0.00     0.381 N 
ATOM     19  H   LIG d   1      -8.775  94.624 118.390  0.00  0.00    -0.090 HD
ATOM     20  H   LIG d   1      -9.602  93.451 117.627  0.00  0.00    -0.090 HD
ATOM     21  H   LIG d   1      -8.518  94.358 116.798  0.00  0.00    -0.090 HD
ENDBRANCH   5  18
BRANCH   3  22
ATOM     22  C   LIG d   1      -6.256  90.119 116.134  0.00  0.00     0.382 C 
ATOM     23  O   LIG d   1      -7.338  89.575 115.805  0.00  0.00    -0.241 OA
ATOM     24  O   LIG d   1      -5.178  89.586 115.812  0.00  0.00    -0.241 OA
ENDBRANCH   3  22
TORSDOF 7
ENDMDL
MODEL 9
REMARK VINA RESULT:      -5.0      2.226      4.547
REMARK  7 active torsions:
REMARK  status: ('A' for Active; 'I' for Inactive)
REMARK    1  A    between atoms: C_2  and  C_3 
REMARK    2  A    between atoms: C_3  and  O_6 
REMARK    3  A    between atoms: C_3  and  C_4 
REMARK    4  A    between atoms: C_7  and  O_6 
REMARK    5  A    between atoms: C_9  and  C_10 
REMARK    6  A    between atoms: N_15  and  C_14 
REMARK    7  A    between atoms: N_20  and  C_19 
REMARK       I    between atoms: C_22  and  N_20 
ROOT
ATOM      1  C   LIG d   1      -8.656  75.306 117.861  0.00  0.00     0.161 C 
ATOM      2  C   LIG d   1      -8.291  74.079 117.285  0.00  0.00     0.016 C 
ATOM      3  C   LIG d   1      -9.013  72.879 117.484  0.00  0.00     0.038 C 
ATOM      4  C   LIG d   1     -10.244  72.858 118.156  0.00  0.00     0.028 C 
ATOM      5  C   LIG d   1     -10.393  73.976 119.182  0.00  0.00    -0.047 C 
ATOM      6  C   LIG d   1     -10.058  75.326 118.506  0.00  0.00     0.091 C 
ENDROOT
BRANCH   1   7
ATOM      7  O   LIG d   1      -8.540  76.359 116.884  0.00  0.00    -0.368 OA
BRANCH   7   8
ATOM      8  C   LIG d   1      -7.401  77.242 117.031  0.00  0.00     0.119 C 
BRANCH   8   9
ATOM      9  C   LIG d   1      -6.418  76.571 118.011  0.00  0.00     0.028 C 
ATOM     10  C   LIG d   1      -5.075  76.223 117.348  0.00  0.00     0.006 C 
ENDBRANCH   8   9
BRANCH   8  11
ATOM     11  C   LIG d   1      -7.800  78.562 117.697  0.00  0.00     0.028 C 
ATOM     12  C   LIG d   1      -7.228  78.710 119.116  0.00  0.00     0.006 C 
ENDBRANCH   8  11
ENDBRANCH   7   8
ENDBRANCH   1   7
BRANCH   6  13
ATOM     13  N   LIG d   1     -10.098  76.463 119.462  0.00  0.00    -0.311 N 
ATOM     14  C   LIG d   1     -10.897  77.519 119.312  0.00  0.00     0.210 C 
ATOM     15  C   LIG d   1     -10.765  78.588 120.401  0.00  0.00     0.109 C 
ATOM     16  O   LIG d   1     -11.725  77.655 118.399  0.00  0.00    -0.276 OA
ATOM     17  H   LIG d   1      -9.480  76.420 120.249  0.00  0.00     0.149 HD
ENDBRANCH   6  13
BRANCH   5  18
ATOM     18  N   LIG d   1     -11.771  73.919 119.707  0.00  0.00     0.381 N 
ATOM     19  H   LIG d   1     -12.249  73.131 119.318  0.00  0.00    -0.090 HD
ATOM     20  H   LIG d   1     -12.259  74.752 119.430  0.00  0.00    -0.090 HD
ATOM     21  H   LIG d   1     -11.755  73.849 120.700  0.00  0.00    -0.090 HD
ENDBRANCH   5  18
BRANCH   3  22
ATOM     22  C   LIG d   1      -8.483  71.677 117.042  0.00  0.00     0.382 C 
ATOM     23  O   LIG d   1      -7.458  71.671 116.318  0.00  0.00    -0.241 OA
ATOM     24  O   LIG d   1      -9.042  70.599 117.321  0.00  0.00    -0.241 OA
ENDBRANCH   3  22
TORSDOF 7
ENDMDL
