MODEL 1
REMARK VINA RESULT:      -5.3      0.000      0.000
REMARK  7 active torsions:
REMARK  status: ('A' for Active; 'I' for Inactive)
REMARK    1  A    between atoms: C_2  and  C_3 
REMARK    2  A    between atoms: C_3  and  O_6 
REMARK    3  A    between atoms: C_3  and  C_4 
REMARK    4  A    between atoms: C_7  and  O_6 
REMARK    5  A    between atoms: C_9  and  C_10 
REMARK    6  A    between atoms: N_15  and  C_14 
REMARK    7  A    between atoms: N_20  and  C_19 
REMARK       I    between atoms: C_22  and  N_20 
ROOT
ATOM      1  C   LIG d   1      -4.816  92.539 119.002  0.00  0.00     0.161 C 
ATOM      2  C   LIG d   1      -6.165  92.887 118.817  0.00  0.00     0.016 C 
ATOM      3  C   LIG d   1      -6.749  94.054 119.360  0.00  0.00     0.038 C 
ATOM      4  C   LIG d   1      -5.982  95.037 120.003  0.00  0.00     0.028 C 
ATOM      5  C   LIG d   1      -4.715  94.489 120.651  0.00  0.00    -0.047 C 
ATOM      6  C   LIG d   1      -3.938  93.655 119.607  0.00  0.00     0.091 C 
ENDROOT
BRANCH   1   7
ATOM      7  O   LIG d   1      -4.255  92.079 117.757  0.00  0.00    -0.368 OA
BRANCH   7   8
ATOM      8  C   LIG d   1      -4.263  90.646 117.545  0.00  0.00     0.119 C 
BRANCH   8   9
ATOM      9  C   LIG d   1      -2.796  90.177 117.499  0.00  0.00     0.028 C 
ATOM     10  C   LIG d   1      -2.362  89.480 118.800  0.00  0.00     0.006 C 
ENDBRANCH   8   9
BRANCH   8  11
ATOM     11  C   LIG d   1      -4.846  90.288 116.175  0.00  0.00     0.028 C 
ATOM     12  C   LIG d   1      -6.381  90.208 116.183  0.00  0.00     0.006 C 
ENDBRANCH   8  11
ENDBRANCH   7   8
ENDBRANCH   1   7
BRANCH   6  13
ATOM     13  N   LIG d   1      -2.727  93.013 120.181  0.00  0.00    -0.311 N 
ATOM     14  C   LIG d   1      -1.530  93.054 119.600  0.00  0.00     0.210 C 
ATOM     15  C   LIG d   1      -0.421  92.310 120.351  0.00  0.00     0.109 C 
ATOM     16  O   LIG d   1      -1.273  93.664 118.551  0.00  0.00    -0.276 OA
ATOM     17  H   LIG d   1      -2.839  92.522 121.047  0.00  0.00     0.149 HD
ENDBRANCH   6  13
BRANCH   5  18
ATOM     18  N   LIG d   1      -3.944  95.637 121.163  0.00  0.00     0.381 N 
ATOM     19  H   LIG d   1      -3.719  96.257 120.411  0.00  0.00    -0.090 HD
ATOM     20  H   LIG d   1      -3.085  95.300 121.562  0.00  0.00    -0.090 HD
ATOM     21  H   LIG d   1      -4.472  96.121 121.855  0.00  0.00    -0.090 HD
ENDBRANCH   5  18
BRANCH   3  22
ATOM     22  C   LIG d   1      -8.123  94.228 119.297  0.00  0.00     0.382 C 
ATOM     23  O   LIG d   1      -8.796  93.604 118.441  0.00  0.00    -0.241 OA
ATOM     24  O   LIG d   1      -8.694  95.034 120.056  0.00  0.00    -0.241 OA
ENDBRANCH   3  22
TORSDOF 7
ENDMDL
MODEL 2
REMARK VINA RESULT:      -5.3     15.459     17.781
REMARK  7 active torsions:
REMARK  status: ('A' for Active; 'I' for Inactive)
REMARK    1  A    between atoms: C_2  and  C_3 
REMARK    2  A    between atoms: C_3  and  O_6 
REMARK    3  A    between atoms: C_3  and  C_4 
REMARK    4  A    between atoms: C_7  and  O_6 
REMARK    5  A    between atoms: C_9  and  C_10 
REMARK    6  A    between atoms: N_15  and  C_14 
REMARK    7  A    between atoms: N_20  and  C_19 
REMARK       I    between atoms: C_22  and  N_20 
ROOT
ATOM      1  C   LIG d   1      -7.811  75.904 117.454  0.00  0.00     0.161 C 
ATOM      2  C   LIG d   1      -8.473  74.666 117.387  0.00  0.00     0.016 C 
ATOM      3  C   LIG d   1      -7.843  73.469 116.975  0.00  0.00     0.038 C 
ATOM      4  C   LIG d   1      -6.461  73.399 116.746  0.00  0.00     0.028 C 
ATOM      5  C   LIG d   1      -5.851  74.727 116.313  0.00  0.00    -0.047 C 
ATOM      6  C   LIG d   1      -6.276  75.825 117.314  0.00  0.00     0.091 C 
ENDROOT
BRANCH   1   7
ATOM      7  O   LIG d   1      -8.169  76.584 118.673  0.00  0.00    -0.368 OA
BRANCH   7   8
ATOM      8  C   LIG d   1      -8.415  78.007 118.560  0.00  0.00     0.119 C 
BRANCH   8   9
ATOM      9  C   LIG d   1      -7.648  78.701 119.703  0.00  0.00     0.028 C 
ATOM     10  C   LIG d   1      -6.909  77.700 120.606  0.00  0.00     0.006 C 
ENDBRANCH   8   9
BRANCH   8  11
ATOM     11  C   LIG d   1      -9.890  78.339 118.802  0.00  0.00     0.028 C 
ATOM     12  C   LIG d   1     -10.105  79.782 119.286  0.00  0.00     0.006 C 
ENDBRANCH   8  11
ENDBRANCH   7   8
ENDBRANCH   1   7
BRANCH   6  13
ATOM     13  N   LIG d   1      -5.791  77.173 116.918  0.00  0.00    -0.311 N 
ATOM     14  C   LIG d   1      -4.692  77.734 117.419  0.00  0.00     0.210 C 
ATOM     15  C   LIG d   1      -4.382  79.137 116.889  0.00  0.00     0.109 C 
ATOM     16  O   LIG d   1      -3.927  77.189 118.229  0.00  0.00    -0.276 OA
ATOM     17  H   LIG d   1      -6.335  77.673 116.242  0.00  0.00     0.149 HD
ENDBRANCH   6  13
BRANCH   5  18
ATOM     18  N   LIG d   1      -4.389  74.544 116.243  0.00  0.00     0.381 N 
ATOM     19  H   LIG d   1      -4.150  73.615 116.525  0.00  0.00    -0.090 HD
ATOM     20  H   LIG d   1      -3.950  75.189 116.876  0.00  0.00    -0.090 HD
ATOM     21  H   LIG d   1      -4.068  74.710 115.314  0.00  0.00    -0.090 HD
ENDBRANCH   5  18
BRANCH   3  22
ATOM     22  C   LIG d   1      -8.607  72.333 116.751  0.00  0.00     0.382 C 
ATOM     23  O   LIG d   1      -8.273  71.521 115.855  0.00  0.00    -0.241 OA
ATOM     24  O   LIG d   1      -9.649  72.134 117.403  0.00  0.00    -0.241 OA
ENDBRANCH   3  22
TORSDOF 7
ENDMDL
MODEL 3
REMARK VINA RESULT:      -5.2     32.782     34.780
REMARK  7 active torsions:
REMARK  status: ('A' for Active; 'I' for Inactive)
REMARK    1  A    between atoms: C_2  and  C_3 
REMARK    2  A    between atoms: C_3  and  O_6 
REMARK    3  A    between atoms: C_3  and  C_4 
REMARK    4  A    between atoms: C_7  and  O_6 
REMARK    5  A    between atoms: C_9  and  C_10 
REMARK    6  A    between atoms: N_15  and  C_14 
REMARK    7  A    between atoms: N_20  and  C_19 
REMARK       I    between atoms: C_22  and  N_20 
ROOT
ATOM      1  C   LIG d   1       0.189  59.342 118.699  0.00  0.00     0.161 C 
ATOM      2  C   LIG d   1       1.291  60.188 118.910  0.00  0.00     0.016 C 
ATOM      3  C   LIG d   1       2.632  59.740 118.885  0.00  0.00     0.038 C 
ATOM      4  C   LIG d   1       2.971  58.435 118.495  0.00  0.00     0.028 C 
ATOM      5  C   LIG d   1       1.868  57.417 118.765  0.00  0.00    -0.047 C 
ATOM      6  C   LIG d   1       0.544  57.940 118.162  0.00  0.00     0.091 C 
ENDROOT
BRANCH   1   7
ATOM      7  O   LIG d   1      -0.761  59.986 117.827  0.00  0.00    -0.368 OA
BRANCH   7   8
ATOM      8  C   LIG d   1      -1.954  60.511 118.461  0.00  0.00     0.119 C 
BRANCH   8   9
ATOM      9  C   LIG d   1      -2.040  59.892 119.869  0.00  0.00     0.028 C 
ATOM     10  C   LIG d   1      -2.271  60.950 120.962  0.00  0.00     0.006 C 
ENDBRANCH   8   9
BRANCH   8  11
ATOM     11  C   LIG d   1      -3.220  60.046 117.736  0.00  0.00     0.028 C 
ATOM     12  C   LIG d   1      -3.792  58.742 118.312  0.00  0.00     0.006 C 
ENDBRANCH   8  11
ENDBRANCH   7   8
ENDBRANCH   1   7
BRANCH   6  13
ATOM     13  N   LIG d   1      -0.605  57.043 118.455  0.00  0.00    -0.311 N 
ATOM     14  C   LIG d   1      -1.058  56.129 117.598  0.00  0.00     0.210 C 
ATOM     15  C   LIG d   1      -2.264  55.324 118.090  0.00  0.00     0.109 C 
ATOM     16  O   LIG d   1      -0.554  55.887 116.491  0.00  0.00    -0.276 OA
ATOM     17  H   LIG d   1      -1.053  57.150 119.344  0.00  0.00     0.149 HD
ENDBRANCH   6  13
BRANCH   5  18
ATOM     18  N   LIG d   1       2.299  56.130 118.187  0.00  0.00     0.381 N 
ATOM     19  H   LIG d   1       2.987  55.707 118.776  0.00  0.00    -0.090 HD
ATOM     20  H   LIG d   1       2.715  56.301 117.288  0.00  0.00    -0.090 HD
ATOM     21  H   LIG d   1       1.516  55.522 118.088  0.00  0.00    -0.090 HD
ENDBRANCH   5  18
BRANCH   3  22
ATOM     22  C   LIG d   1       3.648  60.591 119.292  0.00  0.00     0.382 C 
ATOM     23  O   LIG d   1       4.648  60.770 118.555  0.00  0.00    -0.241 OA
ATOM     24  O   LIG d   1       3.599  61.147 120.405  0.00  0.00    -0.241 OA
ENDBRANCH   3  22
TORSDOF 7
ENDMDL
MODEL 4
REMARK VINA RESULT:      -4.9     12.555     14.365
REMARK  7 active torsions:
REMARK  status: ('A' for Active; 'I' for Inactive)
REMARK    1  A    between atoms: C_2  and  C_3 
REMARK    2  A    between atoms: C_3  and  O_6 
REMARK    3  A    between atoms: C_3  and  C_4 
REMARK    4  A    between atoms: C_7  and  O_6 
REMARK    5  A    between atoms: C_9  and  C_10 
REMARK    6  A    between atoms: N_15  and  C_14 
REMARK    7  A    between atoms: N_20  and  C_19 
REMARK       I    between atoms: C_22  and  N_20 
ROOT
ATOM      1  C   LIG d   1      -6.456  78.539 118.129  0.00  0.00     0.161 C 
ATOM      2  C   LIG d   1      -7.778  78.192 118.451  0.00  0.00     0.016 C 
ATOM      3  C   LIG d   1      -8.801  79.143 118.672  0.00  0.00     0.038 C 
ATOM      4  C   LIG d   1      -8.603  80.512 118.437  0.00  0.00     0.028 C 
ATOM      5  C   LIG d   1      -7.152  80.952 118.601  0.00  0.00    -0.047 C 
ATOM      6  C   LIG d   1      -6.248  80.022 117.760  0.00  0.00     0.091 C 
ENDROOT
BRANCH   1   7
ATOM      7  O   LIG d   1      -5.970  77.687 117.073  0.00  0.00    -0.368 OA
BRANCH   7   8
ATOM      8  C   LIG d   1      -5.514  76.371 117.475  0.00  0.00     0.119 C 
BRANCH   8   9
ATOM      9  C   LIG d   1      -4.010  76.283 117.148  0.00  0.00     0.028 C 
ATOM     10  C   LIG d   1      -3.616  74.916 116.565  0.00  0.00     0.006 C 
ENDBRANCH   8   9
BRANCH   8  11
ATOM     11  C   LIG d   1      -6.176  75.273 116.638  0.00  0.00     0.028 C 
ATOM     12  C   LIG d   1      -7.367  74.615 117.352  0.00  0.00     0.006 C 
ENDBRANCH   8  11
ENDBRANCH   7   8
ENDBRANCH   1   7
BRANCH   6  13
ATOM     13  N   LIG d   1      -4.804  80.330 117.930  0.00  0.00    -0.311 N 
ATOM     14  C   LIG d   1      -4.123  81.131 117.112  0.00  0.00     0.210 C 
ATOM     15  C   LIG d   1      -2.640  81.298 117.456  0.00  0.00     0.109 C 
ATOM     16  O   LIG d   1      -4.615  81.744 116.152  0.00  0.00    -0.276 OA
ATOM     17  H   LIG d   1      -4.333  79.900 118.702  0.00  0.00     0.149 HD
ENDBRANCH   6  13
BRANCH   5  18
ATOM     18  N   LIG d   1      -7.066  82.367 118.194  0.00  0.00     0.381 N 
ATOM     19  H   LIG d   1      -6.963  82.946 119.003  0.00  0.00    -0.090 HD
ATOM     20  H   LIG d   1      -7.919  82.623 117.729  0.00  0.00    -0.090 HD
ATOM     21  H   LIG d   1      -6.292  82.498 117.581  0.00  0.00    -0.090 HD
ENDBRANCH   5  18
BRANCH   3  22
ATOM     22  C   LIG d   1     -10.026  78.731 119.172  0.00  0.00     0.382 C 
ATOM     23  O   LIG d   1     -10.523  79.309 120.169  0.00  0.00    -0.241 OA
ATOM     24  O   LIG d   1     -10.621  77.760 118.667  0.00  0.00    -0.241 OA
ENDBRANCH   3  22
TORSDOF 7
ENDMDL
MODEL 5
REMARK VINA RESULT:      -4.9     32.807     34.045
REMARK  7 active torsions:
REMARK  status: ('A' for Active; 'I' for Inactive)
REMARK    1  A    between atoms: C_2  and  C_3 
REMARK    2  A    between atoms: C_3  and  O_6 
REMARK    3  A    between atoms: C_3  and  C_4 
REMARK    4  A    between atoms: C_7  and  O_6 
REMARK    5  A    between atoms: C_9  and  C_10 
REMARK    6  A    between atoms: N_15  and  C_14 
REMARK    7  A    between atoms: N_20  and  C_19 
REMARK       I    between atoms: C_22  and  N_20 
ROOT
ATOM      1  C   LIG d   1      -0.417  59.400 119.103  0.00  0.00     0.161 C 
ATOM      2  C   LIG d   1       0.851  59.420 118.499  0.00  0.00     0.016 C 
ATOM      3  C   LIG d   1       2.017  59.881 119.152  0.00  0.00     0.038 C 
ATOM      4  C   LIG d   1       2.021  60.215 120.514  0.00  0.00     0.028 C 
ATOM      5  C   LIG d   1       0.664  60.689 121.026  0.00  0.00    -0.047 C 
ATOM      6  C   LIG d   1      -0.412  59.655 120.625  0.00  0.00     0.091 C 
ENDROOT
BRANCH   1   7
ATOM      7  O   LIG d   1      -1.080  58.155 118.806  0.00  0.00    -0.368 OA
BRANCH   7   8
ATOM      8  C   LIG d   1      -2.049  58.190 117.730  0.00  0.00     0.119 C 
BRANCH   8   9
ATOM      9  C   LIG d   1      -2.539  59.645 117.594  0.00  0.00     0.028 C 
ATOM     10  C   LIG d   1      -4.007  59.812 118.021  0.00  0.00     0.006 C 
ENDBRANCH   8   9
BRANCH   8  11
ATOM     11  C   LIG d   1      -3.298  57.373 118.077  0.00  0.00     0.028 C 
ATOM     12  C   LIG d   1      -3.087  56.449 119.287  0.00  0.00     0.006 C 
ENDBRANCH   8  11
ENDBRANCH   7   8
ENDBRANCH   1   7
BRANCH   6  13
ATOM     13  N   LIG d   1      -1.782  60.083 121.013  0.00  0.00    -0.311 N 
ATOM     14  C   LIG d   1      -2.594  59.344 121.767  0.00  0.00     0.210 C 
ATOM     15  C   LIG d   1      -3.970  59.964 122.033  0.00  0.00     0.109 C 
ATOM     16  O   LIG d   1      -2.295  58.250 122.268  0.00  0.00    -0.276 OA
ATOM     17  H   LIG d   1      -2.094  60.972 120.676  0.00  0.00     0.149 HD
ENDBRANCH   6  13
BRANCH   5  18
ATOM     18  N   LIG d   1       0.777  60.870 122.485  0.00  0.00     0.381 N 
ATOM     19  H   LIG d   1      -0.121  60.754 122.911  0.00  0.00    -0.090 HD
ATOM     20  H   LIG d   1       1.097  61.803 122.673  0.00  0.00    -0.090 HD
ATOM     21  H   LIG d   1       1.419  60.208 122.863  0.00  0.00    -0.090 HD
ENDBRANCH   5  18
BRANCH   3  22
ATOM     22  C   LIG d   1       3.188  60.051 118.429  0.00  0.00     0.382 C 
ATOM     23  O   LIG d   1       3.855  61.106 118.555  0.00  0.00    -0.241 OA
ATOM     24  O   LIG d   1       3.562  59.181 117.619  0.00  0.00    -0.241 OA
ENDBRANCH   3  22
TORSDOF 7
ENDMDL
MODEL 6
REMARK VINA RESULT:      -4.9      2.412      3.839
REMARK  7 active torsions:
REMARK  status: ('A' for Active; 'I' for Inactive)
REMARK    1  A    between atoms: C_2  and  C_3 
REMARK    2  A    between atoms: C_3  and  O_6 
REMARK    3  A    between atoms: C_3  and  C_4 
REMARK    4  A    between atoms: C_7  and  O_6 
REMARK    5  A    between atoms: C_9  and  C_10 
REMARK    6  A    between atoms: N_15  and  C_14 
REMARK    7  A    between atoms: N_20  and  C_19 
REMARK       I    between atoms: C_22  and  N_20 
ROOT
ATOM      1  C   LIG d   1      -3.117  91.105 118.241  0.00  0.00     0.161 C 
ATOM      2  C   LIG d   1      -3.998  90.679 117.233  0.00  0.00     0.016 C 
ATOM      3  C   LIG d   1      -5.329  91.143 117.115  0.00  0.00     0.038 C 
ATOM      4  C   LIG d   1      -5.823  92.186 117.912  0.00  0.00     0.028 C 
ATOM      5  C   LIG d   1      -5.134  92.292 119.268  0.00  0.00    -0.047 C 
ATOM      6  C   LIG d   1      -3.604  92.325 119.052  0.00  0.00     0.091 C 
ENDROOT
BRANCH   1   7
ATOM      7  O   LIG d   1      -1.817  91.366 117.675  0.00  0.00    -0.368 OA
BRANCH   7   8
ATOM      8  C   LIG d   1      -0.793  90.379 117.950  0.00  0.00     0.119 C 
BRANCH   8   9
ATOM      9  C   LIG d   1      -1.280  89.525 119.137  0.00  0.00     0.028 C 
ATOM     10  C   LIG d   1      -0.257  89.479 120.285  0.00  0.00     0.006 C 
ENDBRANCH   8   9
BRANCH   8  11
ATOM     11  C   LIG d   1       0.503  91.039 118.430  0.00  0.00     0.028 C 
ATOM     12  C   LIG d   1       0.566  92.539 118.098  0.00  0.00     0.006 C 
ENDBRANCH   8  11
ENDBRANCH   7   8
ENDBRANCH   1   7
BRANCH   6  13
ATOM     13  N   LIG d   1      -2.850  92.343 120.333  0.00  0.00    -0.311 N 
ATOM     14  C   LIG d   1      -2.008  93.317 120.674  0.00  0.00     0.210 C 
ATOM     15  C   LIG d   1      -1.320  93.130 122.030  0.00  0.00     0.109 C 
ATOM     16  O   LIG d   1      -1.790  94.333 119.997  0.00  0.00    -0.276 OA
ATOM     17  H   LIG d   1      -2.991  91.572 120.955  0.00  0.00     0.149 HD
ENDBRANCH   6  13
BRANCH   5  18
ATOM     18  N   LIG d   1      -5.650  93.501 119.937  0.00  0.00     0.381 N 
ATOM     19  H   LIG d   1      -6.092  93.249 120.798  0.00  0.00    -0.090 HD
ATOM     20  H   LIG d   1      -6.336  93.933 119.344  0.00  0.00    -0.090 HD
ATOM     21  H   LIG d   1      -4.904  94.138 120.112  0.00  0.00    -0.090 HD
ENDBRANCH   5  18
BRANCH   3  22
ATOM     22  C   LIG d   1      -6.192  90.534 116.217  0.00  0.00     0.382 C 
ATOM     23  O   LIG d   1      -7.205  91.149 115.806  0.00  0.00    -0.241 OA
ATOM     24  O   LIG d   1      -5.994  89.361 115.847  0.00  0.00    -0.241 OA
ENDBRANCH   3  22
TORSDOF 7
ENDMDL
MODEL 7
REMARK VINA RESULT:      -4.8     13.311     15.709
REMARK  7 active torsions:
REMARK  status: ('A' for Active; 'I' for Inactive)
REMARK    1  A    between atoms: C_2  and  C_3 
REMARK    2  A    between atoms: C_3  and  O_6 
REMARK    3  A    between atoms: C_3  and  C_4 
REMARK    4  A    between atoms: C_7  and  O_6 
REMARK    5  A    between atoms: C_9  and  C_10 
REMARK    6  A    between atoms: N_15  and  C_14 
REMARK    7  A    between atoms: N_20  and  C_19 
REMARK       I    between atoms: C_22  and  N_20 
ROOT
ATOM      1  C   LIG d   1      -5.861  77.714 117.560  0.00  0.00     0.161 C 
ATOM      2  C   LIG d   1      -5.992  76.357 117.219  0.00  0.00     0.016 C 
ATOM      3  C   LIG d   1      -7.192  75.627 117.378  0.00  0.00     0.038 C 
ATOM      4  C   LIG d   1      -8.393  76.247 117.751  0.00  0.00     0.028 C 
ATOM      5  C   LIG d   1      -8.191  77.506 118.588  0.00  0.00    -0.047 C 
ATOM      6  C   LIG d   1      -7.191  78.435 117.864  0.00  0.00     0.091 C 
ENDROOT
BRANCH   1   7
ATOM      7  O   LIG d   1      -5.137  78.410 116.526  0.00  0.00    -0.368 OA
BRANCH   7   8
ATOM      8  C   LIG d   1      -3.855  78.965 116.909  0.00  0.00     0.119 C 
BRANCH   8   9
ATOM      9  C   LIG d   1      -3.902  80.479 116.624  0.00  0.00     0.028 C 
ATOM     10  C   LIG d   1      -3.367  81.313 117.800  0.00  0.00     0.006 C 
ENDBRANCH   8   9
BRANCH   8  11
ATOM     11  C   LIG d   1      -2.727  78.422 116.026  0.00  0.00     0.028 C 
ATOM     12  C   LIG d   1      -2.135  77.107 116.558  0.00  0.00     0.006 C 
ENDBRANCH   8  11
ENDBRANCH   7   8
ENDBRANCH   1   7
BRANCH   6  13
ATOM     13  N   LIG d   1      -6.872  79.652 118.655  0.00  0.00    -0.311 N 
ATOM     14  C   LIG d   1      -7.173  80.886 118.256  0.00  0.00     0.210 C 
ATOM     15  C   LIG d   1      -6.737  82.000 119.213  0.00  0.00     0.109 C 
ATOM     16  O   LIG d   1      -7.789  81.162 117.215  0.00  0.00    -0.276 OA
ATOM     17  H   LIG d   1      -6.400  79.517 119.528  0.00  0.00     0.149 HD
ENDBRANCH   6  13
BRANCH   5  18
ATOM     18  N   LIG d   1      -9.515  78.125 118.789  0.00  0.00     0.381 N 
ATOM     19  H   LIG d   1      -9.467  78.791 119.534  0.00  0.00    -0.090 HD
ATOM     20  H   LIG d   1     -10.172  77.410 119.045  0.00  0.00    -0.090 HD
ATOM     21  H   LIG d   1      -9.811  78.575 117.951  0.00  0.00    -0.090 HD
ENDBRANCH   5  18
BRANCH   3  22
ATOM     22  C   LIG d   1      -7.188  74.251 117.202  0.00  0.00     0.382 C 
ATOM     23  O   LIG d   1      -7.788  73.513 118.019  0.00  0.00    -0.241 OA
ATOM     24  O   LIG d   1      -6.555  73.737 116.260  0.00  0.00    -0.241 OA
ENDBRANCH   3  22
TORSDOF 7
ENDMDL
MODEL 8
REMARK VINA RESULT:      -4.8      2.199      4.815
REMARK  7 active torsions:
REMARK  status: ('A' for Active; 'I' for Inactive)
REMARK    1  A    between atoms: C_2  and  C_3 
REMARK    2  A    between atoms: C_3  and  O_6 
REMARK    3  A    between atoms: C_3  and  C_4 
REMARK    4  A    between atoms: C_7  and  O_6 
REMARK    5  A    between atoms: C_9  and  C_10 
REMARK    6  A    between atoms: N_15  and  C_14 
REMARK    7  A    between atoms: N_20  and  C_19 
REMARK       I    between atoms: C_22  and  N_20 
ROOT
ATOM      1  C   LIG d   1      -4.325  92.287 119.052  0.00  0.00     0.161 C 
ATOM      2  C   LIG d   1      -5.360  91.818 118.227  0.00  0.00     0.016 C 
ATOM      3  C   LIG d   1      -5.168  90.856 117.209  0.00  0.00     0.038 C 
ATOM      4  C   LIG d   1      -3.948  90.182 117.046  0.00  0.00     0.028 C 
ATOM      5  C   LIG d   1      -2.743  90.986 117.524  0.00  0.00    -0.047 C 
ATOM      6  C   LIG d   1      -3.011  91.483 118.963  0.00  0.00     0.091 C 
ENDROOT
BRANCH   1   7
ATOM      7  O   LIG d   1      -4.781  92.353 120.418  0.00  0.00    -0.368 OA
BRANCH   7   8
ATOM      8  C   LIG d   1      -5.008  93.681 120.951  0.00  0.00     0.119 C 
BRANCH   8   9
ATOM      9  C   LIG d   1      -6.530  93.922 120.959  0.00  0.00     0.028 C 
ATOM     10  C   LIG d   1      -6.986  94.841 119.814  0.00  0.00     0.006 C 
ENDBRANCH   8   9
BRANCH   8  11
ATOM     11  C   LIG d   1      -4.433  94.758 120.027  0.00  0.00     0.028 C 
ATOM     12  C   LIG d   1      -3.246  95.508 120.653  0.00  0.00     0.006 C 
ENDBRANCH   8  11
ENDBRANCH   7   8
ENDBRANCH   1   7
BRANCH   6  13
ATOM     13  N   LIG d   1      -1.918  92.349 119.476  0.00  0.00    -0.311 N 
ATOM     14  C   LIG d   1      -1.283  92.124 120.625  0.00  0.00     0.210 C 
ATOM     15  C   LIG d   1      -0.201  93.150 120.978  0.00  0.00     0.109 C 
ATOM     16  O   LIG d   1      -1.490  91.155 121.370  0.00  0.00    -0.276 OA
ATOM     17  H   LIG d   1      -1.664  93.141 118.919  0.00  0.00     0.149 HD
ENDBRANCH   6  13
BRANCH   5  18
ATOM     18  N   LIG d   1      -1.558  90.114 117.425  0.00  0.00     0.381 N 
ATOM     19  H   LIG d   1      -1.258  90.058 116.472  0.00  0.00    -0.090 HD
ATOM     20  H   LIG d   1      -1.806  89.191 117.732  0.00  0.00    -0.090 HD
ATOM     21  H   LIG d   1      -0.822  90.474 117.992  0.00  0.00    -0.090 HD
ENDBRANCH   5  18
BRANCH   3  22
ATOM     22  C   LIG d   1      -6.192  90.588 116.314  0.00  0.00     0.382 C 
ATOM     23  O   LIG d   1      -6.877  91.528 115.844  0.00  0.00    -0.241 OA
ATOM     24  O   LIG d   1      -6.470  89.413 116.004  0.00  0.00    -0.241 OA
ENDBRANCH   3  22
TORSDOF 7
ENDMDL
MODEL 9
REMARK VINA RESULT:      -4.7     33.094     35.503
REMARK  7 active torsions:
REMARK  status: ('A' for Active; 'I' for Inactive)
REMARK    1  A    between atoms: C_2  and  C_3 
REMARK    2  A    between atoms: C_3  and  O_6 
REMARK    3  A    between atoms: C_3  and  C_4 
REMARK    4  A    between atoms: C_7  and  O_6 
REMARK    5  A    between atoms: C_9  and  C_10 
REMARK    6  A    between atoms: N_15  and  C_14 
REMARK    7  A    between atoms: N_20  and  C_19 
REMARK       I    between atoms: C_22  and  N_20 
ROOT
ATOM      1  C   LIG d   1      -0.227  57.743 119.549  0.00  0.00     0.161 C 
ATOM      2  C   LIG d   1       0.386  56.831 118.674  0.00  0.00     0.016 C 
ATOM      3  C   LIG d   1      -0.334  56.017 117.769  0.00  0.00     0.038 C 
ATOM      4  C   LIG d   1      -1.714  56.170 117.571  0.00  0.00     0.028 C 
ATOM      5  C   LIG d   1      -2.444  56.723 118.790  0.00  0.00    -0.047 C 
ATOM      6  C   LIG d   1      -1.722  58.004 119.269  0.00  0.00     0.091 C 
ENDROOT
BRANCH   1   7
ATOM      7  O   LIG d   1       0.506  58.984 119.553  0.00  0.00    -0.368 OA
BRANCH   7   8
ATOM      8  C   LIG d   1       1.241  59.295 118.344  0.00  0.00     0.119 C 
BRANCH   8   9
ATOM      9  C   LIG d   1       2.529  60.029 118.761  0.00  0.00     0.028 C 
ATOM     10  C   LIG d   1       3.799  59.265 118.350  0.00  0.00     0.006 C 
ENDBRANCH   8   9
BRANCH   8  11
ATOM     11  C   LIG d   1       0.474  60.288 117.465  0.00  0.00     0.028 C 
ATOM     12  C   LIG d   1      -0.248  59.609 116.290  0.00  0.00     0.006 C 
ENDBRANCH   8  11
ENDBRANCH   7   8
ENDBRANCH   1   7
BRANCH   6  13
ATOM     13  N   LIG d   1      -2.321  58.562 120.509  0.00  0.00    -0.311 N 
ATOM     14  C   LIG d   1      -3.173  59.586 120.514  0.00  0.00     0.210 C 
ATOM     15  C   LIG d   1      -3.656  60.018 121.902  0.00  0.00     0.109 C 
ATOM     16  O   LIG d   1      -3.600  60.157 119.499  0.00  0.00    -0.276 OA
ATOM     17  H   LIG d   1      -2.054  58.139 121.375  0.00  0.00     0.149 HD
ENDBRANCH   6  13
BRANCH   5  18
ATOM     18  N   LIG d   1      -3.846  56.961 118.400  0.00  0.00     0.381 N 
ATOM     19  H   LIG d   1      -4.119  56.304 117.697  0.00  0.00    -0.090 HD
ATOM     20  H   LIG d   1      -3.924  57.886 118.014  0.00  0.00    -0.090 HD
ATOM     21  H   LIG d   1      -4.441  56.874 119.195  0.00  0.00    -0.090 HD
ENDBRANCH   5  18
BRANCH   3  22
ATOM     22  C   LIG d   1       0.323  55.009 117.079  0.00  0.00     0.382 C 
ATOM     23  O   LIG d   1       1.515  54.733 117.357  0.00  0.00    -0.241 OA
ATOM     24  O   LIG d   1      -0.247  54.402 116.153  0.00  0.00    -0.241 OA
ENDBRANCH   3  22
TORSDOF 7
ENDMDL
