MODEL 1
REMARK VINA RESULT:      -5.1      0.000      0.000
REMARK  7 active torsions:
REMARK  status: ('A' for Active; 'I' for Inactive)
REMARK    1  A    between atoms: C_2  and  C_3 
REMARK    2  A    between atoms: C_3  and  O_6 
REMARK    3  A    between atoms: C_3  and  C_4 
REMARK    4  A    between atoms: C_7  and  O_6 
REMARK    5  A    between atoms: C_9  and  C_10 
REMARK    6  A    between atoms: N_15  and  C_14 
REMARK    7  A    between atoms: N_20  and  C_19 
REMARK       I    between atoms: C_22  and  N_20 
ROOT
ATOM      1  C   LIG d   1      -4.604  92.127 118.783  0.00  0.00     0.161 C 
ATOM      2  C   LIG d   1      -5.883  92.263 118.219  0.00  0.00     0.016 C 
ATOM      3  C   LIG d   1      -6.693  93.408 118.394  0.00  0.00     0.038 C 
ATOM      4  C   LIG d   1      -6.214  94.566 119.025  0.00  0.00     0.028 C 
ATOM      5  C   LIG d   1      -5.115  94.288 120.046  0.00  0.00    -0.047 C 
ATOM      6  C   LIG d   1      -4.020  93.424 119.382  0.00  0.00     0.091 C 
ENDROOT
BRANCH   1   7
ATOM      7  O   LIG d   1      -3.697  91.572 117.810  0.00  0.00    -0.368 OA
BRANCH   7   8
ATOM      8  C   LIG d   1      -3.030  90.342 118.188  0.00  0.00     0.119 C 
BRANCH   8   9
ATOM      9  C   LIG d   1      -3.009  89.427 116.949  0.00  0.00     0.028 C 
ATOM     10  C   LIG d   1      -4.312  89.507 116.137  0.00  0.00     0.006 C 
ENDBRANCH   8   9
BRANCH   8  11
ATOM     11  C   LIG d   1      -3.833  89.576 119.244  0.00  0.00     0.028 C 
ATOM     12  C   LIG d   1      -3.078  89.428 120.575  0.00  0.00     0.006 C 
ENDBRANCH   8  11
ENDBRANCH   7   8
ENDBRANCH   1   7
BRANCH   6  13
ATOM     13  N   LIG d   1      -2.948  93.036 120.335  0.00  0.00    -0.311 N 
ATOM     14  C   LIG d   1      -1.651  93.227 120.097  0.00  0.00     0.210 C 
ATOM     15  C   LIG d   1      -0.712  92.736 121.203  0.00  0.00     0.109 C 
ATOM     16  O   LIG d   1      -1.191  93.784 119.089  0.00  0.00    -0.276 OA
ATOM     17  H   LIG d   1      -3.234  92.606 121.192  0.00  0.00     0.149 HD
ENDBRANCH   6  13
BRANCH   5  18
ATOM     18  N   LIG d   1      -4.613  95.590 120.525  0.00  0.00     0.381 N 
ATOM     19  H   LIG d   1      -4.997  95.790 121.427  0.00  0.00    -0.090 HD
ATOM     20  H   LIG d   1      -4.913  96.308 119.889  0.00  0.00    -0.090 HD
ATOM     21  H   LIG d   1      -3.619  95.575 120.575  0.00  0.00    -0.090 HD
ENDBRANCH   5  18
BRANCH   3  22
ATOM     22  C   LIG d   1      -8.013  93.387 117.970  0.00  0.00     0.382 C 
ATOM     23  O   LIG d   1      -8.277  93.336 116.745  0.00  0.00    -0.241 OA
ATOM     24  O   LIG d   1      -8.943  93.464 118.795  0.00  0.00    -0.241 OA
ENDBRANCH   3  22
TORSDOF 7
ENDMDL
MODEL 2
REMARK VINA RESULT:      -5.1      2.465      5.353
REMARK  7 active torsions:
REMARK  status: ('A' for Active; 'I' for Inactive)
REMARK    1  A    between atoms: C_2  and  C_3 
REMARK    2  A    between atoms: C_3  and  O_6 
REMARK    3  A    between atoms: C_3  and  C_4 
REMARK    4  A    between atoms: C_7  and  O_6 
REMARK    5  A    between atoms: C_9  and  C_10 
REMARK    6  A    between atoms: N_15  and  C_14 
REMARK    7  A    between atoms: N_20  and  C_19 
REMARK       I    between atoms: C_22  and  N_20 
ROOT
ATOM      1  C   LIG d   1      -5.345  91.389 119.130  0.00  0.00     0.161 C 
ATOM      2  C   LIG d   1      -4.393  90.590 118.477  0.00  0.00     0.016 C 
ATOM      3  C   LIG d   1      -4.445  90.288 117.096  0.00  0.00     0.038 C 
ATOM      4  C   LIG d   1      -5.375  90.895 116.240  0.00  0.00     0.028 C 
ATOM      5  C   LIG d   1      -6.663  91.312 116.942  0.00  0.00    -0.047 C 
ATOM      6  C   LIG d   1      -6.305  92.150 118.191  0.00  0.00     0.091 C 
ENDROOT
BRANCH   1   7
ATOM      7  O   LIG d   1      -4.683  92.308 120.021  0.00  0.00    -0.368 OA
BRANCH   7   8
ATOM      8  C   LIG d   1      -4.062  93.461 119.401  0.00  0.00     0.119 C 
BRANCH   8   9
ATOM      9  C   LIG d   1      -2.541  93.340 119.616  0.00  0.00     0.028 C 
ATOM     10  C   LIG d   1      -1.791  92.990 118.320  0.00  0.00     0.006 C 
ENDBRANCH   8   9
BRANCH   8  11
ATOM     11  C   LIG d   1      -4.468  94.759 120.106  0.00  0.00     0.028 C 
ATOM     12  C   LIG d   1      -3.312  95.766 120.214  0.00  0.00     0.006 C 
ENDBRANCH   8  11
ENDBRANCH   7   8
ENDBRANCH   1   7
BRANCH   6  13
ATOM     13  N   LIG d   1      -7.504  92.528 118.983  0.00  0.00    -0.311 N 
ATOM     14  C   LIG d   1      -7.965  93.775 119.065  0.00  0.00     0.210 C 
ATOM     15  C   LIG d   1      -9.202  93.949 119.951  0.00  0.00     0.109 C 
ATOM     16  O   LIG d   1      -7.487  94.747 118.462  0.00  0.00    -0.276 OA
ATOM     17  H   LIG d   1      -7.972  91.795 119.479  0.00  0.00     0.149 HD
ENDBRANCH   6  13
BRANCH   5  18
ATOM     18  N   LIG d   1      -7.484  92.052 115.965  0.00  0.00     0.381 N 
ATOM     19  H   LIG d   1      -7.003  92.105 115.090  0.00  0.00    -0.090 HD
ATOM     20  H   LIG d   1      -7.627  92.988 116.304  0.00  0.00    -0.090 HD
ATOM     21  H   LIG d   1      -8.362  91.597 115.843  0.00  0.00    -0.090 HD
ENDBRANCH   5  18
BRANCH   3  22
ATOM     22  C   LIG d   1      -3.582  89.340 116.567  0.00  0.00     0.382 C 
ATOM     23  O   LIG d   1      -4.025  88.447 115.805  0.00  0.00    -0.241 OA
ATOM     24  O   LIG d   1      -2.376  89.340 116.877  0.00  0.00    -0.241 OA
ENDBRANCH   3  22
TORSDOF 7
ENDMDL
MODEL 3
REMARK VINA RESULT:      -5.1     25.980     28.060
REMARK  7 active torsions:
REMARK  status: ('A' for Active; 'I' for Inactive)
REMARK    1  A    between atoms: C_2  and  C_3 
REMARK    2  A    between atoms: C_3  and  O_6 
REMARK    3  A    between atoms: C_3  and  C_4 
REMARK    4  A    between atoms: C_7  and  O_6 
REMARK    5  A    between atoms: C_9  and  C_10 
REMARK    6  A    between atoms: N_15  and  C_14 
REMARK    7  A    between atoms: N_20  and  C_19 
REMARK       I    between atoms: C_22  and  N_20 
ROOT
ATOM      1  C   LIG d   1     -14.716  67.310 119.817  0.00  0.00     0.161 C 
ATOM      2  C   LIG d   1     -13.644  67.474 120.710  0.00  0.00     0.016 C 
ATOM      3  C   LIG d   1     -12.765  66.428 121.071  0.00  0.00     0.038 C 
ATOM      4  C   LIG d   1     -12.805  65.175 120.441  0.00  0.00     0.028 C 
ATOM      5  C   LIG d   1     -14.185  64.812 119.903  0.00  0.00    -0.047 C 
ATOM      6  C   LIG d   1     -14.708  65.979 119.035  0.00  0.00     0.091 C 
ENDROOT
BRANCH   1   7
ATOM      7  O   LIG d   1     -14.767  68.426 118.906  0.00  0.00    -0.368 OA
BRANCH   7   8
ATOM      8  C   LIG d   1     -16.056  69.072 118.761  0.00  0.00     0.119 C 
BRANCH   8   9
ATOM      9  C   LIG d   1     -16.171  69.555 117.303  0.00  0.00     0.028 C 
ATOM     10  C   LIG d   1     -15.449  68.622 116.317  0.00  0.00     0.006 C 
ENDBRANCH   8   9
BRANCH   8  11
ATOM     11  C   LIG d   1     -16.143  70.339 119.617  0.00  0.00     0.028 C 
ATOM     12  C   LIG d   1     -16.562  71.577 118.807  0.00  0.00     0.006 C 
ENDBRANCH   8  11
ENDBRANCH   7   8
ENDBRANCH   1   7
BRANCH   6  13
ATOM     13  N   LIG d   1     -16.089  65.742 118.538  0.00  0.00    -0.311 N 
ATOM     14  C   LIG d   1     -16.358  65.222 117.342  0.00  0.00     0.210 C 
ATOM     15  C   LIG d   1     -17.849  65.080 117.019  0.00  0.00     0.109 C 
ATOM     16  O   LIG d   1     -15.503  64.835 116.531  0.00  0.00    -0.276 OA
ATOM     17  H   LIG d   1     -16.843  65.999 119.145  0.00  0.00     0.149 HD
ENDBRANCH   6  13
BRANCH   5  18
ATOM     18  N   LIG d   1     -14.053  63.548 119.153  0.00  0.00     0.381 N 
ATOM     19  H   LIG d   1     -13.611  63.722 118.273  0.00  0.00    -0.090 HD
ATOM     20  H   LIG d   1     -14.971  63.177 118.978  0.00  0.00    -0.090 HD
ATOM     21  H   LIG d   1     -13.517  62.894 119.679  0.00  0.00    -0.090 HD
ENDBRANCH   5  18
BRANCH   3  22
ATOM     22  C   LIG d   1     -11.856  66.618 122.100  0.00  0.00     0.382 C 
ATOM     23  O   LIG d   1     -11.650  67.771 122.550  0.00  0.00    -0.241 OA
ATOM     24  O   LIG d   1     -11.206  65.657 122.555  0.00  0.00    -0.241 OA
ENDBRANCH   3  22
TORSDOF 7
ENDMDL
MODEL 4
REMARK VINA RESULT:      -5.0      2.247      3.430
REMARK  7 active torsions:
REMARK  status: ('A' for Active; 'I' for Inactive)
REMARK    1  A    between atoms: C_2  and  C_3 
REMARK    2  A    between atoms: C_3  and  O_6 
REMARK    3  A    between atoms: C_3  and  C_4 
REMARK    4  A    between atoms: C_7  and  O_6 
REMARK    5  A    between atoms: C_9  and  C_10 
REMARK    6  A    between atoms: N_15  and  C_14 
REMARK    7  A    between atoms: N_20  and  C_19 
REMARK       I    between atoms: C_22  and  N_20 
ROOT
ATOM      1  C   LIG d   1      -4.978  91.489 119.410  0.00  0.00     0.161 C 
ATOM      2  C   LIG d   1      -5.317  90.556 118.415  0.00  0.00     0.016 C 
ATOM      3  C   LIG d   1      -6.256  90.816 117.392  0.00  0.00     0.038 C 
ATOM      4  C   LIG d   1      -6.813  92.090 117.202  0.00  0.00     0.028 C 
ATOM      5  C   LIG d   1      -6.884  92.916 118.482  0.00  0.00    -0.047 C 
ATOM      6  C   LIG d   1      -5.492  92.921 119.154  0.00  0.00     0.091 C 
ENDROOT
BRANCH   1   7
ATOM      7  O   LIG d   1      -3.550  91.496 119.607  0.00  0.00    -0.368 OA
BRANCH   7   8
ATOM      8  C   LIG d   1      -2.742  91.604 118.409  0.00  0.00     0.119 C 
BRANCH   8   9
ATOM      9  C   LIG d   1      -1.684  90.485 118.462  0.00  0.00     0.028 C 
ATOM     10  C   LIG d   1      -1.799  89.511 117.277  0.00  0.00     0.006 C 
ENDBRANCH   8   9
BRANCH   8  11
ATOM     11  C   LIG d   1      -1.948  92.913 118.389  0.00  0.00     0.028 C 
ATOM     12  C   LIG d   1      -1.719  93.493 119.794  0.00  0.00     0.006 C 
ENDBRANCH   8  11
ENDBRANCH   7   8
ENDBRANCH   1   7
BRANCH   6  13
ATOM     13  N   LIG d   1      -5.493  93.637 120.456  0.00  0.00    -0.311 N 
ATOM     14  C   LIG d   1      -5.143  94.915 120.591  0.00  0.00     0.210 C 
ATOM     15  C   LIG d   1      -5.196  95.453 122.024  0.00  0.00     0.109 C 
ATOM     16  O   LIG d   1      -4.825  95.664 119.654  0.00  0.00    -0.276 OA
ATOM     17  H   LIG d   1      -5.769  93.114 121.264  0.00  0.00     0.149 HD
ENDBRANCH   6  13
BRANCH   5  18
ATOM     18  N   LIG d   1      -7.354  94.266 118.116  0.00  0.00     0.381 N 
ATOM     19  H   LIG d   1      -8.322  94.361 118.348  0.00  0.00    -0.090 HD
ATOM     20  H   LIG d   1      -7.254  94.387 117.124  0.00  0.00    -0.090 HD
ATOM     21  H   LIG d   1      -6.820  94.955 118.598  0.00  0.00    -0.090 HD
ENDBRANCH   5  18
BRANCH   3  22
ATOM     22  C   LIG d   1      -6.679  89.784 116.567  0.00  0.00     0.382 C 
ATOM     23  O   LIG d   1      -7.871  89.396 116.610  0.00  0.00    -0.241 OA
ATOM     24  O   LIG d   1      -5.872  89.207 115.814  0.00  0.00    -0.241 OA
ENDBRANCH   3  22
TORSDOF 7
ENDMDL
MODEL 5
REMARK VINA RESULT:      -4.8      2.116      4.524
REMARK  7 active torsions:
REMARK  status: ('A' for Active; 'I' for Inactive)
REMARK    1  A    between atoms: C_2  and  C_3 
REMARK    2  A    between atoms: C_3  and  O_6 
REMARK    3  A    between atoms: C_3  and  C_4 
REMARK    4  A    between atoms: C_7  and  O_6 
REMARK    5  A    between atoms: C_9  and  C_10 
REMARK    6  A    between atoms: N_15  and  C_14 
REMARK    7  A    between atoms: N_20  and  C_19 
REMARK       I    between atoms: C_22  and  N_20 
ROOT
ATOM      1  C   LIG d   1      -5.646  92.741 118.716  0.00  0.00     0.161 C 
ATOM      2  C   LIG d   1      -6.446  91.890 117.935  0.00  0.00     0.016 C 
ATOM      3  C   LIG d   1      -5.920  90.872 117.106  0.00  0.00     0.038 C 
ATOM      4  C   LIG d   1      -4.559  90.536 117.117  0.00  0.00     0.028 C 
ATOM      5  C   LIG d   1      -3.651  91.698 117.507  0.00  0.00    -0.047 C 
ATOM      6  C   LIG d   1      -4.166  92.316 118.826  0.00  0.00     0.091 C 
ENDROOT
BRANCH   1   7
ATOM      7  O   LIG d   1      -6.224  92.887 120.028  0.00  0.00    -0.368 OA
BRANCH   7   8
ATOM      8  C   LIG d   1      -6.525  94.242 120.444  0.00  0.00     0.119 C 
BRANCH   8   9
ATOM      9  C   LIG d   1      -7.983  94.261 120.942  0.00  0.00     0.028 C 
ATOM     10  C   LIG d   1      -8.963  93.680 119.908  0.00  0.00     0.006 C 
ENDBRANCH   8   9
BRANCH   8  11
ATOM     11  C   LIG d   1      -6.488  95.211 119.258  0.00  0.00     0.028 C 
ATOM     12  C   LIG d   1      -5.607  96.442 119.522  0.00  0.00     0.006 C 
ENDBRANCH   8  11
ENDBRANCH   7   8
ENDBRANCH   1   7
BRANCH   6  13
ATOM     13  N   LIG d   1      -3.385  93.513 119.235  0.00  0.00    -0.311 N 
ATOM     14  C   LIG d   1      -2.337  93.459 120.055  0.00  0.00     0.210 C 
ATOM     15  C   LIG d   1      -1.686  94.811 120.363  0.00  0.00     0.109 C 
ATOM     16  O   LIG d   1      -1.865  92.416 120.532  0.00  0.00    -0.276 OA
ATOM     17  H   LIG d   1      -3.680  94.397 118.869  0.00  0.00     0.149 HD
ENDBRANCH   6  13
BRANCH   5  18
ATOM     18  N   LIG d   1      -2.276  91.173 117.612  0.00  0.00     0.381 N 
ATOM     19  H   LIG d   1      -1.619  91.917 117.485  0.00  0.00    -0.090 HD
ATOM     20  H   LIG d   1      -2.130  90.496 116.885  0.00  0.00    -0.090 HD
ATOM     21  H   LIG d   1      -2.141  90.749 118.503  0.00  0.00    -0.090 HD
ENDBRANCH   5  18
BRANCH   3  22
ATOM     22  C   LIG d   1      -6.756  90.205 116.223  0.00  0.00     0.382 C 
ATOM     23  O   LIG d   1      -6.445  89.064 115.805  0.00  0.00    -0.241 OA
ATOM     24  O   LIG d   1      -7.796  90.749 115.805  0.00  0.00    -0.241 OA
ENDBRANCH   3  22
TORSDOF 7
ENDMDL
MODEL 6
REMARK VINA RESULT:      -4.7      2.191      4.255
REMARK  7 active torsions:
REMARK  status: ('A' for Active; 'I' for Inactive)
REMARK    1  A    between atoms: C_2  and  C_3 
REMARK    2  A    between atoms: C_3  and  O_6 
REMARK    3  A    between atoms: C_3  and  C_4 
REMARK    4  A    between atoms: C_7  and  O_6 
REMARK    5  A    between atoms: C_9  and  C_10 
REMARK    6  A    between atoms: N_15  and  C_14 
REMARK    7  A    between atoms: N_20  and  C_19 
REMARK       I    between atoms: C_22  and  N_20 
ROOT
ATOM      1  C   LIG d   1      -4.366  92.964 118.891  0.00  0.00     0.161 C 
ATOM      2  C   LIG d   1      -5.728  93.302 118.816  0.00  0.00     0.016 C 
ATOM      3  C   LIG d   1      -6.634  92.687 117.922  0.00  0.00     0.038 C 
ATOM      4  C   LIG d   1      -6.269  91.580 117.141  0.00  0.00     0.028 C 
ATOM      5  C   LIG d   1      -4.780  91.533 116.815  0.00  0.00    -0.047 C 
ATOM      6  C   LIG d   1      -3.975  91.683 118.126  0.00  0.00     0.091 C 
ENDROOT
BRANCH   1   7
ATOM      7  O   LIG d   1      -3.962  92.867 120.271  0.00  0.00    -0.368 OA
BRANCH   7   8
ATOM      8  C   LIG d   1      -3.104  93.928 120.760  0.00  0.00     0.119 C 
BRANCH   8   9
ATOM      9  C   LIG d   1      -3.968  94.853 121.639  0.00  0.00     0.028 C 
ATOM     10  C   LIG d   1      -4.146  96.250 121.022  0.00  0.00     0.006 C 
ENDBRANCH   8   9
BRANCH   8  11
ATOM     11  C   LIG d   1      -2.601  94.810 119.614  0.00  0.00     0.028 C 
ATOM     12  C   LIG d   1      -1.079  94.724 119.420  0.00  0.00     0.006 C 
ENDBRANCH   8  11
ENDBRANCH   7   8
ENDBRANCH   1   7
BRANCH   6  13
ATOM     13  N   LIG d   1      -2.509  91.732 117.888  0.00  0.00    -0.311 N 
ATOM     14  C   LIG d   1      -1.723  90.657 117.927  0.00  0.00     0.210 C 
ATOM     15  C   LIG d   1      -0.238  90.932 117.673  0.00  0.00     0.109 C 
ATOM     16  O   LIG d   1      -2.120  89.498 118.118  0.00  0.00    -0.276 OA
ATOM     17  H   LIG d   1      -2.107  92.629 117.695  0.00  0.00     0.149 HD
ENDBRANCH   6  13
BRANCH   5  18
ATOM     18  N   LIG d   1      -4.517  90.261 116.117  0.00  0.00     0.381 N 
ATOM     19  H   LIG d   1      -3.625  90.300 115.666  0.00  0.00    -0.090 HD
ATOM     20  H   LIG d   1      -5.220  90.125 115.412  0.00  0.00    -0.090 HD
ATOM     21  H   LIG d   1      -4.536  89.505 116.766  0.00  0.00    -0.090 HD
ENDBRANCH   5  18
BRANCH   3  22
ATOM     22  C   LIG d   1      -7.911  93.206 117.773  0.00  0.00     0.382 C 
ATOM     23  O   LIG d   1      -8.605  93.465 118.786  0.00  0.00    -0.241 OA
ATOM     24  O   LIG d   1      -8.395  93.377 116.638  0.00  0.00    -0.241 OA
ENDBRANCH   3  22
TORSDOF 7
ENDMDL
MODEL 7
REMARK VINA RESULT:      -4.7      2.533      4.263
REMARK  7 active torsions:
REMARK  status: ('A' for Active; 'I' for Inactive)
REMARK    1  A    between atoms: C_2  and  C_3 
REMARK    2  A    between atoms: C_3  and  O_6 
REMARK    3  A    between atoms: C_3  and  C_4 
REMARK    4  A    between atoms: C_7  and  O_6 
REMARK    5  A    between atoms: C_9  and  C_10 
REMARK    6  A    between atoms: N_15  and  C_14 
REMARK    7  A    between atoms: N_20  and  C_19 
REMARK       I    between atoms: C_22  and  N_20 
ROOT
ATOM      1  C   LIG d   1      -3.809  92.192 117.984  0.00  0.00     0.161 C 
ATOM      2  C   LIG d   1      -5.107  91.810 117.605  0.00  0.00     0.016 C 
ATOM      3  C   LIG d   1      -5.403  90.580 116.975  0.00  0.00     0.038 C 
ATOM      4  C   LIG d   1      -4.436  89.576 116.818  0.00  0.00     0.028 C 
ATOM      5  C   LIG d   1      -3.013  90.114 116.728  0.00  0.00    -0.047 C 
ATOM      6  C   LIG d   1      -2.759  91.063 117.922  0.00  0.00     0.091 C 
ENDROOT
BRANCH   1   7
ATOM      7  O   LIG d   1      -3.838  92.777 119.301  0.00  0.00    -0.368 OA
BRANCH   7   8
ATOM      8  C   LIG d   1      -5.136  92.845 119.941  0.00  0.00     0.119 C 
BRANCH   8   9
ATOM      9  C   LIG d   1      -5.422  94.327 120.251  0.00  0.00     0.028 C 
ATOM     10  C   LIG d   1      -6.227  95.016 119.136  0.00  0.00     0.006 C 
ENDBRANCH   8   9
BRANCH   8  11
ATOM     11  C   LIG d   1      -5.125  92.140 121.300  0.00  0.00     0.028 C 
ATOM     12  C   LIG d   1      -4.722  90.661 121.201  0.00  0.00     0.006 C 
ENDBRANCH   8  11
ENDBRANCH   7   8
ENDBRANCH   1   7
BRANCH   6  13
ATOM     13  N   LIG d   1      -1.417  91.700 117.865  0.00  0.00    -0.311 N 
ATOM     14  C   LIG d   1      -0.344  91.203 118.476  0.00  0.00     0.210 C 
ATOM     15  C   LIG d   1       0.937  92.027 118.306  0.00  0.00     0.109 C 
ATOM     16  O   LIG d   1      -0.323  90.142 119.118  0.00  0.00    -0.276 OA
ATOM     17  H   LIG d   1      -1.337  92.549 117.340  0.00  0.00     0.149 HD
ENDBRANCH   6  13
BRANCH   5  18
ATOM     18  N   LIG d   1      -2.099  88.957 116.705  0.00  0.00     0.381 N 
ATOM     19  H   LIG d   1      -2.277  88.400 115.893  0.00  0.00    -0.090 HD
ATOM     20  H   LIG d   1      -2.270  88.392 117.518  0.00  0.00    -0.090 HD
ATOM     21  H   LIG d   1      -1.153  89.269 116.702  0.00  0.00    -0.090 HD
ENDBRANCH   5  18
BRANCH   3  22
ATOM     22  C   LIG d   1      -6.671  90.360 116.459  0.00  0.00     0.382 C 
ATOM     23  O   LIG d   1      -7.462  91.322 116.307  0.00  0.00    -0.241 OA
ATOM     24  O   LIG d   1      -7.050  89.205 116.185  0.00  0.00    -0.241 OA
ENDBRANCH   3  22
TORSDOF 7
ENDMDL
MODEL 8
REMARK VINA RESULT:      -4.6      2.420      4.524
REMARK  7 active torsions:
REMARK  status: ('A' for Active; 'I' for Inactive)
REMARK    1  A    between atoms: C_2  and  C_3 
REMARK    2  A    between atoms: C_3  and  O_6 
REMARK    3  A    between atoms: C_3  and  C_4 
REMARK    4  A    between atoms: C_7  and  O_6 
REMARK    5  A    between atoms: C_9  and  C_10 
REMARK    6  A    between atoms: N_15  and  C_14 
REMARK    7  A    between atoms: N_20  and  C_19 
REMARK       I    between atoms: C_22  and  N_20 
ROOT
ATOM      1  C   LIG d   1      -4.149  92.093 118.174  0.00  0.00     0.161 C 
ATOM      2  C   LIG d   1      -5.417  91.691 117.723  0.00  0.00     0.016 C 
ATOM      3  C   LIG d   1      -5.636  90.527 116.951  0.00  0.00     0.038 C 
ATOM      4  C   LIG d   1      -4.613  89.598 116.704  0.00  0.00     0.028 C 
ATOM      5  C   LIG d   1      -3.220  90.217 116.709  0.00  0.00    -0.047 C 
ATOM      6  C   LIG d   1      -3.038  91.035 118.009  0.00  0.00     0.091 C 
ENDROOT
BRANCH   1   7
ATOM      7  O   LIG d   1      -4.232  92.522 119.548  0.00  0.00    -0.368 OA
BRANCH   7   8
ATOM      8  C   LIG d   1      -4.139  93.949 119.776  0.00  0.00     0.119 C 
BRANCH   8   9
ATOM      9  C   LIG d   1      -3.075  94.175 120.868  0.00  0.00     0.028 C 
ATOM     10  C   LIG d   1      -2.547  92.855 121.454  0.00  0.00     0.006 C 
ENDBRANCH   8   9
BRANCH   8  11
ATOM     11  C   LIG d   1      -5.442  94.506 120.358  0.00  0.00     0.028 C 
ATOM     12  C   LIG d   1      -6.221  95.372 119.355  0.00  0.00     0.006 C 
ENDBRANCH   8  11
ENDBRANCH   7   8
ENDBRANCH   1   7
BRANCH   6  13
ATOM     13  N   LIG d   1      -1.732  91.742 118.055  0.00  0.00    -0.311 N 
ATOM     14  C   LIG d   1      -0.652  91.249 118.658  0.00  0.00     0.210 C 
ATOM     15  C   LIG d   1       0.586  92.149 118.606  0.00  0.00     0.109 C 
ATOM     16  O   LIG d   1      -0.593  90.136 119.203  0.00  0.00    -0.276 OA
ATOM     17  H   LIG d   1      -1.683  92.638 117.611  0.00  0.00     0.149 HD
ENDBRANCH   6  13
BRANCH   5  18
ATOM     18  N   LIG d   1      -2.244  89.118 116.577  0.00  0.00     0.381 N 
ATOM     19  H   LIG d   1      -1.387  89.470 116.201  0.00  0.00    -0.090 HD
ATOM     20  H   LIG d   1      -2.611  88.433 115.940  0.00  0.00    -0.090 HD
ATOM     21  H   LIG d   1      -2.078  88.700 117.466  0.00  0.00    -0.090 HD
ENDBRANCH   5  18
BRANCH   3  22
ATOM     22  C   LIG d   1      -6.881  90.302 116.384  0.00  0.00     0.382 C 
ATOM     23  O   LIG d   1      -7.282  89.128 116.197  0.00  0.00    -0.241 OA
ATOM     24  O   LIG d   1      -7.589  91.258 116.016  0.00  0.00    -0.241 OA
ENDBRANCH   3  22
TORSDOF 7
ENDMDL
MODEL 9
REMARK VINA RESULT:      -4.6     10.433     12.138
REMARK  7 active torsions:
REMARK  status: ('A' for Active; 'I' for Inactive)
REMARK    1  A    between atoms: C_2  and  C_3 
REMARK    2  A    between atoms: C_3  and  O_6 
REMARK    3  A    between atoms: C_3  and  C_4 
REMARK    4  A    between atoms: C_7  and  O_6 
REMARK    5  A    between atoms: C_9  and  C_10 
REMARK    6  A    between atoms: N_15  and  C_14 
REMARK    7  A    between atoms: N_20  and  C_19 
REMARK       I    between atoms: C_22  and  N_20 
ROOT
ATOM      1  C   LIG d   1      -7.397  81.780 120.312  0.00  0.00     0.161 C 
ATOM      2  C   LIG d   1      -7.940  82.857 121.032  0.00  0.00     0.016 C 
ATOM      3  C   LIG d   1      -9.228  83.387 120.786  0.00  0.00     0.038 C 
ATOM      4  C   LIG d   1     -10.124  82.774 119.898  0.00  0.00     0.028 C 
ATOM      5  C   LIG d   1      -9.435  81.990 118.786  0.00  0.00    -0.047 C 
ATOM      6  C   LIG d   1      -8.403  81.028 119.416  0.00  0.00     0.091 C 
ENDROOT
BRANCH   1   7
ATOM      7  O   LIG d   1      -6.750  80.864 121.218  0.00  0.00    -0.368 OA
BRANCH   7   8
ATOM      8  C   LIG d   1      -5.328  81.061 121.416  0.00  0.00     0.119 C 
BRANCH   8   9
ATOM      9  C   LIG d   1      -4.681  81.196 120.024  0.00  0.00     0.028 C 
ATOM     10  C   LIG d   1      -3.145  81.218 120.091  0.00  0.00     0.006 C 
ENDBRANCH   8   9
BRANCH   8  11
ATOM     11  C   LIG d   1      -4.677  79.827 122.048  0.00  0.00     0.028 C 
ATOM     12  C   LIG d   1      -5.387  78.518 121.667  0.00  0.00     0.006 C 
ENDBRANCH   8  11
ENDBRANCH   7   8
ENDBRANCH   1   7
BRANCH   6  13
ATOM     13  N   LIG d   1      -7.624  80.283 118.393  0.00  0.00    -0.311 N 
ATOM     14  C   LIG d   1      -7.440  78.964 118.428  0.00  0.00     0.210 C 
ATOM     15  C   LIG d   1      -6.588  78.399 117.286  0.00  0.00     0.109 C 
ATOM     16  O   LIG d   1      -7.928  78.204 119.278  0.00  0.00    -0.276 OA
ATOM     17  H   LIG d   1      -7.219  80.818 117.649  0.00  0.00     0.149 HD
ENDBRANCH   6  13
BRANCH   5  18
ATOM     18  N   LIG d   1     -10.483  81.291 118.018  0.00  0.00     0.381 N 
ATOM     19  H   LIG d   1     -11.381  81.667 118.250  0.00  0.00    -0.090 HD
ATOM     20  H   LIG d   1     -10.474  80.318 118.267  0.00  0.00    -0.090 HD
ATOM     21  H   LIG d   1     -10.315  81.394 117.041  0.00  0.00    -0.090 HD
ENDBRANCH   5  18
BRANCH   3  22
ATOM     22  C   LIG d   1      -9.615  84.567 121.403  0.00  0.00     0.382 C 
ATOM     23  O   LIG d   1     -10.832  84.862 121.484  0.00  0.00    -0.241 OA
ATOM     24  O   LIG d   1      -8.761  85.361 121.840  0.00  0.00    -0.241 OA
ENDBRANCH   3  22
TORSDOF 7
ENDMDL
