MODEL 1
REMARK VINA RESULT:      -5.3      0.000      0.000
REMARK  7 active torsions:
REMARK  status: ('A' for Active; 'I' for Inactive)
REMARK    1  A    between atoms: C_2  and  C_3 
REMARK    2  A    between atoms: C_3  and  O_6 
REMARK    3  A    between atoms: C_3  and  C_4 
REMARK    4  A    between atoms: C_7  and  O_6 
REMARK    5  A    between atoms: C_9  and  C_10 
REMARK    6  A    between atoms: N_15  and  C_14 
REMARK    7  A    between atoms: N_20  and  C_19 
REMARK       I    between atoms: C_22  and  N_20 
ROOT
ATOM      1  C   LIG d   1      -9.217  75.098 117.522  0.00  0.00     0.161 C 
ATOM      2  C   LIG d   1      -9.126  73.719 117.272  0.00  0.00     0.016 C 
ATOM      3  C   LIG d   1      -7.918  73.067 116.935  0.00  0.00     0.038 C 
ATOM      4  C   LIG d   1      -6.682  73.730 116.973  0.00  0.00     0.028 C 
ATOM      5  C   LIG d   1      -6.793  75.231 116.727  0.00  0.00    -0.047 C 
ATOM      6  C   LIG d   1      -7.861  75.818 117.677  0.00  0.00     0.091 C 
ENDROOT
BRANCH   1   7
ATOM      7  O   LIG d   1     -10.044  75.332 118.679  0.00  0.00    -0.368 OA
BRANCH   7   8
ATOM      8  C   LIG d   1     -11.148  76.253 118.499  0.00  0.00     0.119 C 
BRANCH   8   9
ATOM      9  C   LIG d   1     -11.004  77.361 119.559  0.00  0.00     0.028 C 
ATOM     10  C   LIG d   1     -10.025  76.977 120.681  0.00  0.00     0.006 C 
ENDBRANCH   8   9
BRANCH   8  11
ATOM     11  C   LIG d   1     -12.490  75.578 118.796  0.00  0.00     0.028 C 
ATOM     12  C   LIG d   1     -12.750  74.350 117.909  0.00  0.00     0.006 C 
ENDBRANCH   8  11
ENDBRANCH   7   8
ENDBRANCH   1   7
BRANCH   6  13
ATOM     13  N   LIG d   1      -8.093  77.268 117.443  0.00  0.00    -0.311 N 
ATOM     14  C   LIG d   1      -7.521  78.228 118.169  0.00  0.00     0.210 C 
ATOM     15  C   LIG d   1      -7.911  79.655 117.774  0.00  0.00     0.109 C 
ATOM     16  O   LIG d   1      -6.704  78.033 119.081  0.00  0.00    -0.276 OA
ATOM     17  H   LIG d   1      -8.718  77.516 116.702  0.00  0.00     0.149 HD
ENDBRANCH   6  13
BRANCH   5  18
ATOM     18  N   LIG d   1      -5.454  75.816 116.931  0.00  0.00     0.381 N 
ATOM     19  H   LIG d   1      -4.920  75.742 116.089  0.00  0.00    -0.090 HD
ATOM     20  H   LIG d   1      -4.980  75.300 117.651  0.00  0.00    -0.090 HD
ATOM     21  H   LIG d   1      -5.536  76.772 117.198  0.00  0.00    -0.090 HD
ENDBRANCH   5  18
BRANCH   3  22
ATOM     22  C   LIG d   1      -7.943  71.746 116.516  0.00  0.00     0.382 C 
ATOM     23  O   LIG d   1      -8.957  71.039 116.733  0.00  0.00    -0.241 OA
ATOM     24  O   LIG d   1      -6.949  71.239 115.964  0.00  0.00    -0.241 OA
ENDBRANCH   3  22
TORSDOF 7
ENDMDL
MODEL 2
REMARK VINA RESULT:      -5.2      2.725      6.262
REMARK  7 active torsions:
REMARK  status: ('A' for Active; 'I' for Inactive)
REMARK    1  A    between atoms: C_2  and  C_3 
REMARK    2  A    between atoms: C_3  and  O_6 
REMARK    3  A    between atoms: C_3  and  C_4 
REMARK    4  A    between atoms: C_7  and  O_6 
REMARK    5  A    between atoms: C_9  and  C_10 
REMARK    6  A    between atoms: N_15  and  C_14 
REMARK    7  A    between atoms: N_20  and  C_19 
REMARK       I    between atoms: C_22  and  N_20 
ROOT
ATOM      1  C   LIG d   1      -8.881  77.838 117.890  0.00  0.00     0.161 C 
ATOM      2  C   LIG d   1      -7.879  78.787 117.627  0.00  0.00     0.016 C 
ATOM      3  C   LIG d   1      -7.826  80.056 118.249  0.00  0.00     0.038 C 
ATOM      4  C   LIG d   1      -8.692  80.405 119.296  0.00  0.00     0.028 C 
ATOM      5  C   LIG d   1     -10.031  79.676 119.243  0.00  0.00    -0.047 C 
ATOM      6  C   LIG d   1      -9.771  78.158 119.109  0.00  0.00     0.091 C 
ENDROOT
BRANCH   1   7
ATOM      7  O   LIG d   1      -8.292  76.531 118.029  0.00  0.00    -0.368 OA
BRANCH   7   8
ATOM      8  C   LIG d   1      -8.450  75.637 116.899  0.00  0.00     0.119 C 
BRANCH   8   9
ATOM      9  C   LIG d   1      -8.864  74.260 117.453  0.00  0.00     0.028 C 
ATOM     10  C   LIG d   1     -10.289  73.862 117.033  0.00  0.00     0.006 C 
ENDBRANCH   8   9
BRANCH   8  11
ATOM     11  C   LIG d   1      -7.117  75.402 116.183  0.00  0.00     0.028 C 
ATOM     12  C   LIG d   1      -6.462  74.066 116.566  0.00  0.00     0.006 C 
ENDBRANCH   8  11
ENDBRANCH   7   8
ENDBRANCH   1   7
BRANCH   6  13
ATOM     13  N   LIG d   1     -11.028  77.378 118.966  0.00  0.00    -0.311 N 
ATOM     14  C   LIG d   1     -11.278  76.260 119.645  0.00  0.00     0.210 C 
ATOM     15  C   LIG d   1     -12.625  75.602 119.333  0.00  0.00     0.109 C 
ATOM     16  O   LIG d   1     -10.525  75.768 120.499  0.00  0.00    -0.276 OA
ATOM     17  H   LIG d   1     -11.707  77.723 118.317  0.00  0.00     0.149 HD
ENDBRANCH   6  13
BRANCH   5  18
ATOM     18  N   LIG d   1     -10.779  80.029 120.464  0.00  0.00     0.381 N 
ATOM     19  H   LIG d   1     -11.716  79.685 120.398  0.00  0.00    -0.090 HD
ATOM     20  H   LIG d   1     -10.816  81.030 120.545  0.00  0.00    -0.090 HD
ATOM     21  H   LIG d   1     -10.330  79.640 121.264  0.00  0.00    -0.090 HD
ENDBRANCH   5  18
BRANCH   3  22
ATOM     22  C   LIG d   1      -6.922  81.005 117.797  0.00  0.00     0.382 C 
ATOM     23  O   LIG d   1      -7.207  81.720 116.806  0.00  0.00    -0.241 OA
ATOM     24  O   LIG d   1      -5.808  81.126 118.341  0.00  0.00    -0.241 OA
ENDBRANCH   3  22
TORSDOF 7
ENDMDL
MODEL 3
REMARK VINA RESULT:      -5.1      2.134      4.163
REMARK  7 active torsions:
REMARK  status: ('A' for Active; 'I' for Inactive)
REMARK    1  A    between atoms: C_2  and  C_3 
REMARK    2  A    between atoms: C_3  and  O_6 
REMARK    3  A    between atoms: C_3  and  C_4 
REMARK    4  A    between atoms: C_7  and  O_6 
REMARK    5  A    between atoms: C_9  and  C_10 
REMARK    6  A    between atoms: N_15  and  C_14 
REMARK    7  A    between atoms: N_20  and  C_19 
REMARK       I    between atoms: C_22  and  N_20 
ROOT
ATOM      1  C   LIG d   1      -8.652  75.926 118.600  0.00  0.00     0.161 C 
ATOM      2  C   LIG d   1      -8.369  74.705 117.966  0.00  0.00     0.016 C 
ATOM      3  C   LIG d   1      -9.362  73.873 117.401  0.00  0.00     0.038 C 
ATOM      4  C   LIG d   1     -10.700  74.281 117.297  0.00  0.00     0.028 C 
ATOM      5  C   LIG d   1     -11.114  75.281 118.371  0.00  0.00    -0.047 C 
ATOM      6  C   LIG d   1     -10.093  76.441 118.397  0.00  0.00     0.091 C 
ENDROOT
BRANCH   1   7
ATOM      7  O   LIG d   1      -7.700  76.925 118.183  0.00  0.00    -0.368 OA
BRANCH   7   8
ATOM      8  C   LIG d   1      -6.774  77.386 119.197  0.00  0.00     0.119 C 
BRANCH   8   9
ATOM      9  C   LIG d   1      -6.788  78.926 119.172  0.00  0.00     0.028 C 
ATOM     10  C   LIG d   1      -6.904  79.489 117.746  0.00  0.00     0.006 C 
ENDBRANCH   8   9
BRANCH   8  11
ATOM     11  C   LIG d   1      -5.334  76.988 118.858  0.00  0.00     0.028 C 
ATOM     12  C   LIG d   1      -5.211  76.308 117.486  0.00  0.00     0.006 C 
ENDBRANCH   8  11
ENDBRANCH   7   8
ENDBRANCH   1   7
BRANCH   6  13
ATOM     13  N   LIG d   1     -10.376  77.421 119.478  0.00  0.00    -0.311 N 
ATOM     14  C   LIG d   1     -10.430  78.737 119.278  0.00  0.00     0.210 C 
ATOM     15  C   LIG d   1     -10.716  79.570 120.531  0.00  0.00     0.109 C 
ATOM     16  O   LIG d   1     -10.300  79.291 118.176  0.00  0.00    -0.276 OA
ATOM     17  H   LIG d   1     -10.526  77.056 120.398  0.00  0.00     0.149 HD
ENDBRANCH   6  13
BRANCH   5  18
ATOM     18  N   LIG d   1     -12.486  75.725 118.062  0.00  0.00     0.381 N 
ATOM     19  H   LIG d   1     -12.457  76.511 117.445  0.00  0.00    -0.090 HD
ATOM     20  H   LIG d   1     -12.935  76.010 118.915  0.00  0.00    -0.090 HD
ATOM     21  H   LIG d   1     -12.998  74.981 117.641  0.00  0.00    -0.090 HD
ENDBRANCH   5  18
BRANCH   3  22
ATOM     22  C   LIG d   1      -9.027  72.599 116.968  0.00  0.00     0.382 C 
ATOM     23  O   LIG d   1      -9.924  71.809 116.589  0.00  0.00    -0.241 OA
ATOM     24  O   LIG d   1      -7.842  72.214 116.994  0.00  0.00    -0.241 OA
ENDBRANCH   3  22
TORSDOF 7
ENDMDL
MODEL 4
REMARK VINA RESULT:      -5.1      1.730      2.633
REMARK  7 active torsions:
REMARK  status: ('A' for Active; 'I' for Inactive)
REMARK    1  A    between atoms: C_2  and  C_3 
REMARK    2  A    between atoms: C_3  and  O_6 
REMARK    3  A    between atoms: C_3  and  C_4 
REMARK    4  A    between atoms: C_7  and  O_6 
REMARK    5  A    between atoms: C_9  and  C_10 
REMARK    6  A    between atoms: N_15  and  C_14 
REMARK    7  A    between atoms: N_20  and  C_19 
REMARK       I    between atoms: C_22  and  N_20 
ROOT
ATOM      1  C   LIG d   1      -9.216  76.832 117.446  0.00  0.00     0.161 C 
ATOM      2  C   LIG d   1      -8.790  75.514 117.212  0.00  0.00     0.016 C 
ATOM      3  C   LIG d   1      -7.454  75.086 117.386  0.00  0.00     0.038 C 
ATOM      4  C   LIG d   1      -6.477  75.917 117.955  0.00  0.00     0.028 C 
ATOM      5  C   LIG d   1      -6.742  77.402 117.735  0.00  0.00    -0.047 C 
ATOM      6  C   LIG d   1      -8.189  77.724 118.174  0.00  0.00     0.091 C 
ENDROOT
BRANCH   1   7
ATOM      7  O   LIG d   1     -10.467  76.821 118.163  0.00  0.00    -0.368 OA
BRANCH   7   8
ATOM      8  C   LIG d   1     -10.787  75.596 118.867  0.00  0.00     0.119 C 
BRANCH   8   9
ATOM      9  C   LIG d   1     -12.285  75.313 118.645  0.00  0.00     0.028 C 
ATOM     10  C   LIG d   1     -12.525  74.140 117.679  0.00  0.00     0.006 C 
ENDBRANCH   8   9
BRANCH   8  11
ATOM     11  C   LIG d   1     -10.625  75.763 120.380  0.00  0.00     0.028 C 
ATOM     12  C   LIG d   1      -9.283  75.225 120.899  0.00  0.00     0.006 C 
ENDBRANCH   8  11
ENDBRANCH   7   8
ENDBRANCH   1   7
BRANCH   6  13
ATOM     13  N   LIG d   1      -8.558  79.140 117.914  0.00  0.00    -0.311 N 
ATOM     14  C   LIG d   1      -9.160  79.918 118.812  0.00  0.00     0.210 C 
ATOM     15  C   LIG d   1      -9.470  81.339 118.333  0.00  0.00     0.109 C 
ATOM     16  O   LIG d   1      -9.438  79.575 119.971  0.00  0.00    -0.276 OA
ATOM     17  H   LIG d   1      -8.341  79.509 117.009  0.00  0.00     0.149 HD
ENDBRANCH   6  13
BRANCH   5  18
ATOM     18  N   LIG d   1      -5.726  78.154 118.497  0.00  0.00     0.381 N 
ATOM     19  H   LIG d   1      -5.989  78.197 119.461  0.00  0.00    -0.090 HD
ATOM     20  H   LIG d   1      -5.680  79.092 118.140  0.00  0.00    -0.090 HD
ATOM     21  H   LIG d   1      -4.837  77.712 118.407  0.00  0.00    -0.090 HD
ENDBRANCH   5  18
BRANCH   3  22
ATOM     22  C   LIG d   1      -7.074  73.826 116.950  0.00  0.00     0.382 C 
ATOM     23  O   LIG d   1      -7.705  72.812 117.336  0.00  0.00    -0.241 OA
ATOM     24  O   LIG d   1      -6.080  73.685 116.212  0.00  0.00    -0.241 OA
ENDBRANCH   3  22
TORSDOF 7
ENDMDL
MODEL 5
REMARK VINA RESULT:      -5.1      2.148      4.089
REMARK  7 active torsions:
REMARK  status: ('A' for Active; 'I' for Inactive)
REMARK    1  A    between atoms: C_2  and  C_3 
REMARK    2  A    between atoms: C_3  and  O_6 
REMARK    3  A    between atoms: C_3  and  C_4 
REMARK    4  A    between atoms: C_7  and  O_6 
REMARK    5  A    between atoms: C_9  and  C_10 
REMARK    6  A    between atoms: N_15  and  C_14 
REMARK    7  A    between atoms: N_20  and  C_19 
REMARK       I    between atoms: C_22  and  N_20 
ROOT
ATOM      1  C   LIG d   1      -7.747  76.899 117.248  0.00  0.00     0.161 C 
ATOM      2  C   LIG d   1      -8.974  76.243 117.442  0.00  0.00     0.016 C 
ATOM      3  C   LIG d   1      -9.126  74.839 117.371  0.00  0.00     0.038 C 
ATOM      4  C   LIG d   1      -8.025  73.979 117.249  0.00  0.00     0.028 C 
ATOM      5  C   LIG d   1      -6.832  74.618 116.545  0.00  0.00    -0.047 C 
ATOM      6  C   LIG d   1      -6.514  75.970 117.224  0.00  0.00     0.091 C 
ENDROOT
BRANCH   1   7
ATOM      7  O   LIG d   1      -7.579  77.928 118.243  0.00  0.00    -0.368 OA
BRANCH   7   8
ATOM      8  C   LIG d   1      -7.890  79.279 117.821  0.00  0.00     0.119 C 
BRANCH   8   9
ATOM      9  C   LIG d   1      -6.557  80.043 117.699  0.00  0.00     0.028 C 
ATOM     10  C   LIG d   1      -6.764  81.541 117.418  0.00  0.00     0.006 C 
ENDBRANCH   8   9
BRANCH   8  11
ATOM     11  C   LIG d   1      -8.690  80.026 118.892  0.00  0.00     0.028 C 
ATOM     12  C   LIG d   1     -10.141  80.300 118.469  0.00  0.00     0.006 C 
ENDBRANCH   8  11
ENDBRANCH   7   8
ENDBRANCH   1   7
BRANCH   6  13
ATOM     13  N   LIG d   1      -5.414  76.701 116.543  0.00  0.00    -0.311 N 
ATOM     14  C   LIG d   1      -4.140  76.628 116.924  0.00  0.00     0.210 C 
ATOM     15  C   LIG d   1      -3.168  77.477 116.098  0.00  0.00     0.109 C 
ATOM     16  O   LIG d   1      -3.717  75.916 117.848  0.00  0.00    -0.276 OA
ATOM     17  H   LIG d   1      -5.663  77.278 115.764  0.00  0.00     0.149 HD
ENDBRANCH   6  13
BRANCH   5  18
ATOM     18  N   LIG d   1      -5.712  73.661 116.609  0.00  0.00     0.381 N 
ATOM     19  H   LIG d   1      -5.952  72.898 117.209  0.00  0.00    -0.090 HD
ATOM     20  H   LIG d   1      -4.909  74.126 116.996  0.00  0.00    -0.090 HD
ATOM     21  H   LIG d   1      -5.500  73.322 115.696  0.00  0.00    -0.090 HD
ENDBRANCH   5  18
BRANCH   3  22
ATOM     22  C   LIG d   1     -10.397  74.285 117.382  0.00  0.00     0.382 C 
ATOM     23  O   LIG d   1     -10.616  73.207 116.778  0.00  0.00    -0.241 OA
ATOM     24  O   LIG d   1     -11.337  74.871 117.951  0.00  0.00    -0.241 OA
ENDBRANCH   3  22
TORSDOF 7
ENDMDL
MODEL 6
REMARK VINA RESULT:      -5.0      2.458      6.448
REMARK  7 active torsions:
REMARK  status: ('A' for Active; 'I' for Inactive)
REMARK    1  A    between atoms: C_2  and  C_3 
REMARK    2  A    between atoms: C_3  and  O_6 
REMARK    3  A    between atoms: C_3  and  C_4 
REMARK    4  A    between atoms: C_7  and  O_6 
REMARK    5  A    between atoms: C_9  and  C_10 
REMARK    6  A    between atoms: N_15  and  C_14 
REMARK    7  A    between atoms: N_20  and  C_19 
REMARK       I    between atoms: C_22  and  N_20 
ROOT
ATOM      1  C   LIG d   1      -7.434  77.019 117.086  0.00  0.00     0.161 C 
ATOM      2  C   LIG d   1      -6.656  78.187 117.157  0.00  0.00     0.016 C 
ATOM      3  C   LIG d   1      -7.089  79.373 117.794  0.00  0.00     0.038 C 
ATOM      4  C   LIG d   1      -8.277  79.424 118.538  0.00  0.00     0.028 C 
ATOM      5  C   LIG d   1      -9.329  78.424 118.069  0.00  0.00    -0.047 C 
ATOM      6  C   LIG d   1      -8.686  77.021 117.988  0.00  0.00     0.091 C 
ENDROOT
BRANCH   1   7
ATOM      7  O   LIG d   1      -6.615  75.868 117.368  0.00  0.00    -0.368 OA
BRANCH   7   8
ATOM      8  C   LIG d   1      -5.865  75.330 116.251  0.00  0.00     0.119 C 
BRANCH   8   9
ATOM      9  C   LIG d   1      -6.027  73.798 116.280  0.00  0.00     0.028 C 
ATOM     10  C   LIG d   1      -7.282  73.355 117.052  0.00  0.00     0.006 C 
ENDBRANCH   8   9
BRANCH   8  11
ATOM     11  C   LIG d   1      -4.363  75.582 116.415  0.00  0.00     0.028 C 
ATOM     12  C   LIG d   1      -3.553  74.284 116.552  0.00  0.00     0.006 C 
ENDBRANCH   8  11
ENDBRANCH   7   8
ENDBRANCH   1   7
BRANCH   6  13
ATOM     13  N   LIG d   1      -9.624  75.997 117.457  0.00  0.00    -0.311 N 
ATOM     14  C   LIG d   1     -10.383  75.225 118.233  0.00  0.00     0.210 C 
ATOM     15  C   LIG d   1     -11.265  74.222 117.482  0.00  0.00     0.109 C 
ATOM     16  O   LIG d   1     -10.434  75.298 119.470  0.00  0.00    -0.276 OA
ATOM     17  H   LIG d   1      -9.670  75.893 116.462  0.00  0.00     0.149 HD
ENDBRANCH   6  13
BRANCH   5  18
ATOM     18  N   LIG d   1     -10.459  78.489 119.016  0.00  0.00     0.381 N 
ATOM     19  H   LIG d   1     -11.230  78.963 118.590  0.00  0.00    -0.090 HD
ATOM     20  H   LIG d   1     -10.175  79.012 119.825  0.00  0.00    -0.090 HD
ATOM     21  H   LIG d   1     -10.732  77.569 119.284  0.00  0.00    -0.090 HD
ENDBRANCH   5  18
BRANCH   3  22
ATOM     22  C   LIG d   1      -6.349  80.537 117.655  0.00  0.00     0.382 C 
ATOM     23  O   LIG d   1      -6.757  81.453 116.901  0.00  0.00    -0.241 OA
ATOM     24  O   LIG d   1      -5.256  80.664 118.239  0.00  0.00    -0.241 OA
ENDBRANCH   3  22
TORSDOF 7
ENDMDL
MODEL 7
REMARK VINA RESULT:      -5.0      1.920      2.945
REMARK  7 active torsions:
REMARK  status: ('A' for Active; 'I' for Inactive)
REMARK    1  A    between atoms: C_2  and  C_3 
REMARK    2  A    between atoms: C_3  and  O_6 
REMARK    3  A    between atoms: C_3  and  C_4 
REMARK    4  A    between atoms: C_7  and  O_6 
REMARK    5  A    between atoms: C_9  and  C_10 
REMARK    6  A    between atoms: N_15  and  C_14 
REMARK    7  A    between atoms: N_20  and  C_19 
REMARK       I    between atoms: C_22  and  N_20 
ROOT
ATOM      1  C   LIG d   1      -9.918  77.186 118.342  0.00  0.00     0.161 C 
ATOM      2  C   LIG d   1     -10.619  75.980 118.180  0.00  0.00     0.016 C 
ATOM      3  C   LIG d   1     -10.121  74.884 117.438  0.00  0.00     0.038 C 
ATOM      4  C   LIG d   1      -8.813  74.865 116.931  0.00  0.00     0.028 C 
ATOM      5  C   LIG d   1      -8.257  76.255 116.638  0.00  0.00    -0.047 C 
ATOM      6  C   LIG d   1      -8.443  77.143 117.889  0.00  0.00     0.091 C 
ENDROOT
BRANCH   1   7
ATOM      7  O   LIG d   1     -10.009  77.624 119.712  0.00  0.00    -0.368 OA
BRANCH   7   8
ATOM      8  C   LIG d   1     -10.301  76.597 120.691  0.00  0.00     0.119 C 
BRANCH   8   9
ATOM      9  C   LIG d   1     -11.333  77.178 121.677  0.00  0.00     0.028 C 
ATOM     10  C   LIG d   1     -12.664  76.408 121.654  0.00  0.00     0.006 C 
ENDBRANCH   8   9
BRANCH   8  11
ATOM     11  C   LIG d   1      -9.069  76.269 121.540  0.00  0.00     0.028 C 
ATOM     12  C   LIG d   1      -9.080  74.828 122.073  0.00  0.00     0.006 C 
ENDBRANCH   8  11
ENDBRANCH   7   8
ENDBRANCH   1   7
BRANCH   6  13
ATOM     13  N   LIG d   1      -8.002  78.544 117.660  0.00  0.00    -0.311 N 
ATOM     14  C   LIG d   1      -6.766  78.974 117.911  0.00  0.00     0.210 C 
ATOM     15  C   LIG d   1      -6.528  80.459 117.623  0.00  0.00     0.109 C 
ATOM     16  O   LIG d   1      -5.837  78.258 118.314  0.00  0.00    -0.276 OA
ATOM     17  H   LIG d   1      -8.684  79.185 117.305  0.00  0.00     0.149 HD
ENDBRANCH   6  13
BRANCH   5  18
ATOM     18  N   LIG d   1      -6.843  76.096 116.247  0.00  0.00     0.381 N 
ATOM     19  H   LIG d   1      -6.689  75.169 115.904  0.00  0.00    -0.090 HD
ATOM     20  H   LIG d   1      -6.265  76.232 117.057  0.00  0.00    -0.090 HD
ATOM     21  H   LIG d   1      -6.607  76.761 115.545  0.00  0.00    -0.090 HD
ENDBRANCH   5  18
BRANCH   3  22
ATOM     22  C   LIG d   1     -10.949  73.807 117.163  0.00  0.00     0.382 C 
ATOM     23  O   LIG d   1     -10.470  72.756 116.674  0.00  0.00    -0.241 OA
ATOM     24  O   LIG d   1     -12.177  73.888 117.357  0.00  0.00    -0.241 OA
ENDBRANCH   3  22
TORSDOF 7
ENDMDL
MODEL 8
REMARK VINA RESULT:      -5.0      2.586      4.308
REMARK  7 active torsions:
REMARK  status: ('A' for Active; 'I' for Inactive)
REMARK    1  A    between atoms: C_2  and  C_3 
REMARK    2  A    between atoms: C_3  and  O_6 
REMARK    3  A    between atoms: C_3  and  C_4 
REMARK    4  A    between atoms: C_7  and  O_6 
REMARK    5  A    between atoms: C_9  and  C_10 
REMARK    6  A    between atoms: N_15  and  C_14 
REMARK    7  A    between atoms: N_20  and  C_19 
REMARK       I    between atoms: C_22  and  N_20 
ROOT
ATOM      1  C   LIG d   1      -9.750  77.752 118.487  0.00  0.00     0.161 C 
ATOM      2  C   LIG d   1     -10.916  76.978 118.612  0.00  0.00     0.016 C 
ATOM      3  C   LIG d   1     -11.022  75.649 118.140  0.00  0.00     0.038 C 
ATOM      4  C   LIG d   1      -9.913  74.949 117.643  0.00  0.00     0.028 C 
ATOM      5  C   LIG d   1      -8.847  75.854 117.035  0.00  0.00    -0.047 C 
ATOM      6  C   LIG d   1      -8.497  76.967 118.048  0.00  0.00     0.091 C 
ENDROOT
BRANCH   1   7
ATOM      7  O   LIG d   1      -9.496  78.454 119.720  0.00  0.00    -0.368 OA
BRANCH   7   8
ATOM      8  C   LIG d   1      -9.655  79.894 119.678  0.00  0.00     0.119 C 
BRANCH   8   9
ATOM      9  C   LIG d   1     -10.032  80.276 118.234  0.00  0.00     0.028 C 
ATOM     10  C   LIG d   1      -9.015  81.239 117.598  0.00  0.00     0.006 C 
ENDBRANCH   8   9
BRANCH   8  11
ATOM     11  C   LIG d   1      -8.329  80.609 119.954  0.00  0.00     0.028 C 
ATOM     12  C   LIG d   1      -7.319  79.723 120.702  0.00  0.00     0.006 C 
ENDBRANCH   8  11
ENDBRANCH   7   8
ENDBRANCH   1   7
BRANCH   6  13
ATOM     13  N   LIG d   1      -7.522  77.947 117.500  0.00  0.00    -0.311 N 
ATOM     14  C   LIG d   1      -6.209  77.869 117.708  0.00  0.00     0.210 C 
ATOM     15  C   LIG d   1      -5.386  78.992 117.070  0.00  0.00     0.109 C 
ATOM     16  O   LIG d   1      -5.645  76.960 118.334  0.00  0.00    -0.276 OA
ATOM     17  H   LIG d   1      -7.891  78.700 116.953  0.00  0.00     0.149 HD
ENDBRANCH   6  13
BRANCH   5  18
ATOM     18  N   LIG d   1      -7.691  75.008 116.683  0.00  0.00     0.381 N 
ATOM     19  H   LIG d   1      -6.875  75.333 117.162  0.00  0.00    -0.090 HD
ATOM     20  H   LIG d   1      -7.526  75.078 115.694  0.00  0.00    -0.090 HD
ATOM     21  H   LIG d   1      -7.874  74.060 116.930  0.00  0.00    -0.090 HD
ENDBRANCH   5  18
BRANCH   3  22
ATOM     22  C   LIG d   1     -12.258  75.022 118.125  0.00  0.00     0.382 C 
ATOM     23  O   LIG d   1     -13.240  75.558 118.693  0.00  0.00    -0.241 OA
ATOM     24  O   LIG d   1     -12.393  73.905 117.590  0.00  0.00    -0.241 OA
ENDBRANCH   3  22
TORSDOF 7
ENDMDL
MODEL 9
REMARK VINA RESULT:      -4.8      2.480      5.541
REMARK  7 active torsions:
REMARK  status: ('A' for Active; 'I' for Inactive)
REMARK    1  A    between atoms: C_2  and  C_3 
REMARK    2  A    between atoms: C_3  and  O_6 
REMARK    3  A    between atoms: C_3  and  C_4 
REMARK    4  A    between atoms: C_7  and  O_6 
REMARK    5  A    between atoms: C_9  and  C_10 
REMARK    6  A    between atoms: N_15  and  C_14 
REMARK    7  A    between atoms: N_20  and  C_19 
REMARK       I    between atoms: C_22  and  N_20 
ROOT
ATOM      1  C   LIG d   1      -7.568  77.142 118.005  0.00  0.00     0.161 C 
ATOM      2  C   LIG d   1      -8.582  78.104 118.147  0.00  0.00     0.016 C 
ATOM      3  C   LIG d   1      -8.363  79.493 118.001  0.00  0.00     0.038 C 
ATOM      4  C   LIG d   1      -7.137  80.007 117.551  0.00  0.00     0.028 C 
ATOM      5  C   LIG d   1      -5.947  79.113 117.883  0.00  0.00    -0.047 C 
ATOM      6  C   LIG d   1      -6.250  77.675 117.405  0.00  0.00     0.091 C 
ENDROOT
BRANCH   1   7
ATOM      7  O   LIG d   1      -8.057  76.028 117.231  0.00  0.00    -0.368 OA
BRANCH   7   8
ATOM      8  C   LIG d   1      -8.658  74.945 117.983  0.00  0.00     0.119 C 
BRANCH   8   9
ATOM      9  C   LIG d   1      -8.173  73.623 117.358  0.00  0.00     0.028 C 
ATOM     10  C   LIG d   1      -6.802  73.764 116.676  0.00  0.00     0.006 C 
ENDBRANCH   8   9
BRANCH   8  11
ATOM     11  C   LIG d   1     -10.181  74.934 117.822  0.00  0.00     0.028 C 
ATOM     12  C   LIG d   1     -10.684  73.746 116.987  0.00  0.00     0.006 C 
ENDBRANCH   8  11
ENDBRANCH   7   8
ENDBRANCH   1   7
BRANCH   6  13
ATOM     13  N   LIG d   1      -5.172  76.718 117.766  0.00  0.00    -0.311 N 
ATOM     14  C   LIG d   1      -4.183  76.382 116.940  0.00  0.00     0.210 C 
ATOM     15  C   LIG d   1      -3.187  75.364 117.504  0.00  0.00     0.109 C 
ATOM     16  O   LIG d   1      -4.018  76.855 115.805  0.00  0.00    -0.276 OA
ATOM     17  H   LIG d   1      -5.212  76.310 118.680  0.00  0.00     0.149 HD
ENDBRANCH   6  13
BRANCH   5  18
ATOM     18  N   LIG d   1      -4.757  79.698 117.237  0.00  0.00     0.381 N 
ATOM     19  H   LIG d   1      -4.453  80.501 117.751  0.00  0.00    -0.090 HD
ATOM     20  H   LIG d   1      -5.002  79.992 116.308  0.00  0.00    -0.090 HD
ATOM     21  H   LIG d   1      -4.024  79.024 117.197  0.00  0.00    -0.090 HD
ENDBRANCH   5  18
BRANCH   3  22
ATOM     22  C   LIG d   1      -9.365  80.387 118.345  0.00  0.00     0.382 C 
ATOM     23  O   LIG d   1      -9.092  81.401 119.032  0.00  0.00    -0.241 OA
ATOM     24  O   LIG d   1     -10.546  80.169 118.016  0.00  0.00    -0.241 OA
ENDBRANCH   3  22
TORSDOF 7
ENDMDL
