MODEL 1
REMARK VINA RESULT:      -5.5      0.000      0.000
REMARK  7 active torsions:
REMARK  status: ('A' for Active; 'I' for Inactive)
REMARK    1  A    between atoms: C_2  and  C_3 
REMARK    2  A    between atoms: C_3  and  O_6 
REMARK    3  A    between atoms: C_3  and  C_4 
REMARK    4  A    between atoms: C_7  and  O_6 
REMARK    5  A    between atoms: C_9  and  C_10 
REMARK    6  A    between atoms: N_15  and  C_14 
REMARK    7  A    between atoms: N_20  and  C_19 
REMARK       I    between atoms: C_22  and  N_20 
ROOT
ATOM      1  C   LIG d   1      -6.322  74.424 117.340  0.00  0.00     0.161 C 
ATOM      2  C   LIG d   1      -5.075  73.868 117.009  0.00  0.00     0.016 C 
ATOM      3  C   LIG d   1      -3.841  74.464 117.355  0.00  0.00     0.038 C 
ATOM      4  C   LIG d   1      -3.768  75.587 118.192  0.00  0.00     0.028 C 
ATOM      5  C   LIG d   1      -5.010  76.470 118.130  0.00  0.00    -0.047 C 
ATOM      6  C   LIG d   1      -6.262  75.590 118.349  0.00  0.00     0.091 C 
ENDROOT
BRANCH   1   7
ATOM      7  O   LIG d   1      -7.206  73.392 117.819  0.00  0.00    -0.368 OA
BRANCH   7   8
ATOM      8  C   LIG d   1      -7.819  72.557 116.806  0.00  0.00     0.119 C 
BRANCH   8   9
ATOM      9  C   LIG d   1      -9.347  72.688 116.961  0.00  0.00     0.028 C 
ATOM     10  C   LIG d   1      -9.809  74.155 116.993  0.00  0.00     0.006 C 
ENDBRANCH   8   9
BRANCH   8  11
ATOM     11  C   LIG d   1      -7.514  71.075 117.045  0.00  0.00     0.028 C 
ATOM     12  C   LIG d   1      -8.781  70.233 117.260  0.00  0.00     0.006 C 
ENDBRANCH   8  11
ENDBRANCH   7   8
ENDBRANCH   1   7
BRANCH   6  13
ATOM     13  N   LIG d   1      -7.526  76.362 118.220  0.00  0.00    -0.311 N 
ATOM     14  C   LIG d   1      -8.256  76.752 119.263  0.00  0.00     0.210 C 
ATOM     15  C   LIG d   1      -9.534  77.519 118.907  0.00  0.00     0.109 C 
ATOM     16  O   LIG d   1      -7.951  76.565 120.450  0.00  0.00    -0.276 OA
ATOM     17  H   LIG d   1      -7.832  76.584 117.293  0.00  0.00     0.149 HD
ENDBRANCH   6  13
BRANCH   5  18
ATOM     18  N   LIG d   1      -4.859  77.524 119.150  0.00  0.00     0.381 N 
ATOM     19  H   LIG d   1      -4.569  78.377 118.715  0.00  0.00    -0.090 HD
ATOM     20  H   LIG d   1      -4.148  77.246 119.803  0.00  0.00    -0.090 HD
ATOM     21  H   LIG d   1      -5.722  77.663 119.628  0.00  0.00    -0.090 HD
ENDBRANCH   5  18
BRANCH   3  22
ATOM     22  C   LIG d   1      -2.662  73.958 116.828  0.00  0.00     0.382 C 
ATOM     23  O   LIG d   1      -2.157  74.481 115.805  0.00  0.00    -0.241 OA
ATOM     24  O   LIG d   1      -2.120  72.958 117.337  0.00  0.00    -0.241 OA
ENDBRANCH   3  22
TORSDOF 7
ENDMDL
MODEL 2
REMARK VINA RESULT:      -5.4      1.960      5.170
REMARK  7 active torsions:
REMARK  status: ('A' for Active; 'I' for Inactive)
REMARK    1  A    between atoms: C_2  and  C_3 
REMARK    2  A    between atoms: C_3  and  O_6 
REMARK    3  A    between atoms: C_3  and  C_4 
REMARK    4  A    between atoms: C_7  and  O_6 
REMARK    5  A    between atoms: C_9  and  C_10 
REMARK    6  A    between atoms: N_15  and  C_14 
REMARK    7  A    between atoms: N_20  and  C_19 
REMARK       I    between atoms: C_22  and  N_20 
ROOT
ATOM      1  C   LIG d   1      -7.547  75.664 118.132  0.00  0.00     0.161 C 
ATOM      2  C   LIG d   1      -8.803  76.286 118.228  0.00  0.00     0.016 C 
ATOM      3  C   LIG d   1      -8.970  77.666 118.485  0.00  0.00     0.038 C 
ATOM      4  C   LIG d   1      -7.883  78.552 118.513  0.00  0.00     0.028 C 
ATOM      5  C   LIG d   1      -6.573  77.889 118.924  0.00  0.00    -0.047 C 
ATOM      6  C   LIG d   1      -6.350  76.634 118.050  0.00  0.00     0.091 C 
ENDROOT
BRANCH   1   7
ATOM      7  O   LIG d   1      -7.535  74.757 117.012  0.00  0.00    -0.368 OA
BRANCH   7   8
ATOM      8  C   LIG d   1      -7.632  73.347 117.332  0.00  0.00     0.119 C 
BRANCH   8   9
ATOM      9  C   LIG d   1      -6.858  72.572 116.248  0.00  0.00     0.028 C 
ATOM     10  C   LIG d   1      -5.546  73.270 115.851  0.00  0.00     0.006 C 
ENDBRANCH   8   9
BRANCH   8  11
ATOM     11  C   LIG d   1      -9.078  72.851 117.230  0.00  0.00     0.028 C 
ATOM     12  C   LIG d   1      -9.175  71.385 116.781  0.00  0.00     0.006 C 
ENDBRANCH   8  11
ENDBRANCH   7   8
ENDBRANCH   1   7
BRANCH   6  13
ATOM     13  N   LIG d   1      -5.132  75.879 118.443  0.00  0.00    -0.311 N 
ATOM     14  C   LIG d   1      -3.937  76.073 117.885  0.00  0.00     0.210 C 
ATOM     15  C   LIG d   1      -2.819  75.174 118.423  0.00  0.00     0.109 C 
ATOM     16  O   LIG d   1      -3.691  76.926 117.020  0.00  0.00    -0.276 OA
ATOM     17  H   LIG d   1      -5.234  75.188 119.160  0.00  0.00     0.149 HD
ENDBRANCH   6  13
BRANCH   5  18
ATOM     18  N   LIG d   1      -5.501  78.893 118.778  0.00  0.00     0.381 N 
ATOM     19  H   LIG d   1      -5.565  79.565 119.516  0.00  0.00    -0.090 HD
ATOM     20  H   LIG d   1      -5.621  79.372 117.903  0.00  0.00    -0.090 HD
ATOM     21  H   LIG d   1      -4.611  78.446 118.801  0.00  0.00    -0.090 HD
ENDBRANCH   5  18
BRANCH   3  22
ATOM     22  C   LIG d   1     -10.235  78.166 118.756  0.00  0.00     0.382 C 
ATOM     23  O   LIG d   1     -11.173  77.381 119.036  0.00  0.00    -0.241 OA
ATOM     24  O   LIG d   1     -10.460  79.389 118.680  0.00  0.00    -0.241 OA
ENDBRANCH   3  22
TORSDOF 7
ENDMDL
MODEL 3
REMARK VINA RESULT:      -5.2      2.447      4.791
REMARK  7 active torsions:
REMARK  status: ('A' for Active; 'I' for Inactive)
REMARK    1  A    between atoms: C_2  and  C_3 
REMARK    2  A    between atoms: C_3  and  O_6 
REMARK    3  A    between atoms: C_3  and  C_4 
REMARK    4  A    between atoms: C_7  and  O_6 
REMARK    5  A    between atoms: C_9  and  C_10 
REMARK    6  A    between atoms: N_15  and  C_14 
REMARK    7  A    between atoms: N_20  and  C_19 
REMARK       I    between atoms: C_22  and  N_20 
ROOT
ATOM      1  C   LIG d   1      -7.725  75.337 117.353  0.00  0.00     0.161 C 
ATOM      2  C   LIG d   1      -8.269  74.048 117.222  0.00  0.00     0.016 C 
ATOM      3  C   LIG d   1      -7.500  72.909 116.892  0.00  0.00     0.038 C 
ATOM      4  C   LIG d   1      -6.100  72.955 116.817  0.00  0.00     0.028 C 
ATOM      5  C   LIG d   1      -5.559  74.331 116.444  0.00  0.00    -0.047 C 
ATOM      6  C   LIG d   1      -6.183  75.388 117.384  0.00  0.00     0.091 C 
ENDROOT
BRANCH   1   7
ATOM      7  O   LIG d   1      -8.271  75.982 118.520  0.00  0.00    -0.368 OA
BRANCH   7   8
ATOM      8  C   LIG d   1      -9.192  77.073 118.273  0.00  0.00     0.119 C 
BRANCH   8   9
ATOM      9  C   LIG d   1      -8.931  78.151 119.343  0.00  0.00     0.028 C 
ATOM     10  C   LIG d   1      -8.454  79.479 118.734  0.00  0.00     0.006 C 
ENDBRANCH   8   9
BRANCH   8  11
ATOM     11  C   LIG d   1     -10.644  76.635 118.484  0.00  0.00     0.028 C 
ATOM     12  C   LIG d   1     -11.318  77.354 119.663  0.00  0.00     0.006 C 
ENDBRANCH   8  11
ENDBRANCH   7   8
ENDBRANCH   1   7
BRANCH   6  13
ATOM     13  N   LIG d   1      -5.771  76.772 117.033  0.00  0.00    -0.311 N 
ATOM     14  C   LIG d   1      -5.340  77.658 117.929  0.00  0.00     0.210 C 
ATOM     15  C   LIG d   1      -4.986  79.035 117.359  0.00  0.00     0.109 C 
ATOM     16  O   LIG d   1      -5.186  77.424 119.137  0.00  0.00    -0.276 OA
ATOM     17  H   LIG d   1      -5.835  77.037 116.069  0.00  0.00     0.149 HD
ENDBRANCH   6  13
BRANCH   5  18
ATOM     18  N   LIG d   1      -4.088  74.272 116.537  0.00  0.00     0.381 N 
ATOM     19  H   LIG d   1      -3.722  73.731 115.779  0.00  0.00    -0.090 HD
ATOM     20  H   LIG d   1      -3.834  73.820 117.398  0.00  0.00    -0.090 HD
ATOM     21  H   LIG d   1      -3.707  75.192 116.511  0.00  0.00    -0.090 HD
ENDBRANCH   5  18
BRANCH   3  22
ATOM     22  C   LIG d   1      -8.136  71.714 116.593  0.00  0.00     0.382 C 
ATOM     23  O   LIG d   1      -9.384  71.681 116.471  0.00  0.00    -0.241 OA
ATOM     24  O   LIG d   1      -7.482  70.659 116.489  0.00  0.00    -0.241 OA
ENDBRANCH   3  22
TORSDOF 7
ENDMDL
MODEL 4
REMARK VINA RESULT:      -5.2      2.032      5.087
REMARK  7 active torsions:
REMARK  status: ('A' for Active; 'I' for Inactive)
REMARK    1  A    between atoms: C_2  and  C_3 
REMARK    2  A    between atoms: C_3  and  O_6 
REMARK    3  A    between atoms: C_3  and  C_4 
REMARK    4  A    between atoms: C_7  and  O_6 
REMARK    5  A    between atoms: C_9  and  C_10 
REMARK    6  A    between atoms: N_15  and  C_14 
REMARK    7  A    between atoms: N_20  and  C_19 
REMARK       I    between atoms: C_22  and  N_20 
ROOT
ATOM      1  C   LIG d   1      -6.318  74.452 117.581  0.00  0.00     0.161 C 
ATOM      2  C   LIG d   1      -6.801  73.164 117.294  0.00  0.00     0.016 C 
ATOM      3  C   LIG d   1      -8.174  72.863 117.143  0.00  0.00     0.038 C 
ATOM      4  C   LIG d   1      -9.155  73.866 117.120  0.00  0.00     0.028 C 
ATOM      5  C   LIG d   1      -8.765  75.113 117.907  0.00  0.00    -0.047 C 
ATOM      6  C   LIG d   1      -7.364  75.579 117.449  0.00  0.00     0.091 C 
ENDROOT
BRANCH   1   7
ATOM      7  O   LIG d   1      -5.169  74.737 116.760  0.00  0.00    -0.368 OA
BRANCH   7   8
ATOM      8  C   LIG d   1      -3.877  74.455 117.352  0.00  0.00     0.119 C 
BRANCH   8   9
ATOM      9  C   LIG d   1      -3.353  75.767 117.966  0.00  0.00     0.028 C 
ATOM     10  C   LIG d   1      -3.475  75.788 119.499  0.00  0.00     0.006 C 
ENDBRANCH   8   9
BRANCH   8  11
ATOM     11  C   LIG d   1      -2.848  74.067 116.286  0.00  0.00     0.028 C 
ATOM     12  C   LIG d   1      -1.512  73.602 116.888  0.00  0.00     0.006 C 
ENDBRANCH   8  11
ENDBRANCH   7   8
ENDBRANCH   1   7
BRANCH   6  13
ATOM     13  N   LIG d   1      -6.871  76.744 118.228  0.00  0.00    -0.311 N 
ATOM     14  C   LIG d   1      -6.291  77.806 117.672  0.00  0.00     0.210 C 
ATOM     15  C   LIG d   1      -5.838  78.886 118.658  0.00  0.00     0.109 C 
ATOM     16  O   LIG d   1      -6.138  77.970 116.452  0.00  0.00    -0.276 OA
ATOM     17  H   LIG d   1      -6.983  76.708 119.222  0.00  0.00     0.149 HD
ENDBRANCH   6  13
BRANCH   5  18
ATOM     18  N   LIG d   1      -9.813  76.126 117.685  0.00  0.00     0.381 N 
ATOM     19  H   LIG d   1      -9.448  77.038 117.873  0.00  0.00    -0.090 HD
ATOM     20  H   LIG d   1     -10.573  75.954 118.320  0.00  0.00    -0.090 HD
ATOM     21  H   LIG d   1     -10.140  76.079 116.745  0.00  0.00    -0.090 HD
ENDBRANCH   5  18
BRANCH   3  22
ATOM     22  C   LIG d   1      -8.582  71.541 117.054  0.00  0.00     0.382 C 
ATOM     23  O   LIG d   1      -9.662  71.181 117.582  0.00  0.00    -0.241 OA
ATOM     24  O   LIG d   1      -7.863  70.695 116.490  0.00  0.00    -0.241 OA
ENDBRANCH   3  22
TORSDOF 7
ENDMDL
MODEL 5
REMARK VINA RESULT:      -5.1     17.157     19.667
REMARK  7 active torsions:
REMARK  status: ('A' for Active; 'I' for Inactive)
REMARK    1  A    between atoms: C_2  and  C_3 
REMARK    2  A    between atoms: C_3  and  O_6 
REMARK    3  A    between atoms: C_3  and  C_4 
REMARK    4  A    between atoms: C_7  and  O_6 
REMARK    5  A    between atoms: C_9  and  C_10 
REMARK    6  A    between atoms: N_15  and  C_14 
REMARK    7  A    between atoms: N_20  and  C_19 
REMARK       I    between atoms: C_22  and  N_20 
ROOT
ATOM      1  C   LIG d   1      -1.280  93.494 117.863  0.00  0.00     0.161 C 
ATOM      2  C   LIG d   1      -1.009  94.628 118.647  0.00  0.00     0.016 C 
ATOM      3  C   LIG d   1      -1.808  95.024 119.745  0.00  0.00     0.038 C 
ATOM      4  C   LIG d   1      -2.853  94.223 120.228  0.00  0.00     0.028 C 
ATOM      5  C   LIG d   1      -3.475  93.329 119.160  0.00  0.00    -0.047 C 
ATOM      6  C   LIG d   1      -2.351  92.547 118.443  0.00  0.00     0.091 C 
ENDROOT
BRANCH   1   7
ATOM      7  O   LIG d   1      -0.059  92.773 117.608  0.00  0.00    -0.368 OA
BRANCH   7   8
ATOM      8  C   LIG d   1       0.340  91.816 118.620  0.00  0.00     0.119 C 
BRANCH   8   9
ATOM      9  C   LIG d   1       1.707  92.266 119.169  0.00  0.00     0.028 C 
ATOM     10  C   LIG d   1       2.582  92.931 118.093  0.00  0.00     0.006 C 
ENDBRANCH   8   9
BRANCH   8  11
ATOM     11  C   LIG d   1       0.582  90.431 118.013  0.00  0.00     0.028 C 
ATOM     12  C   LIG d   1       0.427  90.415 116.484  0.00  0.00     0.006 C 
ENDBRANCH   8  11
ENDBRANCH   7   8
ENDBRANCH   1   7
BRANCH   6  13
ATOM     13  N   LIG d   1      -2.866  91.712 117.327  0.00  0.00    -0.311 N 
ATOM     14  C   LIG d   1      -3.184  90.425 117.460  0.00  0.00     0.210 C 
ATOM     15  C   LIG d   1      -3.676  89.745 116.179  0.00  0.00     0.109 C 
ATOM     16  O   LIG d   1      -3.135  89.792 118.525  0.00  0.00    -0.276 OA
ATOM     17  H   LIG d   1      -2.966  92.155 116.434  0.00  0.00     0.149 HD
ENDBRANCH   6  13
BRANCH   5  18
ATOM     18  N   LIG d   1      -4.455  92.452 119.829  0.00  0.00     0.381 N 
ATOM     19  H   LIG d   1      -4.723  92.850 120.707  0.00  0.00    -0.090 HD
ATOM     20  H   LIG d   1      -4.025  91.561 120.005  0.00  0.00    -0.090 HD
ATOM     21  H   LIG d   1      -5.257  92.334 119.251  0.00  0.00    -0.090 HD
ENDBRANCH   5  18
BRANCH   3  22
ATOM     22  C   LIG d   1      -1.588  96.254 120.346  0.00  0.00     0.382 C 
ATOM     23  O   LIG d   1      -1.773  97.311 119.696  0.00  0.00    -0.241 OA
ATOM     24  O   LIG d   1      -1.165  96.319 121.516  0.00  0.00    -0.241 OA
ENDBRANCH   3  22
TORSDOF 7
ENDMDL
MODEL 6
REMARK VINA RESULT:      -4.9      2.207      4.976
REMARK  7 active torsions:
REMARK  status: ('A' for Active; 'I' for Inactive)
REMARK    1  A    between atoms: C_2  and  C_3 
REMARK    2  A    between atoms: C_3  and  O_6 
REMARK    3  A    between atoms: C_3  and  C_4 
REMARK    4  A    between atoms: C_7  and  O_6 
REMARK    5  A    between atoms: C_9  and  C_10 
REMARK    6  A    between atoms: N_15  and  C_14 
REMARK    7  A    between atoms: N_20  and  C_19 
REMARK       I    between atoms: C_22  and  N_20 
ROOT
ATOM      1  C   LIG d   1      -6.878  75.341 117.074  0.00  0.00     0.161 C 
ATOM      2  C   LIG d   1      -7.812  74.310 117.273  0.00  0.00     0.016 C 
ATOM      3  C   LIG d   1      -7.458  72.943 117.344  0.00  0.00     0.038 C 
ATOM      4  C   LIG d   1      -6.119  72.524 117.373  0.00  0.00     0.028 C 
ATOM      5  C   LIG d   1      -5.168  73.486 116.668  0.00  0.00    -0.047 C 
ATOM      6  C   LIG d   1      -5.402  74.913 117.215  0.00  0.00     0.091 C 
ENDROOT
BRANCH   1   7
ATOM      7  O   LIG d   1      -7.168  76.440 117.961  0.00  0.00    -0.368 OA
BRANCH   7   8
ATOM      8  C   LIG d   1      -8.022  76.137 119.092  0.00  0.00     0.119 C 
BRANCH   8   9
ATOM      9  C   LIG d   1      -9.072  77.260 119.192  0.00  0.00     0.028 C 
ATOM     10  C   LIG d   1     -10.437  76.839 118.621  0.00  0.00     0.006 C 
ENDBRANCH   8   9
BRANCH   8  11
ATOM     11  C   LIG d   1      -7.242  76.193 120.409  0.00  0.00     0.028 C 
ATOM     12  C   LIG d   1      -6.594  74.849 120.775  0.00  0.00     0.006 C 
ENDBRANCH   8  11
ENDBRANCH   7   8
ENDBRANCH   1   7
BRANCH   6  13
ATOM     13  N   LIG d   1      -4.571  75.930 116.519  0.00  0.00    -0.311 N 
ATOM     14  C   LIG d   1      -3.381  76.331 116.962  0.00  0.00     0.210 C 
ATOM     15  C   LIG d   1      -2.700  77.403 116.105  0.00  0.00     0.109 C 
ATOM     16  O   LIG d   1      -2.810  75.878 117.965  0.00  0.00    -0.276 OA
ATOM     17  H   LIG d   1      -4.945  76.328 115.680  0.00  0.00     0.149 HD
ENDBRANCH   6  13
BRANCH   5  18
ATOM     18  N   LIG d   1      -3.794  72.999 116.894  0.00  0.00     0.381 N 
ATOM     19  H   LIG d   1      -3.456  72.545 116.069  0.00  0.00    -0.090 HD
ATOM     20  H   LIG d   1      -3.805  72.329 117.642  0.00  0.00    -0.090 HD
ATOM     21  H   LIG d   1      -3.197  73.761 117.130  0.00  0.00    -0.090 HD
ENDBRANCH   5  18
BRANCH   3  22
ATOM     22  C   LIG d   1      -8.450  71.975 117.347  0.00  0.00     0.382 C 
ATOM     23  O   LIG d   1      -8.144  70.762 117.255  0.00  0.00    -0.241 OA
ATOM     24  O   LIG d   1      -9.651  72.302 117.396  0.00  0.00    -0.241 OA
ENDBRANCH   3  22
TORSDOF 7
ENDMDL
MODEL 7
REMARK VINA RESULT:      -4.9      1.840      4.845
REMARK  7 active torsions:
REMARK  status: ('A' for Active; 'I' for Inactive)
REMARK    1  A    between atoms: C_2  and  C_3 
REMARK    2  A    between atoms: C_3  and  O_6 
REMARK    3  A    between atoms: C_3  and  C_4 
REMARK    4  A    between atoms: C_7  and  O_6 
REMARK    5  A    between atoms: C_9  and  C_10 
REMARK    6  A    between atoms: N_15  and  C_14 
REMARK    7  A    between atoms: N_20  and  C_19 
REMARK       I    between atoms: C_22  and  N_20 
ROOT
ATOM      1  C   LIG d   1      -6.591  74.853 118.849  0.00  0.00     0.161 C 
ATOM      2  C   LIG d   1      -7.926  75.194 118.577  0.00  0.00     0.016 C 
ATOM      3  C   LIG d   1      -8.340  76.502 118.232  0.00  0.00     0.038 C 
ATOM      4  C   LIG d   1      -7.418  77.531 117.988  0.00  0.00     0.028 C 
ATOM      5  C   LIG d   1      -6.104  77.359 118.742  0.00  0.00    -0.047 C 
ATOM      6  C   LIG d   1      -5.557  75.937 118.479  0.00  0.00     0.091 C 
ENDROOT
BRANCH   1   7
ATOM      7  O   LIG d   1      -6.263  73.607 118.203  0.00  0.00    -0.368 OA
BRANCH   7   8
ATOM      8  C   LIG d   1      -7.038  73.278 117.023  0.00  0.00     0.119 C 
BRANCH   8   9
ATOM      9  C   LIG d   1      -7.732  71.928 117.287  0.00  0.00     0.028 C 
ATOM     10  C   LIG d   1      -9.253  71.998 117.073  0.00  0.00     0.006 C 
ENDBRANCH   8   9
BRANCH   8  11
ATOM     11  C   LIG d   1      -6.134  73.040 115.811  0.00  0.00     0.028 C 
ATOM     12  C   LIG d   1      -4.702  73.556 116.025  0.00  0.00     0.006 C 
ENDBRANCH   8  11
ENDBRANCH   7   8
ENDBRANCH   1   7
BRANCH   6  13
ATOM     13  N   LIG d   1      -4.316  75.656 119.247  0.00  0.00    -0.311 N 
ATOM     14  C   LIG d   1      -3.092  75.836 118.754  0.00  0.00     0.210 C 
ATOM     15  C   LIG d   1      -1.951  75.466 119.706  0.00  0.00     0.109 C 
ATOM     16  O   LIG d   1      -2.844  76.296 117.629  0.00  0.00    -0.276 OA
ATOM     17  H   LIG d   1      -4.426  75.309 120.180  0.00  0.00     0.149 HD
ENDBRANCH   6  13
BRANCH   5  18
ATOM     18  N   LIG d   1      -5.188  78.423 118.290  0.00  0.00     0.381 N 
ATOM     19  H   LIG d   1      -5.591  79.319 118.478  0.00  0.00    -0.090 HD
ATOM     20  H   LIG d   1      -5.057  78.339 117.297  0.00  0.00    -0.090 HD
ATOM     21  H   LIG d   1      -4.312  78.340 118.756  0.00  0.00    -0.090 HD
ENDBRANCH   5  18
BRANCH   3  22
ATOM     22  C   LIG d   1      -9.693  76.800 118.168  0.00  0.00     0.382 C 
ATOM     23  O   LIG d   1     -10.500  75.952 117.717  0.00  0.00    -0.241 OA
ATOM     24  O   LIG d   1     -10.109  77.922 118.513  0.00  0.00    -0.241 OA
ENDBRANCH   3  22
TORSDOF 7
ENDMDL
MODEL 8
REMARK VINA RESULT:      -4.5      2.306      5.483
REMARK  7 active torsions:
REMARK  status: ('A' for Active; 'I' for Inactive)
REMARK    1  A    between atoms: C_2  and  C_3 
REMARK    2  A    between atoms: C_3  and  O_6 
REMARK    3  A    between atoms: C_3  and  C_4 
REMARK    4  A    between atoms: C_7  and  O_6 
REMARK    5  A    between atoms: C_9  and  C_10 
REMARK    6  A    between atoms: N_15  and  C_14 
REMARK    7  A    between atoms: N_20  and  C_19 
REMARK       I    between atoms: C_22  and  N_20 
ROOT
ATOM      1  C   LIG d   1      -4.656  74.931 115.900  0.00  0.00     0.161 C 
ATOM      2  C   LIG d   1      -4.281  76.284 115.965  0.00  0.00     0.016 C 
ATOM      3  C   LIG d   1      -4.977  77.249 116.728  0.00  0.00     0.038 C 
ATOM      4  C   LIG d   1      -6.013  76.895 117.604  0.00  0.00     0.028 C 
ATOM      5  C   LIG d   1      -6.751  75.626 117.189  0.00  0.00    -0.047 C 
ATOM      6  C   LIG d   1      -5.717  74.505 116.937  0.00  0.00     0.091 C 
ENDROOT
BRANCH   1   7
ATOM      7  O   LIG d   1      -3.488  74.094 116.006  0.00  0.00    -0.368 OA
BRANCH   7   8
ATOM      8  C   LIG d   1      -2.301  74.721 116.552  0.00  0.00     0.119 C 
BRANCH   8   9
ATOM      9  C   LIG d   1      -1.085  74.137 115.807  0.00  0.00     0.028 C 
ATOM     10  C   LIG d   1      -0.191  73.284 116.723  0.00  0.00     0.006 C 
ENDBRANCH   8   9
BRANCH   8  11
ATOM     11  C   LIG d   1      -2.097  74.343 118.022  0.00  0.00     0.028 C 
ATOM     12  C   LIG d   1      -2.226  75.546 118.970  0.00  0.00     0.006 C 
ENDBRANCH   8  11
ENDBRANCH   7   8
ENDBRANCH   1   7
BRANCH   6  13
ATOM     13  N   LIG d   1      -6.348  73.253 116.445  0.00  0.00    -0.311 N 
ATOM     14  C   LIG d   1      -6.763  72.275 117.249  0.00  0.00     0.210 C 
ATOM     15  C   LIG d   1      -7.367  71.062 116.535  0.00  0.00     0.109 C 
ATOM     16  O   LIG d   1      -6.716  72.312 118.488  0.00  0.00    -0.276 OA
ATOM     17  H   LIG d   1      -6.453  73.153 115.454  0.00  0.00     0.149 HD
ENDBRANCH   6  13
BRANCH   5  18
ATOM     18  N   LIG d   1      -7.711  75.298 118.259  0.00  0.00     0.381 N 
ATOM     19  H   LIG d   1      -7.255  74.760 118.969  0.00  0.00    -0.090 HD
ATOM     20  H   LIG d   1      -8.453  74.743 117.871  0.00  0.00    -0.090 HD
ATOM     21  H   LIG d   1      -8.082  76.134 118.653  0.00  0.00    -0.090 HD
ENDBRANCH   5  18
BRANCH   3  22
ATOM     22  C   LIG d   1      -4.663  78.592 116.588  0.00  0.00     0.382 C 
ATOM     23  O   LIG d   1      -3.539  78.930 116.144  0.00  0.00    -0.241 OA
ATOM     24  O   LIG d   1      -5.472  79.471 116.942  0.00  0.00    -0.241 OA
ENDBRANCH   3  22
TORSDOF 7
ENDMDL
MODEL 9
REMARK VINA RESULT:      -4.5     10.162     12.981
REMARK  7 active torsions:
REMARK  status: ('A' for Active; 'I' for Inactive)
REMARK    1  A    between atoms: C_2  and  C_3 
REMARK    2  A    between atoms: C_3  and  O_6 
REMARK    3  A    between atoms: C_3  and  C_4 
REMARK    4  A    between atoms: C_7  and  O_6 
REMARK    5  A    between atoms: C_9  and  C_10 
REMARK    6  A    between atoms: N_15  and  C_14 
REMARK    7  A    between atoms: N_20  and  C_19 
REMARK       I    between atoms: C_22  and  N_20 
ROOT
ATOM      1  C   LIG d   1     -13.723  65.398 120.076  0.00  0.00     0.161 C 
ATOM      2  C   LIG d   1     -13.269  64.409 120.964  0.00  0.00     0.016 C 
ATOM      3  C   LIG d   1     -13.245  63.031 120.649  0.00  0.00     0.038 C 
ATOM      4  C   LIG d   1     -13.534  62.561 119.359  0.00  0.00     0.028 C 
ATOM      5  C   LIG d   1     -14.480  63.469 118.581  0.00  0.00    -0.047 C 
ATOM      6  C   LIG d   1     -13.937  64.916 118.626  0.00  0.00     0.091 C 
ENDROOT
BRANCH   1   7
ATOM      7  O   LIG d   1     -12.826  66.527 120.101  0.00  0.00    -0.368 OA
BRANCH   7   8
ATOM      8  C   LIG d   1     -13.111  67.545 121.091  0.00  0.00     0.119 C 
BRANCH   8   9
ATOM      9  C   LIG d   1     -14.425  68.236 120.679  0.00  0.00     0.028 C 
ATOM     10  C   LIG d   1     -15.496  68.166 121.782  0.00  0.00     0.006 C 
ENDBRANCH   8   9
BRANCH   8  11
ATOM     11  C   LIG d   1     -12.050  68.650 121.075  0.00  0.00     0.028 C 
ATOM     12  C   LIG d   1     -12.055  69.499 122.356  0.00  0.00     0.006 C 
ENDBRANCH   8  11
ENDBRANCH   7   8
ENDBRANCH   1   7
BRANCH   6  13
ATOM     13  N   LIG d   1     -14.848  65.884 117.960  0.00  0.00    -0.311 N 
ATOM     14  C   LIG d   1     -14.427  66.825 117.117  0.00  0.00     0.210 C 
ATOM     15  C   LIG d   1     -15.528  67.731 116.558  0.00  0.00     0.109 C 
ATOM     16  O   LIG d   1     -13.250  66.976 116.755  0.00  0.00    -0.276 OA
ATOM     17  H   LIG d   1     -15.823  65.813 118.173  0.00  0.00     0.149 HD
ENDBRANCH   6  13
BRANCH   5  18
ATOM     18  N   LIG d   1     -14.586  62.933 117.211  0.00  0.00     0.381 N 
ATOM     19  H   LIG d   1     -13.950  63.416 116.609  0.00  0.00    -0.090 HD
ATOM     20  H   LIG d   1     -15.520  63.088 116.873  0.00  0.00    -0.090 HD
ATOM     21  H   LIG d   1     -14.382  61.958 117.209  0.00  0.00    -0.090 HD
ENDBRANCH   5  18
BRANCH   3  22
ATOM     22  C   LIG d   1     -12.967  62.104 121.641  0.00  0.00     0.382 C 
ATOM     23  O   LIG d   1     -11.912  62.202 122.313  0.00  0.00    -0.241 OA
ATOM     24  O   LIG d   1     -13.736  61.145 121.843  0.00  0.00    -0.241 OA
ENDBRANCH   3  22
TORSDOF 7
ENDMDL
