MODEL 1
REMARK VINA RESULT:      -5.4      0.000      0.000
REMARK  7 active torsions:
REMARK  status: ('A' for Active; 'I' for Inactive)
REMARK    1  A    between atoms: C_2  and  C_3 
REMARK    2  A    between atoms: C_3  and  O_6 
REMARK    3  A    between atoms: C_3  and  C_4 
REMARK    4  A    between atoms: C_7  and  O_6 
REMARK    5  A    between atoms: C_9  and  C_10 
REMARK    6  A    between atoms: N_15  and  C_14 
REMARK    7  A    between atoms: N_20  and  C_19 
REMARK       I    between atoms: C_22  and  N_20 
ROOT
ATOM      1  C   LIG d   1      -7.789  75.445 117.827  0.00  0.00     0.161 C 
ATOM      2  C   LIG d   1      -7.915  74.146 117.308  0.00  0.00     0.016 C 
ATOM      3  C   LIG d   1      -9.112  73.395 117.371  0.00  0.00     0.038 C 
ATOM      4  C   LIG d   1     -10.315  73.955 117.827  0.00  0.00     0.028 C 
ATOM      5  C   LIG d   1     -10.115  75.091 118.824  0.00  0.00    -0.047 C 
ATOM      6  C   LIG d   1      -9.121  76.114 118.228  0.00  0.00     0.091 C 
ENDROOT
BRANCH   1   7
ATOM      7  O   LIG d   1      -7.072  76.277 116.894  0.00  0.00    -0.368 OA
BRANCH   7   8
ATOM      8  C   LIG d   1      -5.719  76.635 117.268  0.00  0.00     0.119 C 
BRANCH   8   9
ATOM      9  C   LIG d   1      -5.679  78.165 117.451  0.00  0.00     0.028 C 
ATOM     10  C   LIG d   1      -4.406  78.793 116.860  0.00  0.00     0.006 C 
ENDBRANCH   8   9
BRANCH   8  11
ATOM     11  C   LIG d   1      -4.730  76.336 116.138  0.00  0.00     0.028 C 
ATOM     12  C   LIG d   1      -4.313  74.857 116.087  0.00  0.00     0.006 C 
ENDBRANCH   8  11
ENDBRANCH   7   8
ENDBRANCH   1   7
BRANCH   6  13
ATOM     13  N   LIG d   1      -8.804  77.215 119.175  0.00  0.00    -0.311 N 
ATOM     14  C   LIG d   1      -9.511  78.341 119.251  0.00  0.00     0.210 C 
ATOM     15  C   LIG d   1      -9.002  79.355 120.281  0.00  0.00     0.109 C 
ATOM     16  O   LIG d   1     -10.529  78.584 118.587  0.00  0.00    -0.276 OA
ATOM     17  H   LIG d   1      -8.012  77.088 119.773  0.00  0.00     0.149 HD
ENDBRANCH   6  13
BRANCH   5  18
ATOM     18  N   LIG d   1     -11.440  75.672 119.110  0.00  0.00     0.381 N 
ATOM     19  H   LIG d   1     -11.427  76.126 120.001  0.00  0.00    -0.090 HD
ATOM     20  H   LIG d   1     -12.120  74.933 119.143  0.00  0.00    -0.090 HD
ATOM     21  H   LIG d   1     -11.686  76.327 118.400  0.00  0.00    -0.090 HD
ENDBRANCH   5  18
BRANCH   3  22
ATOM     22  C   LIG d   1      -9.103  72.056 117.013  0.00  0.00     0.382 C 
ATOM     23  O   LIG d   1     -10.164  71.387 117.061  0.00  0.00    -0.241 OA
ATOM     24  O   LIG d   1      -8.040  71.497 116.684  0.00  0.00    -0.241 OA
ENDBRANCH   3  22
TORSDOF 7
ENDMDL
MODEL 2
REMARK VINA RESULT:      -5.3      1.356      2.073
REMARK  7 active torsions:
REMARK  status: ('A' for Active; 'I' for Inactive)
REMARK    1  A    between atoms: C_2  and  C_3 
REMARK    2  A    between atoms: C_3  and  O_6 
REMARK    3  A    between atoms: C_3  and  C_4 
REMARK    4  A    between atoms: C_7  and  O_6 
REMARK    5  A    between atoms: C_9  and  C_10 
REMARK    6  A    between atoms: N_15  and  C_14 
REMARK    7  A    between atoms: N_20  and  C_19 
REMARK       I    between atoms: C_22  and  N_20 
ROOT
ATOM      1  C   LIG d   1      -8.498  75.393 119.181  0.00  0.00     0.161 C 
ATOM      2  C   LIG d   1      -8.284  74.214 118.447  0.00  0.00     0.016 C 
ATOM      3  C   LIG d   1      -9.264  73.628 117.613  0.00  0.00     0.038 C 
ATOM      4  C   LIG d   1     -10.482  74.267 117.337  0.00  0.00     0.028 C 
ATOM      5  C   LIG d   1     -10.940  75.204 118.450  0.00  0.00    -0.047 C 
ATOM      6  C   LIG d   1      -9.781  76.164 118.806  0.00  0.00     0.091 C 
ENDROOT
BRANCH   1   7
ATOM      7  O   LIG d   1      -7.347  76.253 119.071  0.00  0.00    -0.368 OA
BRANCH   7   8
ATOM      8  C   LIG d   1      -7.217  76.988 117.829  0.00  0.00     0.119 C 
BRANCH   8   9
ATOM      9  C   LIG d   1      -5.956  76.468 117.113  0.00  0.00     0.028 C 
ATOM     10  C   LIG d   1      -6.287  75.728 115.805  0.00  0.00     0.006 C 
ENDBRANCH   8   9
BRANCH   8  11
ATOM     11  C   LIG d   1      -6.952  78.474 118.088  0.00  0.00     0.028 C 
ATOM     12  C   LIG d   1      -6.629  78.775 119.560  0.00  0.00     0.006 C 
ENDBRANCH   8  11
ENDBRANCH   7   8
ENDBRANCH   1   7
BRANCH   6  13
ATOM     13  N   LIG d   1     -10.116  77.059 119.944  0.00  0.00    -0.311 N 
ATOM     14  C   LIG d   1     -10.364  78.360 119.804  0.00  0.00     0.210 C 
ATOM     15  C   LIG d   1     -10.669  79.104 121.109  0.00  0.00     0.109 C 
ATOM     16  O   LIG d   1     -10.392  78.963 118.721  0.00  0.00    -0.276 OA
ATOM     17  H   LIG d   1     -10.146  76.646 120.855  0.00  0.00     0.149 HD
ENDBRANCH   6  13
BRANCH   5  18
ATOM     18  N   LIG d   1     -12.146  75.906 117.973  0.00  0.00     0.381 N 
ATOM     19  H   LIG d   1     -12.918  75.270 117.941  0.00  0.00    -0.090 HD
ATOM     20  H   LIG d   1     -11.979  76.246 117.043  0.00  0.00    -0.090 HD
ATOM     21  H   LIG d   1     -12.360  76.668 118.579  0.00  0.00    -0.090 HD
ENDBRANCH   5  18
BRANCH   3  22
ATOM     22  C   LIG d   1      -9.046  72.368 117.077  0.00  0.00     0.382 C 
ATOM     23  O   LIG d   1     -10.012  71.590 116.889  0.00  0.00    -0.241 OA
ATOM     24  O   LIG d   1      -7.889  71.983 116.819  0.00  0.00    -0.241 OA
ENDBRANCH   3  22
TORSDOF 7
ENDMDL
MODEL 3
REMARK VINA RESULT:      -5.2      2.101      4.449
REMARK  7 active torsions:
REMARK  status: ('A' for Active; 'I' for Inactive)
REMARK    1  A    between atoms: C_2  and  C_3 
REMARK    2  A    between atoms: C_3  and  O_6 
REMARK    3  A    between atoms: C_3  and  C_4 
REMARK    4  A    between atoms: C_7  and  O_6 
REMARK    5  A    between atoms: C_9  and  C_10 
REMARK    6  A    between atoms: N_15  and  C_14 
REMARK    7  A    between atoms: N_20  and  C_19 
REMARK       I    between atoms: C_22  and  N_20 
ROOT
ATOM      1  C   LIG d   1      -8.310  75.745 118.388  0.00  0.00     0.161 C 
ATOM      2  C   LIG d   1      -8.731  74.421 118.184  0.00  0.00     0.016 C 
ATOM      3  C   LIG d   1      -8.068  73.517 117.323  0.00  0.00     0.038 C 
ATOM      4  C   LIG d   1      -6.842  73.832 116.718  0.00  0.00     0.028 C 
ATOM      5  C   LIG d   1      -6.644  75.328 116.495  0.00  0.00    -0.047 C 
ATOM      6  C   LIG d   1      -6.912  76.073 117.823  0.00  0.00     0.091 C 
ENDROOT
BRANCH   1   7
ATOM      7  O   LIG d   1      -8.371  76.067 119.791  0.00  0.00    -0.368 OA
BRANCH   7   8
ATOM      8  C   LIG d   1      -9.405  77.003 120.186  0.00  0.00     0.119 C 
BRANCH   8   9
ATOM      9  C   LIG d   1     -10.523  76.194 120.872  0.00  0.00     0.028 C 
ATOM     10  C   LIG d   1     -11.695  75.890 119.924  0.00  0.00     0.006 C 
ENDBRANCH   8   9
BRANCH   8  11
ATOM     11  C   LIG d   1     -10.065  77.651 118.965  0.00  0.00     0.028 C 
ATOM     12  C   LIG d   1      -9.976  79.185 118.984  0.00  0.00     0.006 C 
ENDBRANCH   8  11
ENDBRANCH   7   8
ENDBRANCH   1   7
BRANCH   6  13
ATOM     13  N   LIG d   1      -6.822  77.549 117.673  0.00  0.00    -0.311 N 
ATOM     14  C   LIG d   1      -6.070  78.321 118.455  0.00  0.00     0.210 C 
ATOM     15  C   LIG d   1      -6.137  79.819 118.142  0.00  0.00     0.109 C 
ATOM     16  O   LIG d   1      -5.328  77.904 119.357  0.00  0.00    -0.276 OA
ATOM     17  H   LIG d   1      -7.367  77.967 116.945  0.00  0.00     0.149 HD
ENDBRANCH   6  13
BRANCH   5  18
ATOM     18  N   LIG d   1      -5.273  75.525 115.987  0.00  0.00     0.381 N 
ATOM     19  H   LIG d   1      -5.222  75.239 115.030  0.00  0.00    -0.090 HD
ATOM     20  H   LIG d   1      -4.643  74.953 116.521  0.00  0.00    -0.090 HD
ATOM     21  H   LIG d   1      -5.014  76.484 116.069  0.00  0.00    -0.090 HD
ENDBRANCH   5  18
BRANCH   3  22
ATOM     22  C   LIG d   1      -8.652  72.294 117.027  0.00  0.00     0.382 C 
ATOM     23  O   LIG d   1      -7.936  71.323 116.684  0.00  0.00    -0.241 OA
ATOM     24  O   LIG d   1      -9.891  72.163 117.057  0.00  0.00    -0.241 OA
ENDBRANCH   3  22
TORSDOF 7
ENDMDL
MODEL 4
REMARK VINA RESULT:      -5.0      0.908      1.218
REMARK  7 active torsions:
REMARK  status: ('A' for Active; 'I' for Inactive)
REMARK    1  A    between atoms: C_2  and  C_3 
REMARK    2  A    between atoms: C_3  and  O_6 
REMARK    3  A    between atoms: C_3  and  C_4 
REMARK    4  A    between atoms: C_7  and  O_6 
REMARK    5  A    between atoms: C_9  and  C_10 
REMARK    6  A    between atoms: N_15  and  C_14 
REMARK    7  A    between atoms: N_20  and  C_19 
REMARK       I    between atoms: C_22  and  N_20 
ROOT
ATOM      1  C   LIG d   1      -8.236  76.173 118.434  0.00  0.00     0.161 C 
ATOM      2  C   LIG d   1      -8.214  74.911 117.818  0.00  0.00     0.016 C 
ATOM      3  C   LIG d   1      -9.355  74.086 117.693  0.00  0.00     0.038 C 
ATOM      4  C   LIG d   1     -10.637  74.534 118.046  0.00  0.00     0.028 C 
ATOM      5  C   LIG d   1     -10.627  75.602 119.134  0.00  0.00    -0.047 C 
ATOM      6  C   LIG d   1      -9.647  76.726 118.725  0.00  0.00     0.091 C 
ENDROOT
BRANCH   1   7
ATOM      7  O   LIG d   1      -7.481  77.115 117.647  0.00  0.00    -0.368 OA
BRANCH   7   8
ATOM      8  C   LIG d   1      -6.048  76.904 117.602  0.00  0.00     0.119 C 
BRANCH   8   9
ATOM      9  C   LIG d   1      -5.374  78.207 118.076  0.00  0.00     0.028 C 
ATOM     10  C   LIG d   1      -6.374  79.366 118.221  0.00  0.00     0.006 C 
ENDBRANCH   8   9
BRANCH   8  11
ATOM     11  C   LIG d   1      -5.561  76.695 116.166  0.00  0.00     0.028 C 
ATOM     12  C   LIG d   1      -5.013  75.279 115.923  0.00  0.00     0.006 C 
ENDBRANCH   8  11
ENDBRANCH   7   8
ENDBRANCH   1   7
BRANCH   6  13
ATOM     13  N   LIG d   1      -9.513  77.771 119.774  0.00  0.00    -0.311 N 
ATOM     14  C   LIG d   1      -9.859  79.044 119.589  0.00  0.00     0.210 C 
ATOM     15  C   LIG d   1      -9.621  79.960 120.793  0.00  0.00     0.109 C 
ATOM     16  O   LIG d   1     -10.370  79.494 118.553  0.00  0.00    -0.276 OA
ATOM     17  H   LIG d   1      -9.136  77.485 120.656  0.00  0.00     0.149 HD
ENDBRANCH   6  13
BRANCH   5  18
ATOM     18  N   LIG d   1     -12.013  76.077 119.305  0.00  0.00     0.381 N 
ATOM     19  H   LIG d   1     -12.246  76.714 118.569  0.00  0.00    -0.090 HD
ATOM     20  H   LIG d   1     -12.083  76.567 120.180  0.00  0.00    -0.090 HD
ATOM     21  H   LIG d   1     -12.641  75.305 119.298  0.00  0.00    -0.090 HD
ENDBRANCH   5  18
BRANCH   3  22
ATOM     22  C   LIG d   1      -9.214  72.780 117.248  0.00  0.00     0.382 C 
ATOM     23  O   LIG d   1      -8.070  72.276 117.138  0.00  0.00    -0.241 OA
ATOM     24  O   LIG d   1     -10.212  72.115 116.913  0.00  0.00    -0.241 OA
ENDBRANCH   3  22
TORSDOF 7
ENDMDL
MODEL 5
REMARK VINA RESULT:      -4.9      2.875      3.969
REMARK  7 active torsions:
REMARK  status: ('A' for Active; 'I' for Inactive)
REMARK    1  A    between atoms: C_2  and  C_3 
REMARK    2  A    between atoms: C_3  and  O_6 
REMARK    3  A    between atoms: C_3  and  C_4 
REMARK    4  A    between atoms: C_7  and  O_6 
REMARK    5  A    between atoms: C_9  and  C_10 
REMARK    6  A    between atoms: N_15  and  C_14 
REMARK    7  A    between atoms: N_20  and  C_19 
REMARK       I    between atoms: C_22  and  N_20 
ROOT
ATOM      1  C   LIG d   1      -7.499  78.421 118.463  0.00  0.00     0.161 C 
ATOM      2  C   LIG d   1      -8.401  77.344 118.473  0.00  0.00     0.016 C 
ATOM      3  C   LIG d   1      -9.776  77.483 118.770  0.00  0.00     0.038 C 
ATOM      4  C   LIG d   1     -10.376  78.741 118.931  0.00  0.00     0.028 C 
ATOM      5  C   LIG d   1      -9.413  79.813 119.429  0.00  0.00    -0.047 C 
ATOM      6  C   LIG d   1      -8.157  79.816 118.527  0.00  0.00     0.091 C 
ENDROOT
BRANCH   1   7
ATOM      7  O   LIG d   1      -6.637  78.327 117.313  0.00  0.00    -0.368 OA
BRANCH   7   8
ATOM      8  C   LIG d   1      -5.760  77.174 117.266  0.00  0.00     0.119 C 
BRANCH   8   9
ATOM      9  C   LIG d   1      -4.311  77.697 117.208  0.00  0.00     0.028 C 
ATOM     10  C   LIG d   1      -4.243  79.209 116.934  0.00  0.00     0.006 C 
ENDBRANCH   8   9
BRANCH   8  11
ATOM     11  C   LIG d   1      -5.956  76.376 115.974  0.00  0.00     0.028 C 
ATOM     12  C   LIG d   1      -6.432  74.937 116.229  0.00  0.00     0.006 C 
ENDBRANCH   8  11
ENDBRANCH   7   8
ENDBRANCH   1   7
BRANCH   6  13
ATOM     13  N   LIG d   1      -7.125  80.778 118.996  0.00  0.00    -0.311 N 
ATOM     14  C   LIG d   1      -6.668  81.782 118.250  0.00  0.00     0.210 C 
ATOM     15  C   LIG d   1      -5.591  82.645 118.917  0.00  0.00     0.109 C 
ATOM     16  O   LIG d   1      -7.074  82.060 117.112  0.00  0.00    -0.276 OA
ATOM     17  H   LIG d   1      -6.763  80.645 119.920  0.00  0.00     0.149 HD
ENDBRANCH   6  13
BRANCH   5  18
ATOM     18  N   LIG d   1     -10.134  81.100 119.419  0.00  0.00     0.381 N 
ATOM     19  H   LIG d   1     -10.778  81.121 118.654  0.00  0.00    -0.090 HD
ATOM     20  H   LIG d   1      -9.470  81.844 119.294  0.00  0.00    -0.090 HD
ATOM     21  H   LIG d   1     -10.623  81.223 120.279  0.00  0.00    -0.090 HD
ENDBRANCH   5  18
BRANCH   3  22
ATOM     22  C   LIG d   1     -10.558  76.353 118.948  0.00  0.00     0.382 C 
ATOM     23  O   LIG d   1     -11.704  76.296 118.440  0.00  0.00    -0.241 OA
ATOM     24  O   LIG d   1     -10.151  75.406 119.647  0.00  0.00    -0.241 OA
ENDBRANCH   3  22
TORSDOF 7
ENDMDL
MODEL 6
REMARK VINA RESULT:      -4.9      2.490      5.549
REMARK  7 active torsions:
REMARK  status: ('A' for Active; 'I' for Inactive)
REMARK    1  A    between atoms: C_2  and  C_3 
REMARK    2  A    between atoms: C_3  and  O_6 
REMARK    3  A    between atoms: C_3  and  C_4 
REMARK    4  A    between atoms: C_7  and  O_6 
REMARK    5  A    between atoms: C_9  and  C_10 
REMARK    6  A    between atoms: N_15  and  C_14 
REMARK    7  A    between atoms: N_20  and  C_19 
REMARK       I    between atoms: C_22  and  N_20 
ROOT
ATOM      1  C   LIG d   1      -8.290  77.553 118.406  0.00  0.00     0.161 C 
ATOM      2  C   LIG d   1      -7.202  78.385 118.095  0.00  0.00     0.016 C 
ATOM      3  C   LIG d   1      -7.113  79.736 118.502  0.00  0.00     0.038 C 
ATOM      4  C   LIG d   1      -8.043  80.307 119.384  0.00  0.00     0.028 C 
ATOM      5  C   LIG d   1      -9.421  79.657 119.316  0.00  0.00    -0.047 C 
ATOM      6  C   LIG d   1      -9.261  78.126 119.460  0.00  0.00     0.091 C 
ENDROOT
BRANCH   1   7
ATOM      7  O   LIG d   1      -7.813  76.257 118.817  0.00  0.00    -0.368 OA
BRANCH   7   8
ATOM      8  C   LIG d   1      -7.954  75.189 117.848  0.00  0.00     0.119 C 
BRANCH   8   9
ATOM      9  C   LIG d   1      -6.868  75.392 116.774  0.00  0.00     0.028 C 
ATOM     10  C   LIG d   1      -6.281  74.061 116.275  0.00  0.00     0.006 C 
ENDBRANCH   8   9
BRANCH   8  11
ATOM     11  C   LIG d   1      -9.287  75.288 117.100  0.00  0.00     0.028 C 
ATOM     12  C   LIG d   1     -10.218  74.098 117.381  0.00  0.00     0.006 C 
ENDBRANCH   8  11
ENDBRANCH   7   8
ENDBRANCH   1   7
BRANCH   6  13
ATOM     13  N   LIG d   1     -10.553  77.406 119.320  0.00  0.00    -0.311 N 
ATOM     14  C   LIG d   1     -11.035  76.578 120.246  0.00  0.00     0.210 C 
ATOM     15  C   LIG d   1     -12.375  75.923 119.894  0.00  0.00     0.109 C 
ATOM     16  O   LIG d   1     -10.496  76.349 121.339  0.00  0.00    -0.276 OA
ATOM     17  H   LIG d   1     -11.071  77.558 118.477  0.00  0.00     0.149 HD
ENDBRANCH   6  13
BRANCH   5  18
ATOM     18  N   LIG d   1     -10.249  80.255 120.380  0.00  0.00     0.381 N 
ATOM     19  H   LIG d   1      -9.660  80.654 121.083  0.00  0.00    -0.090 HD
ATOM     20  H   LIG d   1     -10.803  79.533 120.805  0.00  0.00    -0.090 HD
ATOM     21  H   LIG d   1     -10.843  80.957 119.996  0.00  0.00    -0.090 HD
ENDBRANCH   5  18
BRANCH   3  22
ATOM     22  C   LIG d   1      -6.106  80.542 117.995  0.00  0.00     0.382 C 
ATOM     23  O   LIG d   1      -4.904  80.254 118.211  0.00  0.00    -0.241 OA
ATOM     24  O   LIG d   1      -6.384  81.577 117.361  0.00  0.00    -0.241 OA
ENDBRANCH   3  22
TORSDOF 7
ENDMDL
MODEL 7
REMARK VINA RESULT:      -4.9      2.443      4.497
REMARK  7 active torsions:
REMARK  status: ('A' for Active; 'I' for Inactive)
REMARK    1  A    between atoms: C_2  and  C_3 
REMARK    2  A    between atoms: C_3  and  O_6 
REMARK    3  A    between atoms: C_3  and  C_4 
REMARK    4  A    between atoms: C_7  and  O_6 
REMARK    5  A    between atoms: C_9  and  C_10 
REMARK    6  A    between atoms: N_15  and  C_14 
REMARK    7  A    between atoms: N_20  and  C_19 
REMARK       I    between atoms: C_22  and  N_20 
ROOT
ATOM      1  C   LIG d   1      -7.624  77.031 117.677  0.00  0.00     0.161 C 
ATOM      2  C   LIG d   1      -8.753  76.251 117.976  0.00  0.00     0.016 C 
ATOM      3  C   LIG d   1      -8.835  74.866 117.707  0.00  0.00     0.038 C 
ATOM      4  C   LIG d   1      -7.729  74.131 117.255  0.00  0.00     0.028 C 
ATOM      5  C   LIG d   1      -6.728  74.968 116.465  0.00  0.00    -0.047 C 
ATOM      6  C   LIG d   1      -6.367  76.226 117.286  0.00  0.00     0.091 C 
ENDROOT
BRANCH   1   7
ATOM      7  O   LIG d   1      -7.332  77.912 118.780  0.00  0.00    -0.368 OA
BRANCH   7   8
ATOM      8  C   LIG d   1      -7.592  79.320 118.558  0.00  0.00     0.119 C 
BRANCH   8   9
ATOM      9  C   LIG d   1      -6.336  80.097 118.995  0.00  0.00     0.028 C 
ATOM     10  C   LIG d   1      -5.841  81.071 117.912  0.00  0.00     0.006 C 
ENDBRANCH   8   9
BRANCH   8  11
ATOM     11  C   LIG d   1      -8.719  79.828 119.462  0.00  0.00     0.028 C 
ATOM     12  C   LIG d   1      -9.965  80.264 118.675  0.00  0.00     0.006 C 
ENDBRANCH   8  11
ENDBRANCH   7   8
ENDBRANCH   1   7
BRANCH   6  13
ATOM     13  N   LIG d   1      -5.457  77.142 116.550  0.00  0.00    -0.311 N 
ATOM     14  C   LIG d   1      -4.326  77.621 117.064  0.00  0.00     0.210 C 
ATOM     15  C   LIG d   1      -3.546  78.566 116.143  0.00  0.00     0.109 C 
ATOM     16  O   LIG d   1      -3.877  77.328 118.182  0.00  0.00    -0.276 OA
ATOM     17  H   LIG d   1      -5.729  77.407 115.623  0.00  0.00     0.149 HD
ENDBRANCH   6  13
BRANCH   5  18
ATOM     18  N   LIG d   1      -5.563  74.112 116.174  0.00  0.00     0.381 N 
ATOM     19  H   LIG d   1      -4.788  74.679 115.892  0.00  0.00    -0.090 HD
ATOM     20  H   LIG d   1      -5.794  73.494 115.417  0.00  0.00    -0.090 HD
ATOM     21  H   LIG d   1      -5.319  73.583 116.982  0.00  0.00    -0.090 HD
ENDBRANCH   5  18
BRANCH   3  22
ATOM     22  C   LIG d   1     -10.048  74.208 117.852  0.00  0.00     0.382 C 
ATOM     23  O   LIG d   1     -10.302  73.200 117.149  0.00  0.00    -0.241 OA
ATOM     24  O   LIG d   1     -10.908  74.636 118.645  0.00  0.00    -0.241 OA
ENDBRANCH   3  22
TORSDOF 7
ENDMDL
MODEL 8
REMARK VINA RESULT:      -4.8      2.403      4.654
REMARK  7 active torsions:
REMARK  status: ('A' for Active; 'I' for Inactive)
REMARK    1  A    between atoms: C_2  and  C_3 
REMARK    2  A    between atoms: C_3  and  O_6 
REMARK    3  A    between atoms: C_3  and  C_4 
REMARK    4  A    between atoms: C_7  and  O_6 
REMARK    5  A    between atoms: C_9  and  C_10 
REMARK    6  A    between atoms: N_15  and  C_14 
REMARK    7  A    between atoms: N_20  and  C_19 
REMARK       I    between atoms: C_22  and  N_20 
ROOT
ATOM      1  C   LIG d   1      -8.114  77.746 118.537  0.00  0.00     0.161 C 
ATOM      2  C   LIG d   1      -6.948  77.657 117.757  0.00  0.00     0.016 C 
ATOM      3  C   LIG d   1      -6.663  76.565 116.906  0.00  0.00     0.038 C 
ATOM      4  C   LIG d   1      -7.602  75.551 116.660  0.00  0.00     0.028 C 
ATOM      5  C   LIG d   1      -8.581  75.341 117.810  0.00  0.00    -0.047 C 
ATOM      6  C   LIG d   1      -9.200  76.704 118.198  0.00  0.00     0.091 C 
ENDROOT
BRANCH   1   7
ATOM      7  O   LIG d   1      -8.655  79.079 118.455  0.00  0.00    -0.368 OA
BRANCH   7   8
ATOM      8  C   LIG d   1      -7.961  80.097 119.217  0.00  0.00     0.119 C 
BRANCH   8   9
ATOM      9  C   LIG d   1      -9.012  80.838 120.065  0.00  0.00     0.028 C 
ATOM     10  C   LIG d   1     -10.378  80.132 120.055  0.00  0.00     0.006 C 
ENDBRANCH   8   9
BRANCH   8  11
ATOM     11  C   LIG d   1      -7.355  81.163 118.299  0.00  0.00     0.028 C 
ATOM     12  C   LIG d   1      -8.414  82.091 117.683  0.00  0.00     0.006 C 
ENDBRANCH   8  11
ENDBRANCH   7   8
ENDBRANCH   1   7
BRANCH   6  13
ATOM     13  N   LIG d   1     -10.107  76.601 119.371  0.00  0.00    -0.311 N 
ATOM     14  C   LIG d   1     -11.421  76.410 119.267  0.00  0.00     0.210 C 
ATOM     15  C   LIG d   1     -12.173  76.354 120.600  0.00  0.00     0.109 C 
ATOM     16  O   LIG d   1     -12.030  76.249 118.199  0.00  0.00    -0.276 OA
ATOM     17  H   LIG d   1      -9.691  76.690 120.277  0.00  0.00     0.149 HD
ENDBRANCH   6  13
BRANCH   5  18
ATOM     18  N   LIG d   1      -9.585  74.356 117.366  0.00  0.00     0.381 N 
ATOM     19  H   LIG d   1     -10.225  74.165 118.111  0.00  0.00    -0.090 HD
ATOM     20  H   LIG d   1      -9.116  73.500 117.125  0.00  0.00    -0.090 HD
ATOM     21  H   LIG d   1     -10.080  74.706 116.575  0.00  0.00    -0.090 HD
ENDBRANCH   5  18
BRANCH   3  22
ATOM     22  C   LIG d   1      -5.411  76.459 116.320  0.00  0.00     0.382 C 
ATOM     23  O   LIG d   1      -4.798  75.364 116.346  0.00  0.00    -0.241 OA
ATOM     24  O   LIG d   1      -4.868  77.454 115.805  0.00  0.00    -0.241 OA
ENDBRANCH   3  22
TORSDOF 7
ENDMDL
MODEL 9
REMARK VINA RESULT:      -4.8      1.871      2.673
REMARK  7 active torsions:
REMARK  status: ('A' for Active; 'I' for Inactive)
REMARK    1  A    between atoms: C_2  and  C_3 
REMARK    2  A    between atoms: C_3  and  O_6 
REMARK    3  A    between atoms: C_3  and  C_4 
REMARK    4  A    between atoms: C_7  and  O_6 
REMARK    5  A    between atoms: C_9  and  C_10 
REMARK    6  A    between atoms: N_15  and  C_14 
REMARK    7  A    between atoms: N_20  and  C_19 
REMARK       I    between atoms: C_22  and  N_20 
ROOT
ATOM      1  C   LIG d   1      -7.655  77.513 118.400  0.00  0.00     0.161 C 
ATOM      2  C   LIG d   1      -7.108  76.384 117.767  0.00  0.00     0.016 C 
ATOM      3  C   LIG d   1      -7.868  75.247 117.411  0.00  0.00     0.038 C 
ATOM      4  C   LIG d   1      -9.266  75.223 117.526  0.00  0.00     0.028 C 
ATOM      5  C   LIG d   1      -9.798  76.139 118.623  0.00  0.00    -0.047 C 
ATOM      6  C   LIG d   1      -9.198  77.551 118.433  0.00  0.00     0.091 C 
ENDROOT
BRANCH   1   7
ATOM      7  O   LIG d   1      -7.138  78.713 117.791  0.00  0.00    -0.368 OA
BRANCH   7   8
ATOM      8  C   LIG d   1      -6.403  79.605 118.666  0.00  0.00     0.119 C 
BRANCH   8   9
ATOM      9  C   LIG d   1      -6.720  81.048 118.227  0.00  0.00     0.028 C 
ATOM     10  C   LIG d   1      -6.218  82.092 119.239  0.00  0.00     0.006 C 
ENDBRANCH   8   9
BRANCH   8  11
ATOM     11  C   LIG d   1      -4.891  79.447 118.479  0.00  0.00     0.028 C 
ATOM     12  C   LIG d   1      -4.499  79.142 117.025  0.00  0.00     0.006 C 
ENDBRANCH   8  11
ENDBRANCH   7   8
ENDBRANCH   1   7
BRANCH   6  13
ATOM     13  N   LIG d   1      -9.601  78.489 119.513  0.00  0.00    -0.311 N 
ATOM     14  C   LIG d   1     -10.092  79.705 119.283  0.00  0.00     0.210 C 
ATOM     15  C   LIG d   1     -10.426  80.516 120.539  0.00  0.00     0.109 C 
ATOM     16  O   LIG d   1     -10.314  80.177 118.157  0.00  0.00    -0.276 OA
ATOM     17  H   LIG d   1      -9.484  78.175 120.457  0.00  0.00     0.149 HD
ENDBRANCH   6  13
BRANCH   5  18
ATOM     18  N   LIG d   1     -11.271  76.122 118.542  0.00  0.00     0.381 N 
ATOM     19  H   LIG d   1     -11.647  75.618 119.320  0.00  0.00    -0.090 HD
ATOM     20  H   LIG d   1     -11.545  75.650 117.698  0.00  0.00    -0.090 HD
ATOM     21  H   LIG d   1     -11.623  77.054 118.539  0.00  0.00    -0.090 HD
ENDBRANCH   5  18
BRANCH   3  22
ATOM     22  C   LIG d   1      -7.224  74.101 116.968  0.00  0.00     0.382 C 
ATOM     23  O   LIG d   1      -7.576  72.978 117.402  0.00  0.00    -0.241 OA
ATOM     24  O   LIG d   1      -6.267  74.181 116.175  0.00  0.00    -0.241 OA
ENDBRANCH   3  22
TORSDOF 7
ENDMDL
