MODEL 1
REMARK VINA RESULT:      -4.8      0.000      0.000
REMARK  7 active torsions:
REMARK  status: ('A' for Active; 'I' for Inactive)
REMARK    1  A    between atoms: C_2  and  C_3 
REMARK    2  A    between atoms: C_3  and  O_6 
REMARK    3  A    between atoms: C_3  and  C_4 
REMARK    4  A    between atoms: C_7  and  O_6 
REMARK    5  A    between atoms: C_9  and  C_10 
REMARK    6  A    between atoms: N_15  and  C_14 
REMARK    7  A    between atoms: N_20  and  C_19 
REMARK       I    between atoms: C_22  and  N_20 
ROOT
ATOM      1  C   LIG d   1      -4.300  93.650 118.494  0.00  0.00     0.161 C 
ATOM      2  C   LIG d   1      -5.382  94.543 118.424  0.00  0.00     0.016 C 
ATOM      3  C   LIG d   1      -6.558  94.284 117.684  0.00  0.00     0.038 C 
ATOM      4  C   LIG d   1      -6.797  93.039 117.082  0.00  0.00     0.028 C 
ATOM      5  C   LIG d   1      -5.520  92.294 116.705  0.00  0.00    -0.047 C 
ATOM      6  C   LIG d   1      -4.588  92.240 117.936  0.00  0.00     0.091 C 
ENDROOT
BRANCH   1   7
ATOM      7  O   LIG d   1      -3.825  93.564 119.853  0.00  0.00    -0.368 OA
BRANCH   7   8
ATOM      8  C   LIG d   1      -4.308  92.438 120.626  0.00  0.00     0.119 C 
BRANCH   8   9
ATOM      9  C   LIG d   1      -5.338  92.978 121.637  0.00  0.00     0.028 C 
ATOM     10  C   LIG d   1      -6.762  92.472 121.349  0.00  0.00     0.006 C 
ENDBRANCH   8   9
BRANCH   8  11
ATOM     11  C   LIG d   1      -3.190  91.825 121.475  0.00  0.00     0.028 C 
ATOM     12  C   LIG d   1      -1.788  92.134 120.927  0.00  0.00     0.006 C 
ENDBRANCH   8  11
ENDBRANCH   7   8
ENDBRANCH   1   7
BRANCH   6  13
ATOM     13  N   LIG d   1      -3.281  91.602 117.630  0.00  0.00    -0.311 N 
ATOM     14  C   LIG d   1      -3.018  90.318 117.868  0.00  0.00     0.210 C 
ATOM     15  C   LIG d   1      -1.602  89.869 117.496  0.00  0.00     0.109 C 
ATOM     16  O   LIG d   1      -3.834  89.502 118.322  0.00  0.00    -0.276 OA
ATOM     17  H   LIG d   1      -2.571  92.185 117.231  0.00  0.00     0.149 HD
ENDBRANCH   6  13
BRANCH   5  18
ATOM     18  N   LIG d   1      -5.911  90.958 116.217  0.00  0.00     0.381 N 
ATOM     19  H   LIG d   1      -6.619  91.048 115.515  0.00  0.00    -0.090 HD
ATOM     20  H   LIG d   1      -6.291  90.431 116.983  0.00  0.00    -0.090 HD
ATOM     21  H   LIG d   1      -5.118  90.487 115.840  0.00  0.00    -0.090 HD
ENDBRANCH   5  18
BRANCH   3  22
ATOM     22  C   LIG d   1      -7.495  95.291 117.506  0.00  0.00     0.382 C 
ATOM     23  O   LIG d   1      -8.645  95.011 117.091  0.00  0.00    -0.241 OA
ATOM     24  O   LIG d   1      -7.190  96.480 117.713  0.00  0.00    -0.241 OA
ENDBRANCH   3  22
TORSDOF 7
ENDMDL
MODEL 2
REMARK VINA RESULT:      -4.8      2.102      4.077
REMARK  7 active torsions:
REMARK  status: ('A' for Active; 'I' for Inactive)
REMARK    1  A    between atoms: C_2  and  C_3 
REMARK    2  A    between atoms: C_3  and  O_6 
REMARK    3  A    between atoms: C_3  and  C_4 
REMARK    4  A    between atoms: C_7  and  O_6 
REMARK    5  A    between atoms: C_9  and  C_10 
REMARK    6  A    between atoms: N_15  and  C_14 
REMARK    7  A    between atoms: N_20  and  C_19 
REMARK       I    between atoms: C_22  and  N_20 
ROOT
ATOM      1  C   LIG d   1      -5.355  93.137 118.302  0.00  0.00     0.161 C 
ATOM      2  C   LIG d   1      -6.394  93.858 117.691  0.00  0.00     0.016 C 
ATOM      3  C   LIG d   1      -6.674  95.215 117.977  0.00  0.00     0.038 C 
ATOM      4  C   LIG d   1      -5.832  95.989 118.789  0.00  0.00     0.028 C 
ATOM      5  C   LIG d   1      -5.064  95.170 119.821  0.00  0.00    -0.047 C 
ATOM      6  C   LIG d   1      -4.358  93.996 119.106  0.00  0.00     0.091 C 
ENDROOT
BRANCH   1   7
ATOM      7  O   LIG d   1      -4.658  92.353 117.313  0.00  0.00    -0.368 OA
BRANCH   7   8
ATOM      8  C   LIG d   1      -5.001  90.946 117.258  0.00  0.00     0.119 C 
BRANCH   8   9
ATOM      9  C   LIG d   1      -3.696  90.145 117.431  0.00  0.00     0.028 C 
ATOM     10  C   LIG d   1      -3.495  89.656 118.876  0.00  0.00     0.006 C 
ENDBRANCH   8   9
BRANCH   8  11
ATOM     11  C   LIG d   1      -5.535  90.557 115.877  0.00  0.00     0.028 C 
ATOM     12  C   LIG d   1      -7.071  90.575 115.805  0.00  0.00     0.006 C 
ENDBRANCH   8  11
ENDBRANCH   7   8
ENDBRANCH   1   7
BRANCH   6  13
ATOM     13  N   LIG d   1      -3.652  93.096 120.056  0.00  0.00    -0.311 N 
ATOM     14  C   LIG d   1      -2.366  93.230 120.375  0.00  0.00     0.210 C 
ATOM     15  C   LIG d   1      -1.832  92.184 121.358  0.00  0.00     0.109 C 
ATOM     16  O   LIG d   1      -1.626  94.136 119.963  0.00  0.00    -0.276 OA
ATOM     17  H   LIG d   1      -4.186  92.352 120.461  0.00  0.00     0.149 HD
ENDBRANCH   6  13
BRANCH   5  18
ATOM     18  N   LIG d   1      -4.125  96.081 120.504  0.00  0.00     0.381 N 
ATOM     19  H   LIG d   1      -3.217  95.663 120.544  0.00  0.00    -0.090 HD
ATOM     20  H   LIG d   1      -4.445  96.232 121.444  0.00  0.00    -0.090 HD
ATOM     21  H   LIG d   1      -4.078  96.949 120.017  0.00  0.00    -0.090 HD
ENDBRANCH   5  18
BRANCH   3  22
ATOM     22  C   LIG d   1      -7.829  95.798 117.481  0.00  0.00     0.382 C 
ATOM     23  O   LIG d   1      -8.714  95.084 116.949  0.00  0.00    -0.241 OA
ATOM     24  O   LIG d   1      -7.979  97.034 117.518  0.00  0.00    -0.241 OA
ENDBRANCH   3  22
TORSDOF 7
ENDMDL
MODEL 3
REMARK VINA RESULT:      -4.8      1.414      2.335
REMARK  7 active torsions:
REMARK  status: ('A' for Active; 'I' for Inactive)
REMARK    1  A    between atoms: C_2  and  C_3 
REMARK    2  A    between atoms: C_3  and  O_6 
REMARK    3  A    between atoms: C_3  and  C_4 
REMARK    4  A    between atoms: C_7  and  O_6 
REMARK    5  A    between atoms: C_9  and  C_10 
REMARK    6  A    between atoms: N_15  and  C_14 
REMARK    7  A    between atoms: N_20  and  C_19 
REMARK       I    between atoms: C_22  and  N_20 
ROOT
ATOM      1  C   LIG d   1      -3.916  92.427 118.187  0.00  0.00     0.161 C 
ATOM      2  C   LIG d   1      -4.849  93.478 118.200  0.00  0.00     0.016 C 
ATOM      3  C   LIG d   1      -6.070  93.444 117.488  0.00  0.00     0.038 C 
ATOM      4  C   LIG d   1      -6.512  92.286 116.831  0.00  0.00     0.028 C 
ATOM      5  C   LIG d   1      -5.376  91.379 116.371  0.00  0.00    -0.047 C 
ATOM      6  C   LIG d   1      -4.432  91.113 117.565  0.00  0.00     0.091 C 
ENDROOT
BRANCH   1   7
ATOM      7  O   LIG d   1      -3.426  92.192 119.521  0.00  0.00    -0.368 OA
BRANCH   7   8
ATOM      8  C   LIG d   1      -2.194  92.868 119.876  0.00  0.00     0.119 C 
BRANCH   8   9
ATOM      9  C   LIG d   1      -1.047  91.852 119.717  0.00  0.00     0.028 C 
ATOM     10  C   LIG d   1      -0.228  92.087 118.436  0.00  0.00     0.006 C 
ENDBRANCH   8   9
BRANCH   8  11
ATOM     11  C   LIG d   1      -2.182  93.264 121.356  0.00  0.00     0.028 C 
ATOM     12  C   LIG d   1      -3.589  93.544 121.909  0.00  0.00     0.006 C 
ENDBRANCH   8  11
ENDBRANCH   7   8
ENDBRANCH   1   7
BRANCH   6  13
ATOM     13  N   LIG d   1      -3.247  90.302 117.181  0.00  0.00    -0.311 N 
ATOM     14  C   LIG d   1      -2.849  89.223 117.853  0.00  0.00     0.210 C 
ATOM     15  C   LIG d   1      -1.592  88.545 117.299  0.00  0.00     0.109 C 
ATOM     16  O   LIG d   1      -3.435  88.744 118.835  0.00  0.00    -0.276 OA
ATOM     17  H   LIG d   1      -2.731  90.601 116.377  0.00  0.00     0.149 HD
ENDBRANCH   6  13
BRANCH   5  18
ATOM     18  N   LIG d   1      -5.981  90.149 115.826  0.00  0.00     0.381 N 
ATOM     19  H   LIG d   1      -5.857  89.395 116.473  0.00  0.00    -0.090 HD
ATOM     20  H   LIG d   1      -5.515  89.909 114.970  0.00  0.00    -0.090 HD
ATOM     21  H   LIG d   1      -6.952  90.293 115.655  0.00  0.00    -0.090 HD
ENDBRANCH   5  18
BRANCH   3  22
ATOM     22  C   LIG d   1      -6.844  94.591 117.396  0.00  0.00     0.382 C 
ATOM     23  O   LIG d   1      -7.713  94.689 116.497  0.00  0.00    -0.241 OA
ATOM     24  O   LIG d   1      -6.653  95.546 118.173  0.00  0.00    -0.241 OA
ENDBRANCH   3  22
TORSDOF 7
ENDMDL
MODEL 4
REMARK VINA RESULT:      -4.6      2.614      4.709
REMARK  7 active torsions:
REMARK  status: ('A' for Active; 'I' for Inactive)
REMARK    1  A    between atoms: C_2  and  C_3 
REMARK    2  A    between atoms: C_3  and  O_6 
REMARK    3  A    between atoms: C_3  and  C_4 
REMARK    4  A    between atoms: C_7  and  O_6 
REMARK    5  A    between atoms: C_9  and  C_10 
REMARK    6  A    between atoms: N_15  and  C_14 
REMARK    7  A    between atoms: N_20  and  C_19 
REMARK       I    between atoms: C_22  and  N_20 
ROOT
ATOM      1  C   LIG d   1      -3.934  92.445 118.345  0.00  0.00     0.161 C 
ATOM      2  C   LIG d   1      -4.575  91.560 117.462  0.00  0.00     0.016 C 
ATOM      3  C   LIG d   1      -5.792  91.858 116.807  0.00  0.00     0.038 C 
ATOM      4  C   LIG d   1      -6.377  93.131 116.875  0.00  0.00     0.028 C 
ATOM      5  C   LIG d   1      -6.034  93.889 118.153  0.00  0.00    -0.047 C 
ATOM      6  C   LIG d   1      -4.500  93.881 118.345  0.00  0.00     0.091 C 
ENDROOT
BRANCH   1   7
ATOM      7  O   LIG d   1      -2.518  92.465 118.076  0.00  0.00    -0.368 OA
BRANCH   7   8
ATOM      8  C   LIG d   1      -1.713  91.527 118.832  0.00  0.00     0.119 C 
BRANCH   8   9
ATOM      9  C   LIG d   1      -0.534  92.312 119.438  0.00  0.00     0.028 C 
ATOM     10  C   LIG d   1       0.741  92.207 118.585  0.00  0.00     0.006 C 
ENDBRANCH   8   9
BRANCH   8  11
ATOM     11  C   LIG d   1      -1.074  90.478 117.917  0.00  0.00     0.028 C 
ATOM     12  C   LIG d   1      -1.846  89.149 117.904  0.00  0.00     0.006 C 
ENDBRANCH   8  11
ENDBRANCH   7   8
ENDBRANCH   1   7
BRANCH   6  13
ATOM     13  N   LIG d   1      -4.085  94.528 119.617  0.00  0.00    -0.311 N 
ATOM     14  C   LIG d   1      -3.830  95.831 119.727  0.00  0.00     0.210 C 
ATOM     15  C   LIG d   1      -3.397  96.288 121.124  0.00  0.00     0.109 C 
ATOM     16  O   LIG d   1      -3.953  96.656 118.810  0.00  0.00    -0.276 OA
ATOM     17  H   LIG d   1      -3.990  93.937 120.420  0.00  0.00     0.149 HD
ENDBRANCH   6  13
BRANCH   5  18
ATOM     18  N   LIG d   1      -6.594  95.248 118.030  0.00  0.00     0.381 N 
ATOM     19  H   LIG d   1      -6.261  95.677 117.190  0.00  0.00    -0.090 HD
ATOM     20  H   LIG d   1      -6.284  95.799 118.811  0.00  0.00    -0.090 HD
ATOM     21  H   LIG d   1      -7.590  95.206 118.019  0.00  0.00    -0.090 HD
ENDBRANCH   5  18
BRANCH   3  22
ATOM     22  C   LIG d   1      -6.457  90.864 116.106  0.00  0.00     0.382 C 
ATOM     23  O   LIG d   1      -7.666  91.011 115.805  0.00  0.00    -0.241 OA
ATOM     24  O   LIG d   1      -5.875  89.804 115.809  0.00  0.00    -0.241 OA
ENDBRANCH   3  22
TORSDOF 7
ENDMDL
MODEL 5
REMARK VINA RESULT:      -4.5      4.002      7.690
REMARK  7 active torsions:
REMARK  status: ('A' for Active; 'I' for Inactive)
REMARK    1  A    between atoms: C_2  and  C_3 
REMARK    2  A    between atoms: C_3  and  O_6 
REMARK    3  A    between atoms: C_3  and  C_4 
REMARK    4  A    between atoms: C_7  and  O_6 
REMARK    5  A    between atoms: C_9  and  C_10 
REMARK    6  A    between atoms: N_15  and  C_14 
REMARK    7  A    between atoms: N_20  and  C_19 
REMARK       I    between atoms: C_22  and  N_20 
ROOT
ATOM      1  C   LIG d   1       0.114  90.818 117.093  0.00  0.00     0.161 C 
ATOM      2  C   LIG d   1       1.507  90.645 117.041  0.00  0.00     0.016 C 
ATOM      3  C   LIG d   1       2.414  91.404 117.815  0.00  0.00     0.038 C 
ATOM      4  C   LIG d   1       1.979  92.289 118.812  0.00  0.00     0.028 C 
ATOM      5  C   LIG d   1       0.591  92.864 118.548  0.00  0.00    -0.047 C 
ATOM      6  C   LIG d   1      -0.386  91.701 118.255  0.00  0.00     0.091 C 
ENDROOT
BRANCH   1   7
ATOM      7  O   LIG d   1      -0.537  89.533 117.125  0.00  0.00    -0.368 OA
BRANCH   7   8
ATOM      8  C   LIG d   1      -0.522  88.842 118.398  0.00  0.00     0.119 C 
BRANCH   8   9
ATOM      9  C   LIG d   1       0.214  87.504 118.191  0.00  0.00     0.028 C 
ATOM     10  C   LIG d   1       0.136  87.011 116.736  0.00  0.00     0.006 C 
ENDBRANCH   8   9
BRANCH   8  11
ATOM     11  C   LIG d   1      -1.937  88.462 118.844  0.00  0.00     0.028 C 
ATOM     12  C   LIG d   1      -3.003  88.791 117.786  0.00  0.00     0.006 C 
ENDBRANCH   8  11
ENDBRANCH   7   8
ENDBRANCH   1   7
BRANCH   6  13
ATOM     13  N   LIG d   1      -1.748  92.180 117.903  0.00  0.00    -0.311 N 
ATOM     14  C   LIG d   1      -2.736  92.294 118.788  0.00  0.00     0.210 C 
ATOM     15  C   LIG d   1      -4.067  92.788 118.212  0.00  0.00     0.109 C 
ATOM     16  O   LIG d   1      -2.629  92.063 120.002  0.00  0.00    -0.276 OA
ATOM     17  H   LIG d   1      -1.914  92.419 116.945  0.00  0.00     0.149 HD
ENDBRANCH   6  13
BRANCH   5  18
ATOM     18  N   LIG d   1       0.205  93.659 119.729  0.00  0.00     0.381 N 
ATOM     19  H   LIG d   1      -0.377  94.423 119.448  0.00  0.00    -0.090 HD
ATOM     20  H   LIG d   1       1.035  94.034 120.153  0.00  0.00    -0.090 HD
ATOM     21  H   LIG d   1      -0.280  93.085 120.383  0.00  0.00    -0.090 HD
ENDBRANCH   5  18
BRANCH   3  22
ATOM     22  C   LIG d   1       3.775  91.310 117.567  0.00  0.00     0.382 C 
ATOM     23  O   LIG d   1       4.456  90.423 118.137  0.00  0.00    -0.241 OA
ATOM     24  O   LIG d   1       4.339  92.128 116.816  0.00  0.00    -0.241 OA
ENDBRANCH   3  22
TORSDOF 7
ENDMDL
MODEL 6
REMARK VINA RESULT:      -4.5      2.015      5.142
REMARK  7 active torsions:
REMARK  status: ('A' for Active; 'I' for Inactive)
REMARK    1  A    between atoms: C_2  and  C_3 
REMARK    2  A    between atoms: C_3  and  O_6 
REMARK    3  A    between atoms: C_3  and  C_4 
REMARK    4  A    between atoms: C_7  and  O_6 
REMARK    5  A    between atoms: C_9  and  C_10 
REMARK    6  A    between atoms: N_15  and  C_14 
REMARK    7  A    between atoms: N_20  and  C_19 
REMARK       I    between atoms: C_22  and  N_20 
ROOT
ATOM      1  C   LIG d   1      -4.738  93.181 118.586  0.00  0.00     0.161 C 
ATOM      2  C   LIG d   1      -3.720  92.242 118.354  0.00  0.00     0.016 C 
ATOM      3  C   LIG d   1      -3.935  91.006 117.701  0.00  0.00     0.038 C 
ATOM      4  C   LIG d   1      -5.160  90.691 117.097  0.00  0.00     0.028 C 
ATOM      5  C   LIG d   1      -6.352  91.389 117.743  0.00  0.00    -0.047 C 
ATOM      6  C   LIG d   1      -6.057  92.903 117.835  0.00  0.00     0.091 C 
ENDROOT
BRANCH   1   7
ATOM      7  O   LIG d   1      -4.258  94.506 118.282  0.00  0.00    -0.368 OA
BRANCH   7   8
ATOM      8  C   LIG d   1      -4.039  95.381 119.416  0.00  0.00     0.119 C 
BRANCH   8   9
ATOM      9  C   LIG d   1      -4.636  94.688 120.656  0.00  0.00     0.028 C 
ATOM     10  C   LIG d   1      -5.743  95.525 121.320  0.00  0.00     0.006 C 
ENDBRANCH   8   9
BRANCH   8  11
ATOM     11  C   LIG d   1      -4.819  96.691 119.268  0.00  0.00     0.028 C 
ATOM     12  C   LIG d   1      -3.906  97.905 119.036  0.00  0.00     0.006 C 
ENDBRANCH   8  11
ENDBRANCH   7   8
ENDBRANCH   1   7
BRANCH   6  13
ATOM     13  N   LIG d   1      -7.137  93.650 118.532  0.00  0.00    -0.311 N 
ATOM     14  C   LIG d   1      -7.716  94.740 118.030  0.00  0.00     0.210 C 
ATOM     15  C   LIG d   1      -8.793  95.367 118.921  0.00  0.00     0.109 C 
ATOM     16  O   LIG d   1      -7.462  95.227 116.919  0.00  0.00    -0.276 OA
ATOM     17  H   LIG d   1      -7.426  93.305 119.426  0.00  0.00     0.149 HD
ENDBRANCH   6  13
BRANCH   5  18
ATOM     18  N   LIG d   1      -7.544  91.080 116.931  0.00  0.00     0.381 N 
ATOM     19  H   LIG d   1      -7.527  91.618 116.087  0.00  0.00    -0.090 HD
ATOM     20  H   LIG d   1      -8.366  91.334 117.450  0.00  0.00    -0.090 HD
ATOM     21  H   LIG d   1      -7.566  90.108 116.713  0.00  0.00    -0.090 HD
ENDBRANCH   5  18
BRANCH   3  22
ATOM     22  C   LIG d   1      -2.927  90.054 117.683  0.00  0.00     0.382 C 
ATOM     23  O   LIG d   1      -1.738  90.403 117.485  0.00  0.00    -0.241 OA
ATOM     24  O   LIG d   1      -3.197  88.845 117.818  0.00  0.00    -0.241 OA
ENDBRANCH   3  22
TORSDOF 7
ENDMDL
MODEL 7
REMARK VINA RESULT:      -4.5      2.623      4.513
REMARK  7 active torsions:
REMARK  status: ('A' for Active; 'I' for Inactive)
REMARK    1  A    between atoms: C_2  and  C_3 
REMARK    2  A    between atoms: C_3  and  O_6 
REMARK    3  A    between atoms: C_3  and  C_4 
REMARK    4  A    between atoms: C_7  and  O_6 
REMARK    5  A    between atoms: C_9  and  C_10 
REMARK    6  A    between atoms: N_15  and  C_14 
REMARK    7  A    between atoms: N_20  and  C_19 
REMARK       I    between atoms: C_22  and  N_20 
ROOT
ATOM      1  C   LIG d   1      -5.687  92.225 119.449  0.00  0.00     0.161 C 
ATOM      2  C   LIG d   1      -5.876  91.294 118.415  0.00  0.00     0.016 C 
ATOM      3  C   LIG d   1      -6.370  91.640 117.136  0.00  0.00     0.038 C 
ATOM      4  C   LIG d   1      -6.566  92.975 116.754  0.00  0.00     0.028 C 
ATOM      5  C   LIG d   1      -6.868  93.903 117.926  0.00  0.00    -0.047 C 
ATOM      6  C   LIG d   1      -5.790  93.703 119.015  0.00  0.00     0.091 C 
ENDROOT
BRANCH   1   7
ATOM      7  O   LIG d   1      -4.425  91.982 120.101  0.00  0.00    -0.368 OA
BRANCH   7   8
ATOM      8  C   LIG d   1      -3.359  91.477 119.259  0.00  0.00     0.119 C 
BRANCH   8   9
ATOM      9  C   LIG d   1      -2.742  90.259 119.973  0.00  0.00     0.028 C 
ATOM     10  C   LIG d   1      -3.100  88.931 119.284  0.00  0.00     0.006 C 
ENDBRANCH   8   9
BRANCH   8  11
ATOM     11  C   LIG d   1      -2.220  92.493 119.133  0.00  0.00     0.028 C 
ATOM     12  C   LIG d   1      -2.276  93.588 120.210  0.00  0.00     0.006 C 
ENDBRANCH   8  11
ENDBRANCH   7   8
ENDBRANCH   1   7
BRANCH   6  13
ATOM     13  N   LIG d   1      -6.057  94.511 120.233  0.00  0.00    -0.311 N 
ATOM     14  C   LIG d   1      -5.530  95.716 120.443  0.00  0.00     0.210 C 
ATOM     15  C   LIG d   1      -5.920  96.370 121.773  0.00  0.00     0.109 C 
ATOM     16  O   LIG d   1      -4.803  96.320 119.641  0.00  0.00    -0.276 OA
ATOM     17  H   LIG d   1      -6.662  94.111 120.923  0.00  0.00     0.149 HD
ENDBRANCH   6  13
BRANCH   5  18
ATOM     18  N   LIG d   1      -6.913  95.282 117.403  0.00  0.00     0.381 N 
ATOM     19  H   LIG d   1      -6.115  95.450 116.824  0.00  0.00    -0.090 HD
ATOM     20  H   LIG d   1      -6.883  95.923 118.176  0.00  0.00    -0.090 HD
ATOM     21  H   LIG d   1      -7.749  95.421 116.879  0.00  0.00    -0.090 HD
ENDBRANCH   5  18
BRANCH   3  22
ATOM     22  C   LIG d   1      -6.710  90.641 116.237  0.00  0.00     0.382 C 
ATOM     23  O   LIG d   1      -7.906  90.493 115.888  0.00  0.00    -0.241 OA
ATOM     24  O   LIG d   1      -5.844  89.857 115.805  0.00  0.00    -0.241 OA
ENDBRANCH   3  22
TORSDOF 7
ENDMDL
MODEL 8
REMARK VINA RESULT:      -4.3     11.470     13.904
REMARK  7 active torsions:
REMARK  status: ('A' for Active; 'I' for Inactive)
REMARK    1  A    between atoms: C_2  and  C_3 
REMARK    2  A    between atoms: C_3  and  O_6 
REMARK    3  A    between atoms: C_3  and  C_4 
REMARK    4  A    between atoms: C_7  and  O_6 
REMARK    5  A    between atoms: C_9  and  C_10 
REMARK    6  A    between atoms: N_15  and  C_14 
REMARK    7  A    between atoms: N_20  and  C_19 
REMARK       I    between atoms: C_22  and  N_20 
ROOT
ATOM      1  C   LIG d   1      -7.274  80.579 118.264  0.00  0.00     0.161 C 
ATOM      2  C   LIG d   1      -6.047  80.448 117.591  0.00  0.00     0.016 C 
ATOM      3  C   LIG d   1      -5.298  79.249 117.566  0.00  0.00     0.038 C 
ATOM      4  C   LIG d   1      -5.801  78.049 118.091  0.00  0.00     0.028 C 
ATOM      5  C   LIG d   1      -6.806  78.256 119.218  0.00  0.00    -0.047 C 
ATOM      6  C   LIG d   1      -7.891  79.251 118.748  0.00  0.00     0.091 C 
ENDROOT
BRANCH   1   7
ATOM      7  O   LIG d   1      -8.211  81.296 117.436  0.00  0.00    -0.368 OA
BRANCH   7   8
ATOM      8  C   LIG d   1      -8.597  82.612 117.903  0.00  0.00     0.119 C 
BRANCH   8   9
ATOM      9  C   LIG d   1      -7.875  82.858 119.242  0.00  0.00     0.028 C 
ATOM     10  C   LIG d   1      -8.852  83.194 120.382  0.00  0.00     0.006 C 
ENDBRANCH   8   9
BRANCH   8  11
ATOM     11  C   LIG d   1     -10.092  82.670 118.232  0.00  0.00     0.028 C 
ATOM     12  C   LIG d   1     -10.948  81.839 117.262  0.00  0.00     0.006 C 
ENDBRANCH   8  11
ENDBRANCH   7   8
ENDBRANCH   1   7
BRANCH   6  13
ATOM     13  N   LIG d   1      -8.869  79.573 119.820  0.00  0.00    -0.311 N 
ATOM     14  C   LIG d   1     -10.152  79.221 119.773  0.00  0.00     0.210 C 
ATOM     15  C   LIG d   1     -10.991  79.671 120.973  0.00  0.00     0.109 C 
ATOM     16  O   LIG d   1     -10.668  78.551 118.866  0.00  0.00    -0.276 OA
ATOM     17  H   LIG d   1      -8.527  80.088 120.608  0.00  0.00     0.149 HD
ENDBRANCH   6  13
BRANCH   5  18
ATOM     18  N   LIG d   1      -7.352  76.933 119.577  0.00  0.00     0.381 N 
ATOM     19  H   LIG d   1      -8.226  76.789 119.112  0.00  0.00    -0.090 HD
ATOM     20  H   LIG d   1      -7.513  76.905 120.568  0.00  0.00    -0.090 HD
ATOM     21  H   LIG d   1      -6.708  76.217 119.318  0.00  0.00    -0.090 HD
ENDBRANCH   5  18
BRANCH   3  22
ATOM     22  C   LIG d   1      -4.012  79.253 117.047  0.00  0.00     0.382 C 
ATOM     23  O   LIG d   1      -3.838  79.293 115.805  0.00  0.00    -0.241 OA
ATOM     24  O   LIG d   1      -3.025  79.173 117.803  0.00  0.00    -0.241 OA
ENDBRANCH   3  22
TORSDOF 7
ENDMDL
MODEL 9
REMARK VINA RESULT:      -4.3     10.580     12.623
REMARK  7 active torsions:
REMARK  status: ('A' for Active; 'I' for Inactive)
REMARK    1  A    between atoms: C_2  and  C_3 
REMARK    2  A    between atoms: C_3  and  O_6 
REMARK    3  A    between atoms: C_3  and  C_4 
REMARK    4  A    between atoms: C_7  and  O_6 
REMARK    5  A    between atoms: C_9  and  C_10 
REMARK    6  A    between atoms: N_15  and  C_14 
REMARK    7  A    between atoms: N_20  and  C_19 
REMARK       I    between atoms: C_22  and  N_20 
ROOT
ATOM      1  C   LIG d   1      -9.017  81.887 121.155  0.00  0.00     0.161 C 
ATOM      2  C   LIG d   1      -9.203  80.512 120.934  0.00  0.00     0.016 C 
ATOM      3  C   LIG d   1     -10.017  79.993 119.901  0.00  0.00     0.038 C 
ATOM      4  C   LIG d   1     -10.584  80.817 118.919  0.00  0.00     0.028 C 
ATOM      5  C   LIG d   1     -10.837  82.243 119.397  0.00  0.00    -0.047 C 
ATOM      6  C   LIG d   1      -9.539  82.800 120.025  0.00  0.00     0.091 C 
ENDROOT
BRANCH   1   7
ATOM      7  O   LIG d   1      -7.626  82.157 121.414  0.00  0.00    -0.368 OA
BRANCH   7   8
ATOM      8  C   LIG d   1      -6.847  82.628 120.287  0.00  0.00     0.119 C 
BRANCH   8   9
ATOM      9  C   LIG d   1      -5.954  81.461 119.822  0.00  0.00     0.028 C 
ATOM     10  C   LIG d   1      -6.409  80.875 118.475  0.00  0.00     0.006 C 
ENDBRANCH   8   9
BRANCH   8  11
ATOM     11  C   LIG d   1      -5.878  83.738 120.704  0.00  0.00     0.028 C 
ATOM     12  C   LIG d   1      -6.339  84.489 121.964  0.00  0.00     0.006 C 
ENDBRANCH   8  11
ENDBRANCH   7   8
ENDBRANCH   1   7
BRANCH   6  13
ATOM     13  N   LIG d   1      -9.723  84.160 120.594  0.00  0.00    -0.311 N 
ATOM     14  C   LIG d   1     -10.598  84.439 121.559  0.00  0.00     0.210 C 
ATOM     15  C   LIG d   1     -10.641  85.909 121.987  0.00  0.00     0.109 C 
ATOM     16  O   LIG d   1     -11.320  83.603 122.122  0.00  0.00    -0.276 OA
ATOM     17  H   LIG d   1      -9.155  84.893 120.216  0.00  0.00     0.149 HD
ENDBRANCH   6  13
BRANCH   5  18
ATOM     18  N   LIG d   1     -11.300  83.027 118.236  0.00  0.00     0.381 N 
ATOM     19  H   LIG d   1     -11.594  82.409 117.506  0.00  0.00    -0.090 HD
ATOM     20  H   LIG d   1     -10.535  83.580 117.892  0.00  0.00    -0.090 HD
ATOM     21  H   LIG d   1     -12.054  83.620 118.503  0.00  0.00    -0.090 HD
ENDBRANCH   5  18
BRANCH   3  22
ATOM     22  C   LIG d   1     -10.302  78.636 119.868  0.00  0.00     0.382 C 
ATOM     23  O   LIG d   1     -10.965  78.158 118.916  0.00  0.00    -0.241 OA
ATOM     24  O   LIG d   1      -9.944  77.892 120.801  0.00  0.00    -0.241 OA
ENDBRANCH   3  22
TORSDOF 7
ENDMDL
