MODEL 1
REMARK VINA RESULT:      -5.1      0.000      0.000
REMARK  7 active torsions:
REMARK  status: ('A' for Active; 'I' for Inactive)
REMARK    1  A    between atoms: C_2  and  C_3 
REMARK    2  A    between atoms: C_3  and  O_6 
REMARK    3  A    between atoms: C_3  and  C_4 
REMARK    4  A    between atoms: C_7  and  O_6 
REMARK    5  A    between atoms: C_9  and  C_10 
REMARK    6  A    between atoms: N_15  and  C_14 
REMARK    7  A    between atoms: N_20  and  C_19 
REMARK       I    between atoms: C_22  and  N_20 
ROOT
ATOM      1  C   LIG d   1      -6.203  92.134 119.009  0.00  0.00     0.161 C 
ATOM      2  C   LIG d   1      -7.517  92.624 118.941  0.00  0.00     0.016 C 
ATOM      3  C   LIG d   1      -7.833  94.002 118.900  0.00  0.00     0.038 C 
ATOM      4  C   LIG d   1      -6.841  94.986 118.771  0.00  0.00     0.028 C 
ATOM      5  C   LIG d   1      -5.492  94.565 119.344  0.00  0.00    -0.047 C 
ATOM      6  C   LIG d   1      -5.105  93.189 118.757  0.00  0.00     0.091 C 
ENDROOT
BRANCH   1   7
ATOM      7  O   LIG d   1      -6.048  91.024 118.103  0.00  0.00    -0.368 OA
BRANCH   7   8
ATOM      8  C   LIG d   1      -5.806  91.362 116.715  0.00  0.00     0.119 C 
BRANCH   8   9
ATOM      9  C   LIG d   1      -7.130  91.165 115.953  0.00  0.00     0.028 C 
ATOM     10  C   LIG d   1      -7.778  89.801 116.245  0.00  0.00     0.006 C 
ENDBRANCH   8   9
BRANCH   8  11
ATOM     11  C   LIG d   1      -4.816  90.389 116.068  0.00  0.00     0.028 C 
ATOM     12  C   LIG d   1      -3.697  89.952 117.027  0.00  0.00     0.006 C 
ENDBRANCH   8  11
ENDBRANCH   7   8
ENDBRANCH   1   7
BRANCH   6  13
ATOM     13  N   LIG d   1      -3.838  92.665 119.329  0.00  0.00    -0.311 N 
ATOM     14  C   LIG d   1      -2.637  92.928 118.816  0.00  0.00     0.210 C 
ATOM     15  C   LIG d   1      -1.462  92.272 119.549  0.00  0.00     0.109 C 
ATOM     16  O   LIG d   1      -2.431  93.670 117.844  0.00  0.00    -0.276 OA
ATOM     17  H   LIG d   1      -3.910  92.080 120.139  0.00  0.00     0.149 HD
ENDBRANCH   6  13
BRANCH   5  18
ATOM     18  N   LIG d   1      -4.520  95.626 119.019  0.00  0.00     0.381 N 
ATOM     19  H   LIG d   1      -4.709  95.991 118.107  0.00  0.00    -0.090 HD
ATOM     20  H   LIG d   1      -3.596  95.231 119.016  0.00  0.00    -0.090 HD
ATOM     21  H   LIG d   1      -4.574  96.357 119.695  0.00  0.00    -0.090 HD
ENDBRANCH   5  18
BRANCH   3  22
ATOM     22  C   LIG d   1      -9.152  94.409 119.029  0.00  0.00     0.382 C 
ATOM     23  O   LIG d   1      -9.437  95.630 118.998  0.00  0.00    -0.241 OA
ATOM     24  O   LIG d   1     -10.055  93.573 119.220  0.00  0.00    -0.241 OA
ENDBRANCH   3  22
TORSDOF 7
ENDMDL
MODEL 2
REMARK VINA RESULT:      -4.9      1.930      4.558
REMARK  7 active torsions:
REMARK  status: ('A' for Active; 'I' for Inactive)
REMARK    1  A    between atoms: C_2  and  C_3 
REMARK    2  A    between atoms: C_3  and  O_6 
REMARK    3  A    between atoms: C_3  and  C_4 
REMARK    4  A    between atoms: C_7  and  O_6 
REMARK    5  A    between atoms: C_9  and  C_10 
REMARK    6  A    between atoms: N_15  and  C_14 
REMARK    7  A    between atoms: N_20  and  C_19 
REMARK       I    between atoms: C_22  and  N_20 
ROOT
ATOM      1  C   LIG d   1      -6.367  93.661 118.314  0.00  0.00     0.161 C 
ATOM      2  C   LIG d   1      -7.067  92.620 117.681  0.00  0.00     0.016 C 
ATOM      3  C   LIG d   1      -6.433  91.501 117.094  0.00  0.00     0.038 C 
ATOM      4  C   LIG d   1      -5.056  91.271 117.232  0.00  0.00     0.028 C 
ATOM      5  C   LIG d   1      -4.245  92.549 117.425  0.00  0.00    -0.047 C 
ATOM      6  C   LIG d   1      -4.873  93.373 118.572  0.00  0.00     0.091 C 
ENDROOT
BRANCH   1   7
ATOM      7  O   LIG d   1      -7.029  94.018 119.544  0.00  0.00    -0.368 OA
BRANCH   7   8
ATOM      8  C   LIG d   1      -7.715  95.294 119.551  0.00  0.00     0.119 C 
BRANCH   8   9
ATOM      9  C   LIG d   1      -9.188  95.029 119.186  0.00  0.00     0.028 C 
ATOM     10  C   LIG d   1      -9.825  93.940 120.066  0.00  0.00     0.006 C 
ENDBRANCH   8   9
BRANCH   8  11
ATOM     11  C   LIG d   1      -7.184  96.219 118.452  0.00  0.00     0.028 C 
ATOM     12  C   LIG d   1      -8.191  97.310 118.054  0.00  0.00     0.006 C 
ENDBRANCH   8  11
ENDBRANCH   7   8
ENDBRANCH   1   7
BRANCH   6  13
ATOM     13  N   LIG d   1      -4.191  94.678 118.771  0.00  0.00    -0.311 N 
ATOM     14  C   LIG d   1      -3.185  94.857 119.625  0.00  0.00     0.210 C 
ATOM     15  C   LIG d   1      -2.638  96.286 119.690  0.00  0.00     0.109 C 
ATOM     16  O   LIG d   1      -2.671  93.960 120.310  0.00  0.00    -0.276 OA
ATOM     17  H   LIG d   1      -4.524  95.454 118.232  0.00  0.00     0.149 HD
ENDBRANCH   6  13
BRANCH   5  18
ATOM     18  N   LIG d   1      -2.850  92.154 117.694  0.00  0.00     0.381 N 
ATOM     19  H   LIG d   1      -2.674  91.247 117.311  0.00  0.00    -0.090 HD
ATOM     20  H   LIG d   1      -2.710  92.109 118.688  0.00  0.00    -0.090 HD
ATOM     21  H   LIG d   1      -2.224  92.818 117.293  0.00  0.00    -0.090 HD
ENDBRANCH   5  18
BRANCH   3  22
ATOM     22  C   LIG d   1      -7.174  90.618 116.323  0.00  0.00     0.382 C 
ATOM     23  O   LIG d   1      -8.254  90.991 115.805  0.00  0.00    -0.241 OA
ATOM     24  O   LIG d   1      -6.798  89.439 116.176  0.00  0.00    -0.241 OA
ENDBRANCH   3  22
TORSDOF 7
ENDMDL
MODEL 3
REMARK VINA RESULT:      -4.8      2.191      4.311
REMARK  7 active torsions:
REMARK  status: ('A' for Active; 'I' for Inactive)
REMARK    1  A    between atoms: C_2  and  C_3 
REMARK    2  A    between atoms: C_3  and  O_6 
REMARK    3  A    between atoms: C_3  and  C_4 
REMARK    4  A    between atoms: C_7  and  O_6 
REMARK    5  A    between atoms: C_9  and  C_10 
REMARK    6  A    between atoms: N_15  and  C_14 
REMARK    7  A    between atoms: N_20  and  C_19 
REMARK       I    between atoms: C_22  and  N_20 
ROOT
ATOM      1  C   LIG d   1      -5.677  92.003 119.113  0.00  0.00     0.161 C 
ATOM      2  C   LIG d   1      -5.945  91.074 118.094  0.00  0.00     0.016 C 
ATOM      3  C   LIG d   1      -6.878  91.304 117.057  0.00  0.00     0.038 C 
ATOM      4  C   LIG d   1      -7.499  92.550 116.882  0.00  0.00     0.028 C 
ATOM      5  C   LIG d   1      -7.640  93.344 118.176  0.00  0.00    -0.047 C 
ATOM      6  C   LIG d   1      -6.263  93.411 118.875  0.00  0.00     0.091 C 
ENDROOT
BRANCH   1   7
ATOM      7  O   LIG d   1      -4.256  92.084 119.339  0.00  0.00    -0.368 OA
BRANCH   7   8
ATOM      8  C   LIG d   1      -3.427  92.184 118.154  0.00  0.00     0.119 C 
BRANCH   8   9
ATOM      9  C   LIG d   1      -2.239  91.221 118.338  0.00  0.00     0.028 C 
ATOM     10  C   LIG d   1      -2.495  89.844 117.701  0.00  0.00     0.006 C 
ENDBRANCH   8   9
BRANCH   8  11
ATOM     11  C   LIG d   1      -2.803  93.577 118.027  0.00  0.00     0.028 C 
ATOM     12  C   LIG d   1      -2.622  94.275 119.384  0.00  0.00     0.006 C 
ENDBRANCH   8  11
ENDBRANCH   7   8
ENDBRANCH   1   7
BRANCH   6  13
ATOM     13  N   LIG d   1      -6.328  94.099 120.191  0.00  0.00    -0.311 N 
ATOM     14  C   LIG d   1      -6.077  95.397 120.353  0.00  0.00     0.210 C 
ATOM     15  C   LIG d   1      -6.181  95.901 121.796  0.00  0.00     0.109 C 
ATOM     16  O   LIG d   1      -5.810  96.185 119.434  0.00  0.00    -0.276 OA
ATOM     17  H   LIG d   1      -6.569  93.540 120.986  0.00  0.00     0.149 HD
ENDBRANCH   6  13
BRANCH   5  18
ATOM     18  N   LIG d   1      -8.176  94.673 117.827  0.00  0.00     0.381 N 
ATOM     19  H   LIG d   1      -9.172  94.628 117.753  0.00  0.00    -0.090 HD
ATOM     20  H   LIG d   1      -7.806  94.949 116.934  0.00  0.00    -0.090 HD
ATOM     21  H   LIG d   1      -7.917  95.339 118.521  0.00  0.00    -0.090 HD
ENDBRANCH   5  18
BRANCH   3  22
ATOM     22  C   LIG d   1      -7.228  90.268 116.204  0.00  0.00     0.382 C 
ATOM     23  O   LIG d   1      -8.426  90.112 115.865  0.00  0.00    -0.241 OA
ATOM     24  O   LIG d   1      -6.367  89.461 115.806  0.00  0.00    -0.241 OA
ENDBRANCH   3  22
TORSDOF 7
ENDMDL
MODEL 4
REMARK VINA RESULT:      -4.7      2.132      4.283
REMARK  7 active torsions:
REMARK  status: ('A' for Active; 'I' for Inactive)
REMARK    1  A    between atoms: C_2  and  C_3 
REMARK    2  A    between atoms: C_3  and  O_6 
REMARK    3  A    between atoms: C_3  and  C_4 
REMARK    4  A    between atoms: C_7  and  O_6 
REMARK    5  A    between atoms: C_9  and  C_10 
REMARK    6  A    between atoms: N_15  and  C_14 
REMARK    7  A    between atoms: N_20  and  C_19 
REMARK       I    between atoms: C_22  and  N_20 
ROOT
ATOM      1  C   LIG d   1      -5.938  93.885 118.222  0.00  0.00     0.161 C 
ATOM      2  C   LIG d   1      -6.732  92.858 117.685  0.00  0.00     0.016 C 
ATOM      3  C   LIG d   1      -6.203  91.647 117.184  0.00  0.00     0.038 C 
ATOM      4  C   LIG d   1      -4.847  91.315 117.324  0.00  0.00     0.028 C 
ATOM      5  C   LIG d   1      -3.931  92.532 117.403  0.00  0.00    -0.047 C 
ATOM      6  C   LIG d   1      -4.468  93.495 118.486  0.00  0.00     0.091 C 
ENDROOT
BRANCH   1   7
ATOM      7  O   LIG d   1      -6.545  94.393 119.427  0.00  0.00    -0.368 OA
BRANCH   7   8
ATOM      8  C   LIG d   1      -7.230  93.421 120.254  0.00  0.00     0.119 C 
BRANCH   8   9
ATOM      9  C   LIG d   1      -8.525  94.080 120.767  0.00  0.00     0.028 C 
ATOM     10  C   LIG d   1      -9.672  93.992 119.746  0.00  0.00     0.006 C 
ENDBRANCH   8   9
BRANCH   8  11
ATOM     11  C   LIG d   1      -6.420  93.088 121.511  0.00  0.00     0.028 C 
ATOM     12  C   LIG d   1      -5.770  91.697 121.449  0.00  0.00     0.006 C 
ENDBRANCH   8  11
ENDBRANCH   7   8
ENDBRANCH   1   7
BRANCH   6  13
ATOM     13  N   LIG d   1      -3.678  94.751 118.570  0.00  0.00    -0.311 N 
ATOM     14  C   LIG d   1      -3.113  95.188 119.694  0.00  0.00     0.210 C 
ATOM     15  C   LIG d   1      -2.359  96.515 119.565  0.00  0.00     0.109 C 
ATOM     16  O   LIG d   1      -3.136  94.585 120.778  0.00  0.00    -0.276 OA
ATOM     17  H   LIG d   1      -3.582  95.286 117.729  0.00  0.00     0.149 HD
ENDBRANCH   6  13
BRANCH   5  18
ATOM     18  N   LIG d   1      -2.568  92.045 117.686  0.00  0.00     0.381 N 
ATOM     19  H   LIG d   1      -1.963  92.266 116.920  0.00  0.00    -0.090 HD
ATOM     20  H   LIG d   1      -2.594  91.046 117.790  0.00  0.00    -0.090 HD
ATOM     21  H   LIG d   1      -2.223  92.464 118.522  0.00  0.00    -0.090 HD
ENDBRANCH   5  18
BRANCH   3  22
ATOM     22  C   LIG d   1      -7.028  90.769 116.497  0.00  0.00     0.382 C 
ATOM     23  O   LIG d   1      -6.671  89.579 116.323  0.00  0.00    -0.241 OA
ATOM     24  O   LIG d   1      -8.104  91.164 116.010  0.00  0.00    -0.241 OA
ENDBRANCH   3  22
TORSDOF 7
ENDMDL
MODEL 5
REMARK VINA RESULT:      -4.6     15.404     18.306
REMARK  7 active torsions:
REMARK  status: ('A' for Active; 'I' for Inactive)
REMARK    1  A    between atoms: C_2  and  C_3 
REMARK    2  A    between atoms: C_3  and  O_6 
REMARK    3  A    between atoms: C_3  and  C_4 
REMARK    4  A    between atoms: C_7  and  O_6 
REMARK    5  A    between atoms: C_9  and  C_10 
REMARK    6  A    between atoms: N_15  and  C_14 
REMARK    7  A    between atoms: N_20  and  C_19 
REMARK       I    between atoms: C_22  and  N_20 
ROOT
ATOM      1  C   LIG d   1      -3.410  75.575 116.245  0.00  0.00     0.161 C 
ATOM      2  C   LIG d   1      -2.454  74.545 116.238  0.00  0.00     0.016 C 
ATOM      3  C   LIG d   1      -1.522  74.342 117.282  0.00  0.00     0.038 C 
ATOM      4  C   LIG d   1      -1.583  75.067 118.481  0.00  0.00     0.028 C 
ATOM      5  C   LIG d   1      -2.208  76.449 118.323  0.00  0.00    -0.047 C 
ATOM      6  C   LIG d   1      -3.564  76.306 117.595  0.00  0.00     0.091 C 
ENDROOT
BRANCH   1   7
ATOM      7  O   LIG d   1      -4.683  75.062 115.805  0.00  0.00    -0.368 OA
BRANCH   7   8
ATOM      8  C   LIG d   1      -5.434  74.299 116.781  0.00  0.00     0.119 C 
BRANCH   8   9
ATOM      9  C   LIG d   1      -5.678  72.898 116.186  0.00  0.00     0.028 C 
ATOM     10  C   LIG d   1      -6.779  72.126 116.934  0.00  0.00     0.006 C 
ENDBRANCH   8   9
BRANCH   8  11
ATOM     11  C   LIG d   1      -6.828  74.894 117.001  0.00  0.00     0.028 C 
ATOM     12  C   LIG d   1      -7.230  75.891 115.902  0.00  0.00     0.006 C 
ENDBRANCH   8  11
ENDBRANCH   7   8
ENDBRANCH   1   7
BRANCH   6  13
ATOM     13  N   LIG d   1      -4.203  77.620 117.324  0.00  0.00    -0.311 N 
ATOM     14  C   LIG d   1      -5.134  78.158 118.110  0.00  0.00     0.210 C 
ATOM     15  C   LIG d   1      -5.677  79.510 117.638  0.00  0.00     0.109 C 
ATOM     16  O   LIG d   1      -5.539  77.659 119.171  0.00  0.00    -0.276 OA
ATOM     17  H   LIG d   1      -3.911  78.108 116.500  0.00  0.00     0.149 HD
ENDBRANCH   6  13
BRANCH   5  18
ATOM     18  N   LIG d   1      -2.334  77.038 119.669  0.00  0.00     0.381 N 
ATOM     19  H   LIG d   1      -1.923  77.951 119.680  0.00  0.00    -0.090 HD
ATOM     20  H   LIG d   1      -1.837  76.461 120.325  0.00  0.00    -0.090 HD
ATOM     21  H   LIG d   1      -3.294  77.095 119.928  0.00  0.00    -0.090 HD
ENDBRANCH   5  18
BRANCH   3  22
ATOM     22  C   LIG d   1      -0.490  73.431 117.115  0.00  0.00     0.382 C 
ATOM     23  O   LIG d   1       0.076  72.934 118.118  0.00  0.00    -0.241 OA
ATOM     24  O   LIG d   1      -0.089  73.134 115.973  0.00  0.00    -0.241 OA
ENDBRANCH   3  22
TORSDOF 7
ENDMDL
MODEL 6
REMARK VINA RESULT:      -4.3      2.185      4.180
REMARK  7 active torsions:
REMARK  status: ('A' for Active; 'I' for Inactive)
REMARK    1  A    between atoms: C_2  and  C_3 
REMARK    2  A    between atoms: C_3  and  O_6 
REMARK    3  A    between atoms: C_3  and  C_4 
REMARK    4  A    between atoms: C_7  and  O_6 
REMARK    5  A    between atoms: C_9  and  C_10 
REMARK    6  A    between atoms: N_15  and  C_14 
REMARK    7  A    between atoms: N_20  and  C_19 
REMARK       I    between atoms: C_22  and  N_20 
ROOT
ATOM      1  C   LIG d   1      -5.015  93.640 118.901  0.00  0.00     0.161 C 
ATOM      2  C   LIG d   1      -5.202  94.820 119.640  0.00  0.00     0.016 C 
ATOM      3  C   LIG d   1      -6.424  95.531 119.676  0.00  0.00     0.038 C 
ATOM      4  C   LIG d   1      -7.594  95.024 119.090  0.00  0.00     0.028 C 
ATOM      5  C   LIG d   1      -7.327  94.094 117.912  0.00  0.00    -0.047 C 
ATOM      6  C   LIG d   1      -6.311  93.013 118.346  0.00  0.00     0.091 C 
ENDROOT
BRANCH   1   7
ATOM      7  O   LIG d   1      -4.291  92.677 119.692  0.00  0.00    -0.368 OA
BRANCH   7   8
ATOM      8  C   LIG d   1      -2.871  92.573 119.426  0.00  0.00     0.119 C 
BRANCH   8   9
ATOM      9  C   LIG d   1      -2.611  93.201 118.043  0.00  0.00     0.028 C 
ATOM     10  C   LIG d   1      -1.288  93.984 117.993  0.00  0.00     0.006 C 
ENDBRANCH   8   9
BRANCH   8  11
ATOM     11  C   LIG d   1      -2.434  91.111 119.296  0.00  0.00     0.028 C 
ATOM     12  C   LIG d   1      -2.812  90.495 117.940  0.00  0.00     0.006 C 
ENDBRANCH   8  11
ENDBRANCH   7   8
ENDBRANCH   1   7
BRANCH   6  13
ATOM     13  N   LIG d   1      -5.931  92.111 117.228  0.00  0.00    -0.311 N 
ATOM     14  C   LIG d   1      -6.520  90.939 116.998  0.00  0.00     0.210 C 
ATOM     15  C   LIG d   1      -5.962  90.157 115.805  0.00  0.00     0.109 C 
ATOM     16  O   LIG d   1      -7.474  90.487 117.650  0.00  0.00    -0.276 OA
ATOM     17  H   LIG d   1      -5.187  92.414 116.630  0.00  0.00     0.149 HD
ENDBRANCH   6  13
BRANCH   5  18
ATOM     18  N   LIG d   1      -8.623  93.531 117.486  0.00  0.00     0.381 N 
ATOM     19  H   LIG d   1      -9.019  94.101 116.766  0.00  0.00    -0.090 HD
ATOM     20  H   LIG d   1      -9.251  93.532 118.271  0.00  0.00    -0.090 HD
ATOM     21  H   LIG d   1      -8.498  92.601 117.153  0.00  0.00    -0.090 HD
ENDBRANCH   5  18
BRANCH   3  22
ATOM     22  C   LIG d   1      -6.473  96.783 120.269  0.00  0.00     0.382 C 
ATOM     23  O   LIG d   1      -5.665  97.676 119.917  0.00  0.00    -0.241 OA
ATOM     24  O   LIG d   1      -7.286  97.018 121.183  0.00  0.00    -0.241 OA
ENDBRANCH   3  22
TORSDOF 7
ENDMDL
MODEL 7
REMARK VINA RESULT:      -4.3     26.835     29.892
REMARK  7 active torsions:
REMARK  status: ('A' for Active; 'I' for Inactive)
REMARK    1  A    between atoms: C_2  and  C_3 
REMARK    2  A    between atoms: C_3  and  O_6 
REMARK    3  A    between atoms: C_3  and  C_4 
REMARK    4  A    between atoms: C_7  and  O_6 
REMARK    5  A    between atoms: C_9  and  C_10 
REMARK    6  A    between atoms: N_15  and  C_14 
REMARK    7  A    between atoms: N_20  and  C_19 
REMARK       I    between atoms: C_22  and  N_20 
ROOT
ATOM      1  C   LIG d   1       8.334  66.423 119.208  0.00  0.00     0.161 C 
ATOM      2  C   LIG d   1       8.385  65.117 118.695  0.00  0.00     0.016 C 
ATOM      3  C   LIG d   1       7.238  64.393 118.294  0.00  0.00     0.038 C 
ATOM      4  C   LIG d   1       5.968  64.988 118.238  0.00  0.00     0.028 C 
ATOM      5  C   LIG d   1       5.795  66.140 119.223  0.00  0.00    -0.047 C 
ATOM      6  C   LIG d   1       6.971  67.128 119.051  0.00  0.00     0.091 C 
ENDROOT
BRANCH   1   7
ATOM      7  O   LIG d   1       9.381  67.220 118.620  0.00  0.00    -0.368 OA
BRANCH   7   8
ATOM      8  C   LIG d   1      10.500  67.540 119.483  0.00  0.00     0.119 C 
BRANCH   8   9
ATOM      9  C   LIG d   1      10.058  67.270 120.934  0.00  0.00     0.028 C 
ATOM     10  C   LIG d   1      10.106  68.535 121.807  0.00  0.00     0.006 C 
ENDBRANCH   8   9
BRANCH   8  11
ATOM     11  C   LIG d   1      10.834  69.034 119.432  0.00  0.00     0.028 C 
ATOM     12  C   LIG d   1      10.548  69.662 118.058  0.00  0.00     0.006 C 
ENDBRANCH   8  11
ENDBRANCH   7   8
ENDBRANCH   1   7
BRANCH   6  13
ATOM     13  N   LIG d   1       6.924  68.242 120.034  0.00  0.00    -0.311 N 
ATOM     14  C   LIG d   1       7.055  69.523 119.697  0.00  0.00     0.210 C 
ATOM     15  C   LIG d   1       6.996  70.509 120.868  0.00  0.00     0.109 C 
ATOM     16  O   LIG d   1       7.182  69.940 118.535  0.00  0.00    -0.276 OA
ATOM     17  H   LIG d   1       6.792  67.996 120.996  0.00  0.00     0.149 HD
ENDBRANCH   6  13
BRANCH   5  18
ATOM     18  N   LIG d   1       4.480  66.754 118.962  0.00  0.00     0.381 N 
ATOM     19  H   LIG d   1       3.983  66.870 119.823  0.00  0.00    -0.090 HD
ATOM     20  H   LIG d   1       3.946  66.142 118.371  0.00  0.00    -0.090 HD
ATOM     21  H   LIG d   1       4.598  67.638 118.518  0.00  0.00    -0.090 HD
ENDBRANCH   5  18
BRANCH   3  22
ATOM     22  C   LIG d   1       7.349  63.047 117.982  0.00  0.00     0.382 C 
ATOM     23  O   LIG d   1       8.191  62.668 117.133  0.00  0.00    -0.241 OA
ATOM     24  O   LIG d   1       6.587  62.212 118.505  0.00  0.00    -0.241 OA
ENDBRANCH   3  22
TORSDOF 7
ENDMDL
MODEL 8
REMARK VINA RESULT:      -4.3      2.382      5.638
REMARK  7 active torsions:
REMARK  status: ('A' for Active; 'I' for Inactive)
REMARK    1  A    between atoms: C_2  and  C_3 
REMARK    2  A    between atoms: C_3  and  O_6 
REMARK    3  A    between atoms: C_3  and  C_4 
REMARK    4  A    between atoms: C_7  and  O_6 
REMARK    5  A    between atoms: C_9  and  C_10 
REMARK    6  A    between atoms: N_15  and  C_14 
REMARK    7  A    between atoms: N_20  and  C_19 
REMARK       I    between atoms: C_22  and  N_20 
ROOT
ATOM      1  C   LIG d   1      -5.428  93.262 118.651  0.00  0.00     0.161 C 
ATOM      2  C   LIG d   1      -4.612  92.242 118.132  0.00  0.00     0.016 C 
ATOM      3  C   LIG d   1      -4.983  91.432 117.034  0.00  0.00     0.038 C 
ATOM      4  C   LIG d   1      -6.137  91.688 116.280  0.00  0.00     0.028 C 
ATOM      5  C   LIG d   1      -7.237  92.385 117.073  0.00  0.00    -0.047 C 
ATOM      6  C   LIG d   1      -6.641  93.629 117.771  0.00  0.00     0.091 C 
ENDROOT
BRANCH   1   7
ATOM      7  O   LIG d   1      -4.633  94.433 118.922  0.00  0.00    -0.368 OA
BRANCH   7   8
ATOM      8  C   LIG d   1      -3.516  94.250 119.826  0.00  0.00     0.119 C 
BRANCH   8   9
ATOM      9  C   LIG d   1      -3.852  94.993 121.134  0.00  0.00     0.028 C 
ATOM     10  C   LIG d   1      -4.885  94.239 121.988  0.00  0.00     0.006 C 
ENDBRANCH   8   9
BRANCH   8  11
ATOM     11  C   LIG d   1      -2.249  94.923 119.291  0.00  0.00     0.028 C 
ATOM     12  C   LIG d   1      -1.676  94.216 118.053  0.00  0.00     0.006 C 
ENDBRANCH   8  11
ENDBRANCH   7   8
ENDBRANCH   1   7
BRANCH   6  13
ATOM     13  N   LIG d   1      -7.631  94.322 118.637  0.00  0.00    -0.311 N 
ATOM     14  C   LIG d   1      -7.725  95.647 118.728  0.00  0.00     0.210 C 
ATOM     15  C   LIG d   1      -8.800  96.155 119.694  0.00  0.00     0.109 C 
ATOM     16  O   LIG d   1      -7.041  96.451 118.076  0.00  0.00    -0.276 OA
ATOM     17  H   LIG d   1      -8.247  93.746 119.177  0.00  0.00     0.149 HD
ENDBRANCH   6  13
BRANCH   5  18
ATOM     18  N   LIG d   1      -8.324  92.715 116.133  0.00  0.00     0.381 N 
ATOM     19  H   LIG d   1      -8.897  93.440 116.517  0.00  0.00    -0.090 HD
ATOM     20  H   LIG d   1      -8.896  91.899 115.998  0.00  0.00    -0.090 HD
ATOM     21  H   LIG d   1      -7.943  93.010 115.261  0.00  0.00    -0.090 HD
ENDBRANCH   5  18
BRANCH   3  22
ATOM     22  C   LIG d   1      -4.213  90.326 116.706  0.00  0.00     0.382 C 
ATOM     23  O   LIG d   1      -4.596  89.541 115.805  0.00  0.00    -0.241 OA
ATOM     24  O   LIG d   1      -3.164  90.079 117.330  0.00  0.00    -0.241 OA
ENDBRANCH   3  22
TORSDOF 7
ENDMDL
MODEL 9
REMARK VINA RESULT:      -4.2     27.881     30.318
REMARK  7 active torsions:
REMARK  status: ('A' for Active; 'I' for Inactive)
REMARK    1  A    between atoms: C_2  and  C_3 
REMARK    2  A    between atoms: C_3  and  O_6 
REMARK    3  A    between atoms: C_3  and  C_4 
REMARK    4  A    between atoms: C_7  and  O_6 
REMARK    5  A    between atoms: C_9  and  C_10 
REMARK    6  A    between atoms: N_15  and  C_14 
REMARK    7  A    between atoms: N_20  and  C_19 
REMARK       I    between atoms: C_22  and  N_20 
ROOT
ATOM      1  C   LIG d   1     -13.322  64.081 120.006  0.00  0.00     0.161 C 
ATOM      2  C   LIG d   1     -13.580  65.162 119.147  0.00  0.00     0.016 C 
ATOM      3  C   LIG d   1     -14.488  65.096 118.065  0.00  0.00     0.038 C 
ATOM      4  C   LIG d   1     -15.316  63.983 117.859  0.00  0.00     0.028 C 
ATOM      5  C   LIG d   1     -14.728  62.682 118.395  0.00  0.00    -0.047 C 
ATOM      6  C   LIG d   1     -14.298  62.894 119.864  0.00  0.00     0.091 C 
ENDROOT
BRANCH   1   7
ATOM      7  O   LIG d   1     -13.286  64.539 121.372  0.00  0.00    -0.368 OA
BRANCH   7   8
ATOM      8  C   LIG d   1     -12.015  64.408 122.055  0.00  0.00     0.119 C 
BRANCH   8   9
ATOM      9  C   LIG d   1     -11.489  65.830 122.332  0.00  0.00     0.028 C 
ATOM     10  C   LIG d   1     -12.611  66.882 122.323  0.00  0.00     0.006 C 
ENDBRANCH   8   9
BRANCH   8  11
ATOM     11  C   LIG d   1     -10.963  63.755 121.154  0.00  0.00     0.028 C 
ATOM     12  C   LIG d   1      -9.816  63.110 121.948  0.00  0.00     0.006 C 
ENDBRANCH   8  11
ENDBRANCH   7   8
ENDBRANCH   1   7
BRANCH   6  13
ATOM     13  N   LIG d   1     -13.635  61.695 120.440  0.00  0.00    -0.311 N 
ATOM     14  C   LIG d   1     -13.934  61.195 121.637  0.00  0.00     0.210 C 
ATOM     15  C   LIG d   1     -13.117  59.966 122.048  0.00  0.00     0.109 C 
ATOM     16  O   LIG d   1     -14.821  61.634 122.385  0.00  0.00    -0.276 OA
ATOM     17  H   LIG d   1     -12.924  61.257 119.886  0.00  0.00     0.149 HD
ENDBRANCH   6  13
BRANCH   5  18
ATOM     18  N   LIG d   1     -15.751  61.632 118.237  0.00  0.00     0.381 N 
ATOM     19  H   LIG d   1     -16.196  61.458 119.117  0.00  0.00    -0.090 HD
ATOM     20  H   LIG d   1     -15.303  60.784 117.937  0.00  0.00    -0.090 HD
ATOM     21  H   LIG d   1     -16.429  61.914 117.564  0.00  0.00    -0.090 HD
ENDBRANCH   5  18
BRANCH   3  22
ATOM     22  C   LIG d   1     -14.544  66.137 117.151  0.00  0.00     0.382 C 
ATOM     23  O   LIG d   1     -15.654  66.538 116.725  0.00  0.00    -0.241 OA
ATOM     24  O   LIG d   1     -13.497  66.652 116.715  0.00  0.00    -0.241 OA
ENDBRANCH   3  22
TORSDOF 7
ENDMDL
