MODEL 1
REMARK VINA RESULT:      -5.6      0.000      0.000
REMARK  7 active torsions:
REMARK  status: ('A' for Active; 'I' for Inactive)
REMARK    1  A    between atoms: C_2  and  C_3 
REMARK    2  A    between atoms: C_3  and  O_6 
REMARK    3  A    between atoms: C_3  and  C_4 
REMARK    4  A    between atoms: C_7  and  O_6 
REMARK    5  A    between atoms: C_9  and  C_10 
REMARK    6  A    between atoms: N_15  and  C_14 
REMARK    7  A    between atoms: N_20  and  C_19 
REMARK       I    between atoms: C_22  and  N_20 
ROOT
ATOM      1  C   LIG d   1      -9.503  77.542 118.529  0.00  0.00     0.161 C 
ATOM      2  C   LIG d   1      -8.669  78.397 117.788  0.00  0.00     0.016 C 
ATOM      3  C   LIG d   1      -8.536  79.778 118.056  0.00  0.00     0.038 C 
ATOM      4  C   LIG d   1      -9.115  80.374 119.186  0.00  0.00     0.028 C 
ATOM      5  C   LIG d   1     -10.370  79.657 119.673  0.00  0.00    -0.047 C 
ATOM      6  C   LIG d   1     -10.057  78.152 119.834  0.00  0.00     0.091 C 
ENDROOT
BRANCH   1   7
ATOM      7  O   LIG d   1      -8.814  76.307 118.806  0.00  0.00    -0.368 OA
BRANCH   7   8
ATOM      8  C   LIG d   1      -9.536  75.091 118.491  0.00  0.00     0.119 C 
BRANCH   8   9
ATOM      9  C   LIG d   1      -9.413  74.152 119.707  0.00  0.00     0.028 C 
ATOM     10  C   LIG d   1      -9.363  72.669 119.301  0.00  0.00     0.006 C 
ENDBRANCH   8   9
BRANCH   8  11
ATOM     11  C   LIG d   1      -8.880  74.338 117.330  0.00  0.00     0.028 C 
ATOM     12  C   LIG d   1      -7.502  74.905 116.955  0.00  0.00     0.006 C 
ENDBRANCH   8  11
ENDBRANCH   7   8
ENDBRANCH   1   7
BRANCH   6  13
ATOM     13  N   LIG d   1     -11.253  77.362 120.227  0.00  0.00    -0.311 N 
ATOM     14  C   LIG d   1     -11.552  77.062 121.489  0.00  0.00     0.210 C 
ATOM     15  C   LIG d   1     -12.820  76.222 121.672  0.00  0.00     0.109 C 
ATOM     16  O   LIG d   1     -10.904  77.439 122.478  0.00  0.00    -0.276 OA
ATOM     17  H   LIG d   1     -11.851  77.043 119.489  0.00  0.00     0.149 HD
ENDBRANCH   6  13
BRANCH   5  18
ATOM     18  N   LIG d   1     -10.790  80.298 120.933  0.00  0.00     0.381 N 
ATOM     19  H   LIG d   1     -10.113  80.983 121.206  0.00  0.00    -0.090 HD
ATOM     20  H   LIG d   1     -10.840  79.599 121.653  0.00  0.00    -0.090 HD
ATOM     21  H   LIG d   1     -11.680  80.730 120.816  0.00  0.00    -0.090 HD
ENDBRANCH   5  18
BRANCH   3  22
ATOM     22  C   LIG d   1      -7.848  80.588 117.165  0.00  0.00     0.382 C 
ATOM     23  O   LIG d   1      -6.629  80.386 116.947  0.00  0.00    -0.241 OA
ATOM     24  O   LIG d   1      -8.420  81.544 116.609  0.00  0.00    -0.241 OA
ENDBRANCH   3  22
TORSDOF 7
ENDMDL
MODEL 2
REMARK VINA RESULT:      -5.6      2.385      6.055
REMARK  7 active torsions:
REMARK  status: ('A' for Active; 'I' for Inactive)
REMARK    1  A    between atoms: C_2  and  C_3 
REMARK    2  A    between atoms: C_3  and  O_6 
REMARK    3  A    between atoms: C_3  and  C_4 
REMARK    4  A    between atoms: C_7  and  O_6 
REMARK    5  A    between atoms: C_9  and  C_10 
REMARK    6  A    between atoms: N_15  and  C_14 
REMARK    7  A    between atoms: N_20  and  C_19 
REMARK       I    between atoms: C_22  and  N_20 
ROOT
ATOM      1  C   LIG d   1      -9.717  75.572 119.767  0.00  0.00     0.161 C 
ATOM      2  C   LIG d   1      -9.693  74.168 119.818  0.00  0.00     0.016 C 
ATOM      3  C   LIG d   1      -9.250  73.359 118.746  0.00  0.00     0.038 C 
ATOM      4  C   LIG d   1      -8.655  73.906 117.600  0.00  0.00     0.028 C 
ATOM      5  C   LIG d   1      -9.121  75.326 117.295  0.00  0.00    -0.047 C 
ATOM      6  C   LIG d   1      -8.967  76.189 118.568  0.00  0.00     0.091 C 
ENDROOT
BRANCH   1   7
ATOM      7  O   LIG d   1      -9.214  76.114 121.005  0.00  0.00    -0.368 OA
BRANCH   7   8
ATOM      8  C   LIG d   1     -10.181  76.793 121.843  0.00  0.00     0.119 C 
BRANCH   8   9
ATOM      9  C   LIG d   1     -11.557  76.660 121.162  0.00  0.00     0.028 C 
ATOM     10  C   LIG d   1     -12.572  75.900 122.033  0.00  0.00     0.006 C 
ENDBRANCH   8   9
BRANCH   8  11
ATOM     11  C   LIG d   1      -9.904  78.298 121.907  0.00  0.00     0.028 C 
ATOM     12  C   LIG d   1     -11.010  79.136 121.247  0.00  0.00     0.006 C 
ENDBRANCH   8  11
ENDBRANCH   7   8
ENDBRANCH   1   7
BRANCH   6  13
ATOM     13  N   LIG d   1      -9.479  77.571 118.381  0.00  0.00    -0.311 N 
ATOM     14  C   LIG d   1      -8.712  78.593 118.004  0.00  0.00     0.210 C 
ATOM     15  C   LIG d   1      -9.436  79.938 117.890  0.00  0.00     0.109 C 
ATOM     16  O   LIG d   1      -7.507  78.506 117.723  0.00  0.00    -0.276 OA
ATOM     17  H   LIG d   1     -10.453  77.725 118.557  0.00  0.00     0.149 HD
ENDBRANCH   6  13
BRANCH   5  18
ATOM     18  N   LIG d   1      -8.321  75.823 116.160  0.00  0.00     0.381 N 
ATOM     19  H   LIG d   1      -8.135  76.799 116.278  0.00  0.00    -0.090 HD
ATOM     20  H   LIG d   1      -8.848  75.702 115.313  0.00  0.00    -0.090 HD
ATOM     21  H   LIG d   1      -7.463  75.319 116.100  0.00  0.00    -0.090 HD
ENDBRANCH   5  18
BRANCH   3  22
ATOM     22  C   LIG d   1      -9.438  71.986 118.799  0.00  0.00     0.382 C 
ATOM     23  O   LIG d   1      -9.596  71.333 117.739  0.00  0.00    -0.241 OA
ATOM     24  O   LIG d   1      -9.496  71.398 119.896  0.00  0.00    -0.241 OA
ENDBRANCH   3  22
TORSDOF 7
ENDMDL
MODEL 3
REMARK VINA RESULT:      -5.6      2.572      5.961
REMARK  7 active torsions:
REMARK  status: ('A' for Active; 'I' for Inactive)
REMARK    1  A    between atoms: C_2  and  C_3 
REMARK    2  A    between atoms: C_3  and  O_6 
REMARK    3  A    between atoms: C_3  and  C_4 
REMARK    4  A    between atoms: C_7  and  O_6 
REMARK    5  A    between atoms: C_9  and  C_10 
REMARK    6  A    between atoms: N_15  and  C_14 
REMARK    7  A    between atoms: N_20  and  C_19 
REMARK       I    between atoms: C_22  and  N_20 
ROOT
ATOM      1  C   LIG d   1      -9.331  76.108 118.201  0.00  0.00     0.161 C 
ATOM      2  C   LIG d   1      -9.384  74.710 118.079  0.00  0.00     0.016 C 
ATOM      3  C   LIG d   1      -8.432  73.955 117.356  0.00  0.00     0.038 C 
ATOM      4  C   LIG d   1      -7.270  74.538 116.828  0.00  0.00     0.028 C 
ATOM      5  C   LIG d   1      -7.432  76.017 116.494  0.00  0.00    -0.047 C 
ATOM      6  C   LIG d   1      -8.010  76.749 117.726  0.00  0.00     0.091 C 
ENDROOT
BRANCH   1   7
ATOM      7  O   LIG d   1      -9.612  76.491 119.562  0.00  0.00    -0.368 OA
BRANCH   7   8
ATOM      8  C   LIG d   1     -10.859  77.196 119.781  0.00  0.00     0.119 C 
BRANCH   8   9
ATOM      9  C   LIG d   1     -10.508  78.623 120.244  0.00  0.00     0.028 C 
ATOM     10  C   LIG d   1      -9.165  78.685 120.991  0.00  0.00     0.006 C 
ENDBRANCH   8   9
BRANCH   8  11
ATOM     11  C   LIG d   1     -11.653  76.579 120.936  0.00  0.00     0.028 C 
ATOM     12  C   LIG d   1     -10.922  75.400 121.598  0.00  0.00     0.006 C 
ENDBRANCH   8  11
ENDBRANCH   7   8
ENDBRANCH   1   7
BRANCH   6  13
ATOM     13  N   LIG d   1      -8.278  78.186 117.457  0.00  0.00    -0.311 N 
ATOM     14  C   LIG d   1      -7.414  79.159 117.741  0.00  0.00     0.210 C 
ATOM     15  C   LIG d   1      -7.897  80.572 117.401  0.00  0.00     0.109 C 
ATOM     16  O   LIG d   1      -6.280  78.982 118.211  0.00  0.00    -0.276 OA
ATOM     17  H   LIG d   1      -9.162  78.416 117.048  0.00  0.00     0.149 HD
ENDBRANCH   6  13
BRANCH   5  18
ATOM     18  N   LIG d   1      -6.110  76.528 116.084  0.00  0.00     0.381 N 
ATOM     19  H   LIG d   1      -5.412  76.219 116.731  0.00  0.00    -0.090 HD
ATOM     20  H   LIG d   1      -6.132  77.533 116.100  0.00  0.00    -0.090 HD
ATOM     21  H   LIG d   1      -5.890  76.207 115.167  0.00  0.00    -0.090 HD
ENDBRANCH   5  18
BRANCH   3  22
ATOM     22  C   LIG d   1      -8.659  72.608 117.120  0.00  0.00     0.382 C 
ATOM     23  O   LIG d   1      -7.791  71.919 116.531  0.00  0.00    -0.241 OA
ATOM     24  O   LIG d   1      -9.739  72.082 117.449  0.00  0.00    -0.241 OA
ENDBRANCH   3  22
TORSDOF 7
ENDMDL
MODEL 4
REMARK VINA RESULT:      -5.3     13.908     17.021
REMARK  7 active torsions:
REMARK  status: ('A' for Active; 'I' for Inactive)
REMARK    1  A    between atoms: C_2  and  C_3 
REMARK    2  A    between atoms: C_3  and  O_6 
REMARK    3  A    between atoms: C_3  and  C_4 
REMARK    4  A    between atoms: C_7  and  O_6 
REMARK    5  A    between atoms: C_9  and  C_10 
REMARK    6  A    between atoms: N_15  and  C_14 
REMARK    7  A    between atoms: N_20  and  C_19 
REMARK       I    between atoms: C_22  and  N_20 
ROOT
ATOM      1  C   LIG d   1      -6.877  93.821 117.086  0.00  0.00     0.161 C 
ATOM      2  C   LIG d   1      -7.182  92.541 116.595  0.00  0.00     0.016 C 
ATOM      3  C   LIG d   1      -6.344  91.417 116.777  0.00  0.00     0.038 C 
ATOM      4  C   LIG d   1      -5.208  91.465 117.599  0.00  0.00     0.028 C 
ATOM      5  C   LIG d   1      -4.592  92.856 117.699  0.00  0.00    -0.047 C 
ATOM      6  C   LIG d   1      -5.696  93.869 118.079  0.00  0.00     0.091 C 
ENDROOT
BRANCH   1   7
ATOM      7  O   LIG d   1      -8.052  94.412 117.676  0.00  0.00    -0.368 OA
BRANCH   7   8
ATOM      8  C   LIG d   1      -8.101  94.423 119.124  0.00  0.00     0.119 C 
BRANCH   8   9
ATOM      9  C   LIG d   1      -9.085  93.321 119.562  0.00  0.00     0.028 C 
ATOM     10  C   LIG d   1      -8.594  92.556 120.803  0.00  0.00     0.006 C 
ENDBRANCH   8   9
BRANCH   8  11
ATOM     11  C   LIG d   1      -8.697  95.732 119.651  0.00  0.00     0.028 C 
ATOM     12  C   LIG d   1      -8.242  96.960 118.847  0.00  0.00     0.006 C 
ENDBRANCH   8  11
ENDBRANCH   7   8
ENDBRANCH   1   7
BRANCH   6  13
ATOM     13  N   LIG d   1      -5.195  95.267 118.115  0.00  0.00    -0.311 N 
ATOM     14  C   LIG d   1      -4.787  95.871 119.230  0.00  0.00     0.210 C 
ATOM     15  C   LIG d   1      -4.328  97.321 119.050  0.00  0.00     0.109 C 
ATOM     16  O   LIG d   1      -4.732  95.332 120.346  0.00  0.00    -0.276 OA
ATOM     17  H   LIG d   1      -5.177  95.768 117.249  0.00  0.00     0.149 HD
ENDBRANCH   6  13
BRANCH   5  18
ATOM     18  N   LIG d   1      -3.502  92.791 118.691  0.00  0.00     0.381 N 
ATOM     19  H   LIG d   1      -3.886  92.734 119.613  0.00  0.00    -0.090 HD
ATOM     20  H   LIG d   1      -2.954  93.631 118.629  0.00  0.00    -0.090 HD
ATOM     21  H   LIG d   1      -2.927  91.996 118.514  0.00  0.00    -0.090 HD
ENDBRANCH   5  18
BRANCH   3  22
ATOM     22  C   LIG d   1      -6.619  90.238 116.101  0.00  0.00     0.382 C 
ATOM     23  O   LIG d   1      -7.803  89.946 115.805  0.00  0.00    -0.241 OA
ATOM     24  O   LIG d   1      -5.703  89.441 115.823  0.00  0.00    -0.241 OA
ENDBRANCH   3  22
TORSDOF 7
ENDMDL
MODEL 5
REMARK VINA RESULT:      -5.3      2.815      4.525
REMARK  7 active torsions:
REMARK  status: ('A' for Active; 'I' for Inactive)
REMARK    1  A    between atoms: C_2  and  C_3 
REMARK    2  A    between atoms: C_3  and  O_6 
REMARK    3  A    between atoms: C_3  and  C_4 
REMARK    4  A    between atoms: C_7  and  O_6 
REMARK    5  A    between atoms: C_9  and  C_10 
REMARK    6  A    between atoms: N_15  and  C_14 
REMARK    7  A    between atoms: N_20  and  C_19 
REMARK       I    between atoms: C_22  and  N_20 
ROOT
ATOM      1  C   LIG d   1      -7.131  76.610 116.845  0.00  0.00     0.161 C 
ATOM      2  C   LIG d   1      -6.936  77.991 117.006  0.00  0.00     0.016 C 
ATOM      3  C   LIG d   1      -7.866  78.839 117.652  0.00  0.00     0.038 C 
ATOM      4  C   LIG d   1      -8.992  78.332 118.318  0.00  0.00     0.028 C 
ATOM      5  C   LIG d   1      -9.488  77.008 117.748  0.00  0.00    -0.047 C 
ATOM      6  C   LIG d   1      -8.301  76.022 117.663  0.00  0.00     0.091 C 
ENDROOT
BRANCH   1   7
ATOM      7  O   LIG d   1      -5.909  75.906 117.142  0.00  0.00    -0.368 OA
BRANCH   7   8
ATOM      8  C   LIG d   1      -4.688  76.678 117.038  0.00  0.00     0.119 C 
BRANCH   8   9
ATOM      9  C   LIG d   1      -3.860  76.082 115.883  0.00  0.00     0.028 C 
ATOM     10  C   LIG d   1      -2.668  75.249 116.384  0.00  0.00     0.006 C 
ENDBRANCH   8   9
BRANCH   8  11
ATOM     11  C   LIG d   1      -3.817  76.515 118.287  0.00  0.00     0.028 C 
ATOM     12  C   LIG d   1      -4.092  77.591 119.350  0.00  0.00     0.006 C 
ENDBRANCH   8  11
ENDBRANCH   7   8
ENDBRANCH   1   7
BRANCH   6  13
ATOM     13  N   LIG d   1      -8.681  74.729 117.038  0.00  0.00    -0.311 N 
ATOM     14  C   LIG d   1      -9.113  73.677 117.733  0.00  0.00     0.210 C 
ATOM     15  C   LIG d   1      -9.433  72.435 116.895  0.00  0.00     0.109 C 
ATOM     16  O   LIG d   1      -9.292  73.666 118.960  0.00  0.00    -0.276 OA
ATOM     17  H   LIG d   1      -8.596  74.660 116.043  0.00  0.00     0.149 HD
ENDBRANCH   6  13
BRANCH   5  18
ATOM     18  N   LIG d   1     -10.577  76.527 118.620  0.00  0.00     0.381 N 
ATOM     19  H   LIG d   1     -11.389  77.098 118.494  0.00  0.00    -0.090 HD
ATOM     20  H   LIG d   1     -10.284  76.604 119.579  0.00  0.00    -0.090 HD
ATOM     21  H   LIG d   1     -10.792  75.578 118.406  0.00  0.00    -0.090 HD
ENDBRANCH   5  18
BRANCH   3  22
ATOM     22  C   LIG d   1      -7.694  80.214 117.600  0.00  0.00     0.382 C 
ATOM     23  O   LIG d   1      -8.425  80.963 118.292  0.00  0.00    -0.241 OA
ATOM     24  O   LIG d   1      -6.848  80.716 116.838  0.00  0.00    -0.241 OA
ENDBRANCH   3  22
TORSDOF 7
ENDMDL
MODEL 6
REMARK VINA RESULT:      -5.3      2.451      5.359
REMARK  7 active torsions:
REMARK  status: ('A' for Active; 'I' for Inactive)
REMARK    1  A    between atoms: C_2  and  C_3 
REMARK    2  A    between atoms: C_3  and  O_6 
REMARK    3  A    between atoms: C_3  and  C_4 
REMARK    4  A    between atoms: C_7  and  O_6 
REMARK    5  A    between atoms: C_9  and  C_10 
REMARK    6  A    between atoms: N_15  and  C_14 
REMARK    7  A    between atoms: N_20  and  C_19 
REMARK       I    between atoms: C_22  and  N_20 
ROOT
ATOM      1  C   LIG d   1      -7.863  77.975 117.885  0.00  0.00     0.161 C 
ATOM      2  C   LIG d   1      -7.509  76.706 117.398  0.00  0.00     0.016 C 
ATOM      3  C   LIG d   1      -8.380  75.592 117.423  0.00  0.00     0.038 C 
ATOM      4  C   LIG d   1      -9.725  75.712 117.800  0.00  0.00     0.028 C 
ATOM      5  C   LIG d   1      -9.982  76.857 118.773  0.00  0.00    -0.047 C 
ATOM      6  C   LIG d   1      -9.364  78.152 118.198  0.00  0.00     0.091 C 
ENDROOT
BRANCH   1   7
ATOM      7  O   LIG d   1      -7.420  78.993 116.965  0.00  0.00    -0.368 OA
BRANCH   7   8
ATOM      8  C   LIG d   1      -6.245  79.742 117.362  0.00  0.00     0.119 C 
BRANCH   8   9
ATOM      9  C   LIG d   1      -5.012  78.979 116.841  0.00  0.00     0.028 C 
ATOM     10  C   LIG d   1      -4.108  78.478 117.981  0.00  0.00     0.006 C 
ENDBRANCH   8   9
BRANCH   8  11
ATOM     11  C   LIG d   1      -6.091  79.772 118.885  0.00  0.00     0.028 C 
ATOM     12  C   LIG d   1      -6.278  81.178 119.476  0.00  0.00     0.006 C 
ENDBRANCH   8  11
ENDBRANCH   7   8
ENDBRANCH   1   7
BRANCH   6  13
ATOM     13  N   LIG d   1      -9.496  79.305 119.127  0.00  0.00    -0.311 N 
ATOM     14  C   LIG d   1      -9.954  80.498 118.754  0.00  0.00     0.210 C 
ATOM     15  C   LIG d   1      -9.991  81.553 119.864  0.00  0.00     0.109 C 
ATOM     16  O   LIG d   1     -10.363  80.775 117.616  0.00  0.00    -0.276 OA
ATOM     17  H   LIG d   1      -9.216  79.159 120.078  0.00  0.00     0.149 HD
ENDBRANCH   6  13
BRANCH   5  18
ATOM     18  N   LIG d   1     -11.440  76.953 118.974  0.00  0.00     0.381 N 
ATOM     19  H   LIG d   1     -11.870  77.339 118.157  0.00  0.00    -0.090 HD
ATOM     20  H   LIG d   1     -11.622  77.569 119.747  0.00  0.00    -0.090 HD
ATOM     21  H   LIG d   1     -11.819  76.051 119.162  0.00  0.00    -0.090 HD
ENDBRANCH   5  18
BRANCH   3  22
ATOM     22  C   LIG d   1      -7.894  74.333 117.104  0.00  0.00     0.382 C 
ATOM     23  O   LIG d   1      -6.745  74.210 116.616  0.00  0.00    -0.241 OA
ATOM     24  O   LIG d   1      -8.607  73.324 117.257  0.00  0.00    -0.241 OA
ENDBRANCH   3  22
TORSDOF 7
ENDMDL
MODEL 7
REMARK VINA RESULT:      -5.2      1.315      1.995
REMARK  7 active torsions:
REMARK  status: ('A' for Active; 'I' for Inactive)
REMARK    1  A    between atoms: C_2  and  C_3 
REMARK    2  A    between atoms: C_3  and  O_6 
REMARK    3  A    between atoms: C_3  and  C_4 
REMARK    4  A    between atoms: C_7  and  O_6 
REMARK    5  A    between atoms: C_9  and  C_10 
REMARK    6  A    between atoms: N_15  and  C_14 
REMARK    7  A    between atoms: N_20  and  C_19 
REMARK       I    between atoms: C_22  and  N_20 
ROOT
ATOM      1  C   LIG d   1      -8.949  77.990 118.438  0.00  0.00     0.161 C 
ATOM      2  C   LIG d   1      -8.500  79.093 117.693  0.00  0.00     0.016 C 
ATOM      3  C   LIG d   1      -8.795  80.434 118.033  0.00  0.00     0.038 C 
ATOM      4  C   LIG d   1      -9.438  80.770 119.234  0.00  0.00     0.028 C 
ATOM      5  C   LIG d   1     -10.350  79.668 119.762  0.00  0.00    -0.047 C 
ATOM      6  C   LIG d   1      -9.557  78.341 119.812  0.00  0.00     0.091 C 
ENDROOT
BRANCH   1   7
ATOM      7  O   LIG d   1      -7.879  77.037 118.593  0.00  0.00    -0.368 OA
BRANCH   7   8
ATOM      8  C   LIG d   1      -7.937  75.869 117.737  0.00  0.00     0.119 C 
BRANCH   8   9
ATOM      9  C   LIG d   1      -7.098  76.174 116.481  0.00  0.00     0.028 C 
ATOM     10  C   LIG d   1      -5.991  75.131 116.247  0.00  0.00     0.006 C 
ENDBRANCH   8   9
BRANCH   8  11
ATOM     11  C   LIG d   1      -9.359  75.624 117.224  0.00  0.00     0.028 C 
ATOM     12  C   LIG d   1      -9.595  74.167 116.796  0.00  0.00     0.006 C 
ENDBRANCH   8  11
ENDBRANCH   7   8
ENDBRANCH   1   7
BRANCH   6  13
ATOM     13  N   LIG d   1     -10.399  77.193 120.238  0.00  0.00    -0.311 N 
ATOM     14  C   LIG d   1     -10.484  76.775 121.499  0.00  0.00     0.210 C 
ATOM     15  C   LIG d   1     -11.394  75.562 121.718  0.00  0.00     0.109 C 
ATOM     16  O   LIG d   1      -9.918  77.312 122.463  0.00  0.00    -0.276 OA
ATOM     17  H   LIG d   1     -10.918  76.718 119.525  0.00  0.00     0.149 HD
ENDBRANCH   6  13
BRANCH   5  18
ATOM     18  N   LIG d   1     -10.846  80.095 121.084  0.00  0.00     0.381 N 
ATOM     19  H   LIG d   1     -10.705  81.079 121.196  0.00  0.00    -0.090 HD
ATOM     20  H   LIG d   1     -10.323  79.618 121.797  0.00  0.00    -0.090 HD
ATOM     21  H   LIG d   1     -11.815  79.878 121.171  0.00  0.00    -0.090 HD
ENDBRANCH   5  18
BRANCH   3  22
ATOM     22  C   LIG d   1      -8.481  81.452 117.146  0.00  0.00     0.382 C 
ATOM     23  O   LIG d   1      -9.346  82.310 116.845  0.00  0.00    -0.241 OA
ATOM     24  O   LIG d   1      -7.358  81.499 116.610  0.00  0.00    -0.241 OA
ENDBRANCH   3  22
TORSDOF 7
ENDMDL
MODEL 8
REMARK VINA RESULT:      -5.2      2.068      5.147
REMARK  7 active torsions:
REMARK  status: ('A' for Active; 'I' for Inactive)
REMARK    1  A    between atoms: C_2  and  C_3 
REMARK    2  A    between atoms: C_3  and  O_6 
REMARK    3  A    between atoms: C_3  and  C_4 
REMARK    4  A    between atoms: C_7  and  O_6 
REMARK    5  A    between atoms: C_9  and  C_10 
REMARK    6  A    between atoms: N_15  and  C_14 
REMARK    7  A    between atoms: N_20  and  C_19 
REMARK       I    between atoms: C_22  and  N_20 
ROOT
ATOM      1  C   LIG d   1      -9.238  77.688 118.695  0.00  0.00     0.161 C 
ATOM      2  C   LIG d   1      -9.024  76.638 117.787  0.00  0.00     0.016 C 
ATOM      3  C   LIG d   1      -9.114  75.273 118.141  0.00  0.00     0.038 C 
ATOM      4  C   LIG d   1      -9.576  74.862 119.401  0.00  0.00     0.028 C 
ATOM      5  C   LIG d   1      -9.318  75.884 120.503  0.00  0.00    -0.047 C 
ATOM      6  C   LIG d   1      -9.851  77.261 120.045  0.00  0.00     0.091 C 
ENDROOT
BRANCH   1   7
ATOM      7  O   LIG d   1     -10.047  78.710 118.079  0.00  0.00    -0.368 OA
BRANCH   7   8
ATOM      8  C   LIG d   1      -9.379  79.963 117.790  0.00  0.00     0.119 C 
BRANCH   8   9
ATOM      9  C   LIG d   1      -7.964  79.884 118.394  0.00  0.00     0.028 C 
ATOM     10  C   LIG d   1      -6.883  80.397 117.428  0.00  0.00     0.006 C 
ENDBRANCH   8   9
BRANCH   8  11
ATOM     11  C   LIG d   1     -10.060  81.135 118.504  0.00  0.00     0.028 C 
ATOM     12  C   LIG d   1     -10.571  82.210 117.532  0.00  0.00     0.006 C 
ENDBRANCH   8  11
ENDBRANCH   7   8
ENDBRANCH   1   7
BRANCH   6  13
ATOM     13  N   LIG d   1      -9.563  78.336 121.030  0.00  0.00    -0.311 N 
ATOM     14  C   LIG d   1     -10.507  79.100 121.578  0.00  0.00     0.210 C 
ATOM     15  C   LIG d   1      -9.993  80.162 122.555  0.00  0.00     0.109 C 
ATOM     16  O   LIG d   1     -11.724  78.977 121.373  0.00  0.00    -0.276 OA
ATOM     17  H   LIG d   1      -8.605  78.483 121.278  0.00  0.00     0.149 HD
ENDBRANCH   6  13
BRANCH   5  18
ATOM     18  N   LIG d   1      -9.970  75.390 121.730  0.00  0.00     0.381 N 
ATOM     19  H   LIG d   1     -10.954  75.562 121.683  0.00  0.00    -0.090 HD
ATOM     20  H   LIG d   1      -9.600  75.890 122.519  0.00  0.00    -0.090 HD
ATOM     21  H   LIG d   1      -9.800  74.414 121.837  0.00  0.00    -0.090 HD
ENDBRANCH   5  18
BRANCH   3  22
ATOM     22  C   LIG d   1      -8.702  74.301 117.242  0.00  0.00     0.382 C 
ATOM     23  O   LIG d   1      -7.492  74.219 116.918  0.00  0.00    -0.241 OA
ATOM     24  O   LIG d   1      -9.530  73.533 116.717  0.00  0.00    -0.241 OA
ENDBRANCH   3  22
TORSDOF 7
ENDMDL
MODEL 9
REMARK VINA RESULT:      -5.2      2.898      5.800
REMARK  7 active torsions:
REMARK  status: ('A' for Active; 'I' for Inactive)
REMARK    1  A    between atoms: C_2  and  C_3 
REMARK    2  A    between atoms: C_3  and  O_6 
REMARK    3  A    between atoms: C_3  and  C_4 
REMARK    4  A    between atoms: C_7  and  O_6 
REMARK    5  A    between atoms: C_9  and  C_10 
REMARK    6  A    between atoms: N_15  and  C_14 
REMARK    7  A    between atoms: N_20  and  C_19 
REMARK       I    between atoms: C_22  and  N_20 
ROOT
ATOM      1  C   LIG d   1      -6.869  76.392 117.241  0.00  0.00     0.161 C 
ATOM      2  C   LIG d   1      -7.344  75.101 116.955  0.00  0.00     0.016 C 
ATOM      3  C   LIG d   1      -8.650  74.665 117.275  0.00  0.00     0.038 C 
ATOM      4  C   LIG d   1      -9.626  75.543 117.770  0.00  0.00     0.028 C 
ATOM      5  C   LIG d   1      -9.043  76.722 118.542  0.00  0.00    -0.047 C 
ATOM      6  C   LIG d   1      -7.953  77.398 117.679  0.00  0.00     0.091 C 
ENDROOT
BRANCH   1   7
ATOM      7  O   LIG d   1      -6.138  76.905 116.109  0.00  0.00    -0.368 OA
BRANCH   7   8
ATOM      8  C   LIG d   1      -4.697  76.961 116.254  0.00  0.00     0.119 C 
BRANCH   8   9
ATOM      9  C   LIG d   1      -4.337  76.259 117.578  0.00  0.00     0.028 C 
ATOM     10  C   LIG d   1      -3.432  75.034 117.364  0.00  0.00     0.006 C 
ENDBRANCH   8   9
BRANCH   8  11
ATOM     11  C   LIG d   1      -4.210  78.404 116.415  0.00  0.00     0.028 C 
ATOM     12  C   LIG d   1      -3.640  78.688 117.814  0.00  0.00     0.006 C 
ENDBRANCH   8  11
ENDBRANCH   7   8
ENDBRANCH   1   7
BRANCH   6  13
ATOM     13  N   LIG d   1      -7.273  78.510 118.394  0.00  0.00    -0.311 N 
ATOM     14  C   LIG d   1      -7.308  79.776 117.982  0.00  0.00     0.210 C 
ATOM     15  C   LIG d   1      -6.522  80.761 118.853  0.00  0.00     0.109 C 
ATOM     16  O   LIG d   1      -7.940  80.182 116.995  0.00  0.00    -0.276 OA
ATOM     17  H   LIG d   1      -6.762  78.275 119.222  0.00  0.00     0.149 HD
ENDBRANCH   6  13
BRANCH   5  18
ATOM     18  N   LIG d   1     -10.157  77.628 118.881  0.00  0.00     0.381 N 
ATOM     19  H   LIG d   1     -10.777  77.176 119.524  0.00  0.00    -0.090 HD
ATOM     20  H   LIG d   1     -10.670  77.839 118.044  0.00  0.00    -0.090 HD
ATOM     21  H   LIG d   1      -9.803  78.467 119.284  0.00  0.00    -0.090 HD
ENDBRANCH   5  18
BRANCH   3  22
ATOM     22  C   LIG d   1      -8.980  73.325 117.138  0.00  0.00     0.382 C 
ATOM     23  O   LIG d   1      -8.364  72.456 117.801  0.00  0.00    -0.241 OA
ATOM     24  O   LIG d   1      -9.856  72.970 116.326  0.00  0.00    -0.241 OA
ENDBRANCH   3  22
TORSDOF 7
ENDMDL
