MODEL 1
REMARK VINA RESULT:      -4.9      0.000      0.000
REMARK  7 active torsions:
REMARK  status: ('A' for Active; 'I' for Inactive)
REMARK    1  A    between atoms: C_2  and  C_3 
REMARK    2  A    between atoms: C_3  and  O_6 
REMARK    3  A    between atoms: C_3  and  C_4 
REMARK    4  A    between atoms: C_7  and  O_6 
REMARK    5  A    between atoms: C_9  and  C_10 
REMARK    6  A    between atoms: N_15  and  C_14 
REMARK    7  A    between atoms: N_20  and  C_19 
REMARK       I    between atoms: C_22  and  N_20 
ROOT
ATOM      1  C   LIG d   1      -6.291  93.965 117.885  0.00  0.00     0.161 C 
ATOM      2  C   LIG d   1      -6.822  92.811 117.286  0.00  0.00     0.016 C 
ATOM      3  C   LIG d   1      -6.047  91.671 116.970  0.00  0.00     0.038 C 
ATOM      4  C   LIG d   1      -4.709  91.549 117.372  0.00  0.00     0.028 C 
ATOM      5  C   LIG d   1      -4.000  92.890 117.529  0.00  0.00    -0.047 C 
ATOM      6  C   LIG d   1      -4.856  93.808 118.431  0.00  0.00     0.091 C 
ENDROOT
BRANCH   1   7
ATOM      7  O   LIG d   1      -7.175  94.428 118.924  0.00  0.00    -0.368 OA
BRANCH   7   8
ATOM      8  C   LIG d   1      -7.010  93.810 120.224  0.00  0.00     0.119 C 
BRANCH   8   9
ATOM      9  C   LIG d   1      -8.266  92.961 120.496  0.00  0.00     0.028 C 
ATOM     10  C   LIG d   1      -9.546  93.615 119.949  0.00  0.00     0.006 C 
ENDBRANCH   8   9
BRANCH   8  11
ATOM     11  C   LIG d   1      -6.979  94.858 121.340  0.00  0.00     0.028 C 
ATOM     12  C   LIG d   1      -7.101  96.296 120.811  0.00  0.00     0.006 C 
ENDBRANCH   8  11
ENDBRANCH   7   8
ENDBRANCH   1   7
BRANCH   6  13
ATOM     13  N   LIG d   1      -4.276  95.170 118.568  0.00  0.00    -0.311 N 
ATOM     14  C   LIG d   1      -3.680  95.604 119.678  0.00  0.00     0.210 C 
ATOM     15  C   LIG d   1      -3.169  97.047 119.614  0.00  0.00     0.109 C 
ATOM     16  O   LIG d   1      -3.498  94.921 120.697  0.00  0.00    -0.276 OA
ATOM     17  H   LIG d   1      -4.352  95.780 117.778  0.00  0.00     0.149 HD
ENDBRANCH   6  13
BRANCH   5  18
ATOM     18  N   LIG d   1      -2.659  92.623 118.083  0.00  0.00     0.381 N 
ATOM     19  H   LIG d   1      -2.620  91.689 118.440  0.00  0.00    -0.090 HD
ATOM     20  H   LIG d   1      -2.489  93.258 118.843  0.00  0.00    -0.090 HD
ATOM     21  H   LIG d   1      -1.967  92.746 117.377  0.00  0.00    -0.090 HD
ENDBRANCH   5  18
BRANCH   3  22
ATOM     22  C   LIG d   1      -6.601  90.653 116.209  0.00  0.00     0.382 C 
ATOM     23  O   LIG d   1      -7.831  90.654 115.961  0.00  0.00    -0.241 OA
ATOM     24  O   LIG d   1      -5.895  89.710 115.805  0.00  0.00    -0.241 OA
ENDBRANCH   3  22
TORSDOF 7
ENDMDL
MODEL 2
REMARK VINA RESULT:      -4.8      2.156      3.661
REMARK  7 active torsions:
REMARK  status: ('A' for Active; 'I' for Inactive)
REMARK    1  A    between atoms: C_2  and  C_3 
REMARK    2  A    between atoms: C_3  and  O_6 
REMARK    3  A    between atoms: C_3  and  C_4 
REMARK    4  A    between atoms: C_7  and  O_6 
REMARK    5  A    between atoms: C_9  and  C_10 
REMARK    6  A    between atoms: N_15  and  C_14 
REMARK    7  A    between atoms: N_20  and  C_19 
REMARK       I    between atoms: C_22  and  N_20 
ROOT
ATOM      1  C   LIG d   1      -5.737  93.062 119.258  0.00  0.00     0.161 C 
ATOM      2  C   LIG d   1      -5.792  91.983 118.360  0.00  0.00     0.016 C 
ATOM      3  C   LIG d   1      -6.370  92.071 117.072  0.00  0.00     0.038 C 
ATOM      4  C   LIG d   1      -6.801  93.293 116.535  0.00  0.00     0.028 C 
ATOM      5  C   LIG d   1      -7.226  94.305 117.594  0.00  0.00    -0.047 C 
ATOM      6  C   LIG d   1      -6.101  94.431 118.647  0.00  0.00     0.091 C 
ENDROOT
BRANCH   1   7
ATOM      7  O   LIG d   1      -4.435  93.119 119.874  0.00  0.00    -0.368 OA
BRANCH   7   8
ATOM      8  C   LIG d   1      -3.401  93.797 119.119  0.00  0.00     0.119 C 
BRANCH   8   9
ATOM      9  C   LIG d   1      -2.292  92.769 118.826  0.00  0.00     0.028 C 
ATOM     10  C   LIG d   1      -2.329  91.574 119.794  0.00  0.00     0.006 C 
ENDBRANCH   8   9
BRANCH   8  11
ATOM     11  C   LIG d   1      -2.730  94.892 119.953  0.00  0.00     0.028 C 
ATOM     12  C   LIG d   1      -3.209  94.907 121.413  0.00  0.00     0.006 C 
ENDBRANCH   8  11
ENDBRANCH   7   8
ENDBRANCH   1   7
BRANCH   6  13
ATOM     13  N   LIG d   1      -6.471  95.339 119.764  0.00  0.00    -0.311 N 
ATOM     14  C   LIG d   1      -6.123  96.623 119.811  0.00  0.00     0.210 C 
ATOM     15  C   LIG d   1      -6.589  97.374 121.062  0.00  0.00     0.109 C 
ATOM     16  O   LIG d   1      -5.500  97.220 118.920  0.00  0.00    -0.276 OA
ATOM     17  H   LIG d   1      -7.003  94.944 120.515  0.00  0.00     0.149 HD
ENDBRANCH   6  13
BRANCH   5  18
ATOM     18  N   LIG d   1      -7.518  95.576 116.904  0.00  0.00     0.381 N 
ATOM     19  H   LIG d   1      -8.240  95.435 116.226  0.00  0.00    -0.090 HD
ATOM     20  H   LIG d   1      -6.690  95.883 116.425  0.00  0.00    -0.090 HD
ATOM     21  H   LIG d   1      -7.804  96.264 117.565  0.00  0.00    -0.090 HD
ENDBRANCH   5  18
BRANCH   3  22
ATOM     22  C   LIG d   1      -6.559  90.919 116.324  0.00  0.00     0.382 C 
ATOM     23  O   LIG d   1      -5.588  90.164 116.080  0.00  0.00    -0.241 OA
ATOM     24  O   LIG d   1      -7.680  90.649 115.852  0.00  0.00    -0.241 OA
ENDBRANCH   3  22
TORSDOF 7
ENDMDL
MODEL 3
REMARK VINA RESULT:      -4.7     13.722     16.386
REMARK  7 active torsions:
REMARK  status: ('A' for Active; 'I' for Inactive)
REMARK    1  A    between atoms: C_2  and  C_3 
REMARK    2  A    between atoms: C_3  and  O_6 
REMARK    3  A    between atoms: C_3  and  C_4 
REMARK    4  A    between atoms: C_7  and  O_6 
REMARK    5  A    between atoms: C_9  and  C_10 
REMARK    6  A    between atoms: N_15  and  C_14 
REMARK    7  A    between atoms: N_20  and  C_19 
REMARK       I    between atoms: C_22  and  N_20 
ROOT
ATOM      1  C   LIG d   1      -9.586  78.338 119.306  0.00  0.00     0.161 C 
ATOM      2  C   LIG d   1      -9.952  79.494 118.598  0.00  0.00     0.016 C 
ATOM      3  C   LIG d   1      -9.020  80.452 118.136  0.00  0.00     0.038 C 
ATOM      4  C   LIG d   1      -7.636  80.241 118.222  0.00  0.00     0.028 C 
ATOM      5  C   LIG d   1      -7.232  79.331 119.377  0.00  0.00    -0.047 C 
ATOM      6  C   LIG d   1      -8.073  78.035 119.312  0.00  0.00     0.091 C 
ENDROOT
BRANCH   1   7
ATOM      7  O   LIG d   1     -10.322  77.204 118.806  0.00  0.00    -0.368 OA
BRANCH   7   8
ATOM      8  C   LIG d   1     -11.537  76.867 119.520  0.00  0.00     0.119 C 
BRANCH   8   9
ATOM      9  C   LIG d   1     -11.165  75.837 120.605  0.00  0.00     0.028 C 
ATOM     10  C   LIG d   1     -11.118  76.457 122.012  0.00  0.00     0.006 C 
ENDBRANCH   8   9
BRANCH   8  11
ATOM     11  C   LIG d   1     -12.539  76.153 118.609  0.00  0.00     0.028 C 
ATOM     12  C   LIG d   1     -13.383  75.108 119.356  0.00  0.00     0.006 C 
ENDBRANCH   8  11
ENDBRANCH   7   8
ENDBRANCH   1   7
BRANCH   6  13
ATOM     13  N   LIG d   1      -7.801  77.125 120.455  0.00  0.00    -0.311 N 
ATOM     14  C   LIG d   1      -7.611  75.814 120.319  0.00  0.00     0.210 C 
ATOM     15  C   LIG d   1      -7.365  75.057 121.628  0.00  0.00     0.109 C 
ATOM     16  O   LIG d   1      -7.593  75.210 119.235  0.00  0.00    -0.276 OA
ATOM     17  H   LIG d   1      -7.767  77.536 121.367  0.00  0.00     0.149 HD
ENDBRANCH   6  13
BRANCH   5  18
ATOM     18  N   LIG d   1      -5.782  79.085 119.265  0.00  0.00     0.381 N 
ATOM     19  H   LIG d   1      -5.610  78.103 119.186  0.00  0.00    -0.090 HD
ATOM     20  H   LIG d   1      -5.331  79.419 120.099  0.00  0.00    -0.090 HD
ATOM     21  H   LIG d   1      -5.417  79.559 118.469  0.00  0.00    -0.090 HD
ENDBRANCH   5  18
BRANCH   3  22
ATOM     22  C   LIG d   1      -9.472  81.656 117.618  0.00  0.00     0.382 C 
ATOM     23  O   LIG d   1     -10.368  82.299 118.215  0.00  0.00    -0.241 OA
ATOM     24  O   LIG d   1      -9.026  82.085 116.537  0.00  0.00    -0.241 OA
ENDBRANCH   3  22
TORSDOF 7
ENDMDL
MODEL 4
REMARK VINA RESULT:      -4.6     20.819     23.200
REMARK  7 active torsions:
REMARK  status: ('A' for Active; 'I' for Inactive)
REMARK    1  A    between atoms: C_2  and  C_3 
REMARK    2  A    between atoms: C_3  and  O_6 
REMARK    3  A    between atoms: C_3  and  C_4 
REMARK    4  A    between atoms: C_7  and  O_6 
REMARK    5  A    between atoms: C_9  and  C_10 
REMARK    6  A    between atoms: N_15  and  C_14 
REMARK    7  A    between atoms: N_20  and  C_19 
REMARK       I    between atoms: C_22  and  N_20 
ROOT
ATOM      1  C   LIG d   1     -15.352  72.945 121.439  0.00  0.00     0.161 C 
ATOM      2  C   LIG d   1     -14.377  71.933 121.436  0.00  0.00     0.016 C 
ATOM      3  C   LIG d   1     -14.585  70.654 120.870  0.00  0.00     0.038 C 
ATOM      4  C   LIG d   1     -15.738  70.350 120.129  0.00  0.00     0.028 C 
ATOM      5  C   LIG d   1     -16.955  71.171 120.539  0.00  0.00    -0.047 C 
ATOM      6  C   LIG d   1     -16.574  72.669 120.539  0.00  0.00     0.091 C 
ENDROOT
BRANCH   1   7
ATOM      7  O   LIG d   1     -14.747  74.206 121.091  0.00  0.00    -0.368 OA
BRANCH   7   8
ATOM      8  C   LIG d   1     -13.556  74.137 120.269  0.00  0.00     0.119 C 
BRANCH   8   9
ATOM      9  C   LIG d   1     -12.518  75.099 120.877  0.00  0.00     0.028 C 
ATOM     10  C   LIG d   1     -12.948  75.634 122.254  0.00  0.00     0.006 C 
ENDBRANCH   8   9
BRANCH   8  11
ATOM     11  C   LIG d   1     -13.822  74.666 118.857  0.00  0.00     0.028 C 
ATOM     12  C   LIG d   1     -12.988  75.913 118.521  0.00  0.00     0.006 C 
ENDBRANCH   8  11
ENDBRANCH   7   8
ENDBRANCH   1   7
BRANCH   6  13
ATOM     13  N   LIG d   1     -17.685  73.537 121.010  0.00  0.00    -0.311 N 
ATOM     14  C   LIG d   1     -18.076  74.638 120.371  0.00  0.00     0.210 C 
ATOM     15  C   LIG d   1     -19.226  75.398 121.038  0.00  0.00     0.109 C 
ATOM     16  O   LIG d   1     -17.600  75.041 119.299  0.00  0.00    -0.276 OA
ATOM     17  H   LIG d   1     -18.147  73.267 121.856  0.00  0.00     0.149 HD
ENDBRANCH   6  13
BRANCH   5  18
ATOM     18  N   LIG d   1     -18.046  70.852 119.598  0.00  0.00     0.381 N 
ATOM     19  H   LIG d   1     -18.719  70.264 120.047  0.00  0.00    -0.090 HD
ATOM     20  H   LIG d   1     -17.663  70.352 118.815  0.00  0.00    -0.090 HD
ATOM     21  H   LIG d   1     -18.482  71.690 119.285  0.00  0.00    -0.090 HD
ENDBRANCH   5  18
BRANCH   3  22
ATOM     22  C   LIG d   1     -13.651  69.651 121.076  0.00  0.00     0.382 C 
ATOM     23  O   LIG d   1     -13.253  68.957 120.110  0.00  0.00    -0.241 OA
ATOM     24  O   LIG d   1     -13.234  69.402 122.223  0.00  0.00    -0.241 OA
ENDBRANCH   3  22
TORSDOF 7
ENDMDL
MODEL 5
REMARK VINA RESULT:      -4.6      2.202      4.251
REMARK  7 active torsions:
REMARK  status: ('A' for Active; 'I' for Inactive)
REMARK    1  A    between atoms: C_2  and  C_3 
REMARK    2  A    between atoms: C_3  and  O_6 
REMARK    3  A    between atoms: C_3  and  C_4 
REMARK    4  A    between atoms: C_7  and  O_6 
REMARK    5  A    between atoms: C_9  and  C_10 
REMARK    6  A    between atoms: N_15  and  C_14 
REMARK    7  A    between atoms: N_20  and  C_19 
REMARK       I    between atoms: C_22  and  N_20 
ROOT
ATOM      1  C   LIG d   1      -4.219  92.839 118.582  0.00  0.00     0.161 C 
ATOM      2  C   LIG d   1      -4.653  91.826 117.711  0.00  0.00     0.016 C 
ATOM      3  C   LIG d   1      -5.791  91.948 116.881  0.00  0.00     0.038 C 
ATOM      4  C   LIG d   1      -6.489  93.158 116.753  0.00  0.00     0.028 C 
ATOM      5  C   LIG d   1      -6.391  94.047 117.988  0.00  0.00    -0.047 C 
ATOM      6  C   LIG d   1      -4.903  94.207 118.374  0.00  0.00     0.091 C 
ENDROOT
BRANCH   1   7
ATOM      7  O   LIG d   1      -2.787  92.977 118.496  0.00  0.00    -0.368 OA
BRANCH   7   8
ATOM      8  C   LIG d   1      -2.041  92.634 119.689  0.00  0.00     0.119 C 
BRANCH   8   9
ATOM      9  C   LIG d   1      -1.078  93.801 119.984  0.00  0.00     0.028 C 
ATOM     10  C   LIG d   1      -1.114  94.233 121.459  0.00  0.00     0.006 C 
ENDBRANCH   8   9
BRANCH   8  11
ATOM     11  C   LIG d   1      -1.142  91.416 119.454  0.00  0.00     0.028 C 
ATOM     12  C   LIG d   1      -0.870  91.155 117.964  0.00  0.00     0.006 C 
ENDBRANCH   8  11
ENDBRANCH   7   8
ENDBRANCH   1   7
BRANCH   6  13
ATOM     13  N   LIG d   1      -4.722  94.994 119.622  0.00  0.00    -0.311 N 
ATOM     14  C   LIG d   1      -4.013  96.120 119.682  0.00  0.00     0.210 C 
ATOM     15  C   LIG d   1      -3.937  96.763 121.071  0.00  0.00     0.109 C 
ATOM     16  O   LIG d   1      -3.466  96.664 118.711  0.00  0.00    -0.276 OA
ATOM     17  H   LIG d   1      -5.158  94.641 120.451  0.00  0.00     0.149 HD
ENDBRANCH   6  13
BRANCH   5  18
ATOM     18  N   LIG d   1      -7.046  95.330 117.667  0.00  0.00     0.381 N 
ATOM     19  H   LIG d   1      -8.018  95.280 117.896  0.00  0.00    -0.090 HD
ATOM     20  H   LIG d   1      -6.963  95.499 116.680  0.00  0.00    -0.090 HD
ATOM     21  H   LIG d   1      -6.614  96.070 118.176  0.00  0.00    -0.090 HD
ENDBRANCH   5  18
BRANCH   3  22
ATOM     22  C   LIG d   1      -6.265  90.839 116.197  0.00  0.00     0.382 C 
ATOM     23  O   LIG d   1      -7.497  90.698 116.009  0.00  0.00    -0.241 OA
ATOM     24  O   LIG d   1      -5.479  89.955 115.805  0.00  0.00    -0.241 OA
ENDBRANCH   3  22
TORSDOF 7
ENDMDL
MODEL 6
REMARK VINA RESULT:      -4.6      2.413      4.486
REMARK  7 active torsions:
REMARK  status: ('A' for Active; 'I' for Inactive)
REMARK    1  A    between atoms: C_2  and  C_3 
REMARK    2  A    between atoms: C_3  and  O_6 
REMARK    3  A    between atoms: C_3  and  C_4 
REMARK    4  A    between atoms: C_7  and  O_6 
REMARK    5  A    between atoms: C_9  and  C_10 
REMARK    6  A    between atoms: N_15  and  C_14 
REMARK    7  A    between atoms: N_20  and  C_19 
REMARK       I    between atoms: C_22  and  N_20 
ROOT
ATOM      1  C   LIG d   1      -4.417  93.410 118.760  0.00  0.00     0.161 C 
ATOM      2  C   LIG d   1      -3.430  92.422 118.602  0.00  0.00     0.016 C 
ATOM      3  C   LIG d   1      -3.656  91.196 117.933  0.00  0.00     0.038 C 
ATOM      4  C   LIG d   1      -4.849  90.938 117.241  0.00  0.00     0.028 C 
ATOM      5  C   LIG d   1      -6.050  91.694 117.800  0.00  0.00    -0.047 C 
ATOM      6  C   LIG d   1      -5.690  93.193 117.915  0.00  0.00     0.091 C 
ENDROOT
BRANCH   1   7
ATOM      7  O   LIG d   1      -3.854  94.709 118.493  0.00  0.00    -0.368 OA
BRANCH   7   8
ATOM      8  C   LIG d   1      -3.779  95.615 119.621  0.00  0.00     0.119 C 
BRANCH   8   9
ATOM      9  C   LIG d   1      -3.848  97.051 119.067  0.00  0.00     0.028 C 
ATOM     10  C   LIG d   1      -2.977  98.033 119.869  0.00  0.00     0.006 C 
ENDBRANCH   8   9
BRANCH   8  11
ATOM     11  C   LIG d   1      -2.423  95.517 120.326  0.00  0.00     0.028 C 
ATOM     12  C   LIG d   1      -2.493  94.736 121.647  0.00  0.00     0.006 C 
ENDBRANCH   8  11
ENDBRANCH   7   8
ENDBRANCH   1   7
BRANCH   6  13
ATOM     13  N   LIG d   1      -6.780  93.992 118.533  0.00  0.00    -0.311 N 
ATOM     14  C   LIG d   1      -7.757  94.565 117.832  0.00  0.00     0.210 C 
ATOM     15  C   LIG d   1      -8.769  95.360 118.663  0.00  0.00     0.109 C 
ATOM     16  O   LIG d   1      -7.899  94.464 116.604  0.00  0.00    -0.276 OA
ATOM     17  H   LIG d   1      -6.760  94.099 119.528  0.00  0.00     0.149 HD
ENDBRANCH   6  13
BRANCH   5  18
ATOM     18  N   LIG d   1      -7.193  91.441 116.903  0.00  0.00     0.381 N 
ATOM     19  H   LIG d   1      -6.947  91.683 115.964  0.00  0.00    -0.090 HD
ATOM     20  H   LIG d   1      -7.963  92.020 117.187  0.00  0.00    -0.090 HD
ATOM     21  H   LIG d   1      -7.456  90.481 116.949  0.00  0.00    -0.090 HD
ENDBRANCH   5  18
BRANCH   3  22
ATOM     22  C   LIG d   1      -2.696  90.197 117.987  0.00  0.00     0.382 C 
ATOM     23  O   LIG d   1      -3.022  89.003 117.781  0.00  0.00    -0.241 OA
ATOM     24  O   LIG d   1      -1.517  90.469 118.282  0.00  0.00    -0.241 OA
ENDBRANCH   3  22
TORSDOF 7
ENDMDL
MODEL 7
REMARK VINA RESULT:      -4.6      3.316      5.558
REMARK  7 active torsions:
REMARK  status: ('A' for Active; 'I' for Inactive)
REMARK    1  A    between atoms: C_2  and  C_3 
REMARK    2  A    between atoms: C_3  and  O_6 
REMARK    3  A    between atoms: C_3  and  C_4 
REMARK    4  A    between atoms: C_7  and  O_6 
REMARK    5  A    between atoms: C_9  and  C_10 
REMARK    6  A    between atoms: N_15  and  C_14 
REMARK    7  A    between atoms: N_20  and  C_19 
REMARK       I    between atoms: C_22  and  N_20 
ROOT
ATOM      1  C   LIG d   1      -3.139  90.718 118.062  0.00  0.00     0.161 C 
ATOM      2  C   LIG d   1      -4.269  90.576 117.238  0.00  0.00     0.016 C 
ATOM      3  C   LIG d   1      -5.193  91.618 116.999  0.00  0.00     0.038 C 
ATOM      4  C   LIG d   1      -4.968  92.927 117.449  0.00  0.00     0.028 C 
ATOM      5  C   LIG d   1      -4.103  92.996 118.703  0.00  0.00    -0.047 C 
ATOM      6  C   LIG d   1      -2.817  92.170 118.472  0.00  0.00     0.091 C 
ENDROOT
BRANCH   1   7
ATOM      7  O   LIG d   1      -1.995  90.110 117.431  0.00  0.00    -0.368 OA
BRANCH   7   8
ATOM      8  C   LIG d   1      -1.741  88.725 117.771  0.00  0.00     0.119 C 
BRANCH   8   9
ATOM      9  C   LIG d   1      -1.707  88.625 119.309  0.00  0.00     0.028 C 
ATOM     10  C   LIG d   1      -1.956  87.192 119.809  0.00  0.00     0.006 C 
ENDBRANCH   8   9
BRANCH   8  11
ATOM     11  C   LIG d   1      -0.350  88.282 117.305  0.00  0.00     0.028 C 
ATOM     12  C   LIG d   1       0.682  89.421 117.346  0.00  0.00     0.006 C 
ENDBRANCH   8  11
ENDBRANCH   7   8
ENDBRANCH   1   7
BRANCH   6  13
ATOM     13  N   LIG d   1      -1.953  92.115 119.680  0.00  0.00    -0.311 N 
ATOM     14  C   LIG d   1      -0.959  92.971 119.910  0.00  0.00     0.210 C 
ATOM     15  C   LIG d   1      -0.180  92.724 121.206  0.00  0.00     0.109 C 
ATOM     16  O   LIG d   1      -0.668  93.930 119.180  0.00  0.00    -0.276 OA
ATOM     17  H   LIG d   1      -2.139  91.386 120.341  0.00  0.00     0.149 HD
ENDBRANCH   6  13
BRANCH   5  18
ATOM     18  N   LIG d   1      -3.834  94.419 118.982  0.00  0.00     0.381 N 
ATOM     19  H   LIG d   1      -2.854  94.603 118.891  0.00  0.00    -0.090 HD
ATOM     20  H   LIG d   1      -4.106  94.623 119.927  0.00  0.00    -0.090 HD
ATOM     21  H   LIG d   1      -4.347  94.993 118.350  0.00  0.00    -0.090 HD
ENDBRANCH   5  18
BRANCH   3  22
ATOM     22  C   LIG d   1      -6.380  91.345 116.335  0.00  0.00     0.382 C 
ATOM     23  O   LIG d   1      -7.100  92.287 115.925  0.00  0.00    -0.241 OA
ATOM     24  O   LIG d   1      -6.761  90.170 116.180  0.00  0.00    -0.241 OA
ENDBRANCH   3  22
TORSDOF 7
ENDMDL
MODEL 8
REMARK VINA RESULT:      -4.5      2.412      4.895
REMARK  7 active torsions:
REMARK  status: ('A' for Active; 'I' for Inactive)
REMARK    1  A    between atoms: C_2  and  C_3 
REMARK    2  A    between atoms: C_3  and  O_6 
REMARK    3  A    between atoms: C_3  and  C_4 
REMARK    4  A    between atoms: C_7  and  O_6 
REMARK    5  A    between atoms: C_9  and  C_10 
REMARK    6  A    between atoms: N_15  and  C_14 
REMARK    7  A    between atoms: N_20  and  C_19 
REMARK       I    between atoms: C_22  and  N_20 
ROOT
ATOM      1  C   LIG d   1      -4.272  93.485 118.442  0.00  0.00     0.161 C 
ATOM      2  C   LIG d   1      -5.438  94.267 118.391  0.00  0.00     0.016 C 
ATOM      3  C   LIG d   1      -6.590  93.899 117.658  0.00  0.00     0.038 C 
ATOM      4  C   LIG d   1      -6.709  92.643 117.045  0.00  0.00     0.028 C 
ATOM      5  C   LIG d   1      -5.369  92.033 116.649  0.00  0.00    -0.047 C 
ATOM      6  C   LIG d   1      -4.424  92.059 117.872  0.00  0.00     0.091 C 
ENDROOT
BRANCH   1   7
ATOM      7  O   LIG d   1      -3.779  93.433 119.796  0.00  0.00    -0.368 OA
BRANCH   7   8
ATOM      8  C   LIG d   1      -2.417  93.886 119.995  0.00  0.00     0.119 C 
BRANCH   8   9
ATOM      9  C   LIG d   1      -1.653  92.755 120.712  0.00  0.00     0.028 C 
ATOM     10  C   LIG d   1      -0.292  92.462 120.060  0.00  0.00     0.006 C 
ENDBRANCH   8   9
BRANCH   8  11
ATOM     11  C   LIG d   1      -2.362  95.082 120.950  0.00  0.00     0.028 C 
ATOM     12  C   LIG d   1      -2.875  96.381 120.309  0.00  0.00     0.006 C 
ENDBRANCH   8  11
ENDBRANCH   7   8
ENDBRANCH   1   7
BRANCH   6  13
ATOM     13  N   LIG d   1      -3.063  91.558 117.547  0.00  0.00    -0.311 N 
ATOM     14  C   LIG d   1      -2.695  90.287 117.700  0.00  0.00     0.210 C 
ATOM     15  C   LIG d   1      -1.240  89.986 117.325  0.00  0.00     0.109 C 
ATOM     16  O   LIG d   1      -3.444  89.374 118.079  0.00  0.00    -0.276 OA
ATOM     17  H   LIG d   1      -2.401  92.225 117.204  0.00  0.00     0.149 HD
ENDBRANCH   6  13
BRANCH   5  18
ATOM     18  N   LIG d   1      -5.630  90.669 116.150  0.00  0.00     0.381 N 
ATOM     19  H   LIG d   1      -4.767  90.226 115.908  0.00  0.00    -0.090 HD
ATOM     20  H   LIG d   1      -6.197  90.729 115.322  0.00  0.00    -0.090 HD
ATOM     21  H   LIG d   1      -6.102  90.136 116.846  0.00  0.00    -0.090 HD
ENDBRANCH   5  18
BRANCH   3  22
ATOM     22  C   LIG d   1      -7.624  94.810 117.499  0.00  0.00     0.382 C 
ATOM     23  O   LIG d   1      -7.366  96.019 117.285  0.00  0.00    -0.241 OA
ATOM     24  O   LIG d   1      -8.809  94.446 117.612  0.00  0.00    -0.241 OA
ENDBRANCH   3  22
TORSDOF 7
ENDMDL
MODEL 9
REMARK VINA RESULT:      -4.5     13.295     16.329
REMARK  7 active torsions:
REMARK  status: ('A' for Active; 'I' for Inactive)
REMARK    1  A    between atoms: C_2  and  C_3 
REMARK    2  A    between atoms: C_3  and  O_6 
REMARK    3  A    between atoms: C_3  and  C_4 
REMARK    4  A    between atoms: C_7  and  O_6 
REMARK    5  A    between atoms: C_9  and  C_10 
REMARK    6  A    between atoms: N_15  and  C_14 
REMARK    7  A    between atoms: N_20  and  C_19 
REMARK       I    between atoms: C_22  and  N_20 
ROOT
ATOM      1  C   LIG d   1      -9.324  78.410 118.256  0.00  0.00     0.161 C 
ATOM      2  C   LIG d   1      -8.470  79.485 117.956  0.00  0.00     0.016 C 
ATOM      3  C   LIG d   1      -8.502  80.720 118.643  0.00  0.00     0.038 C 
ATOM      4  C   LIG d   1      -9.294  80.913 119.785  0.00  0.00     0.028 C 
ATOM      5  C   LIG d   1     -10.537  80.031 119.816  0.00  0.00    -0.047 C 
ATOM      6  C   LIG d   1     -10.118  78.563 119.571  0.00  0.00     0.091 C 
ENDROOT
BRANCH   1   7
ATOM      7  O   LIG d   1      -8.576  77.178 118.263  0.00  0.00    -0.368 OA
BRANCH   7   8
ATOM      8  C   LIG d   1      -7.382  77.153 117.442  0.00  0.00     0.119 C 
BRANCH   8   9
ATOM      9  C   LIG d   1      -7.569  76.045 116.388  0.00  0.00     0.028 C 
ATOM     10  C   LIG d   1      -6.822  74.752 116.756  0.00  0.00     0.006 C 
ENDBRANCH   8   9
BRANCH   8  11
ATOM     11  C   LIG d   1      -6.154  76.735 118.257  0.00  0.00     0.028 C 
ATOM     12  C   LIG d   1      -6.252  77.144 119.735  0.00  0.00     0.006 C 
ENDBRANCH   8  11
ENDBRANCH   7   8
ENDBRANCH   1   7
BRANCH   6  13
ATOM     13  N   LIG d   1     -11.284  77.644 119.501  0.00  0.00    -0.311 N 
ATOM     14  C   LIG d   1     -11.345  76.487 120.157  0.00  0.00     0.210 C 
ATOM     15  C   LIG d   1     -12.629  75.682 119.931  0.00  0.00     0.109 C 
ATOM     16  O   LIG d   1     -10.471  76.065 120.930  0.00  0.00    -0.276 OA
ATOM     17  H   LIG d   1     -12.051  77.923 118.922  0.00  0.00     0.149 HD
ENDBRANCH   6  13
BRANCH   5  18
ATOM     18  N   LIG d   1     -11.195  80.234 121.120  0.00  0.00     0.381 N 
ATOM     19  H   LIG d   1     -12.119  80.592 120.982  0.00  0.00    -0.090 HD
ATOM     20  H   LIG d   1     -10.671  80.909 121.648  0.00  0.00    -0.090 HD
ATOM     21  H   LIG d   1     -11.237  79.372 121.619  0.00  0.00    -0.090 HD
ENDBRANCH   5  18
BRANCH   3  22
ATOM     22  C   LIG d   1      -7.765  81.792 118.164  0.00  0.00     0.382 C 
ATOM     23  O   LIG d   1      -7.627  82.822 118.867  0.00  0.00    -0.241 OA
ATOM     24  O   LIG d   1      -7.272  81.760 117.020  0.00  0.00    -0.241 OA
ENDBRANCH   3  22
TORSDOF 7
ENDMDL
