MODEL 1
REMARK VINA RESULT:      -4.7      0.000      0.000
REMARK  7 active torsions:
REMARK  status: ('A' for Active; 'I' for Inactive)
REMARK    1  A    between atoms: C_2  and  C_3 
REMARK    2  A    between atoms: C_3  and  O_6 
REMARK    3  A    between atoms: C_3  and  C_4 
REMARK    4  A    between atoms: C_7  and  O_6 
REMARK    5  A    between atoms: C_9  and  C_10 
REMARK    6  A    between atoms: N_15  and  C_14 
REMARK    7  A    between atoms: N_20  and  C_19 
REMARK       I    between atoms: C_22  and  N_20 
ROOT
ATOM      1  C   LIG d   1      -0.962  58.774 119.699  0.00  0.00     0.161 C 
ATOM      2  C   LIG d   1      -2.234  58.703 119.108  0.00  0.00     0.016 C 
ATOM      3  C   LIG d   1      -2.474  58.982 117.743  0.00  0.00     0.038 C 
ATOM      4  C   LIG d   1      -1.427  59.205 116.836  0.00  0.00     0.028 C 
ATOM      5  C   LIG d   1      -0.175  59.784 117.488  0.00  0.00    -0.047 C 
ATOM      6  C   LIG d   1       0.209  58.908 118.703  0.00  0.00     0.091 C 
ENDROOT
BRANCH   1   7
ATOM      7  O   LIG d   1      -0.759  57.636 120.560  0.00  0.00    -0.368 OA
BRANCH   7   8
ATOM      8  C   LIG d   1      -1.462  56.424 120.191  0.00  0.00     0.119 C 
BRANCH   8   9
ATOM      9  C   LIG d   1      -1.979  55.775 121.490  0.00  0.00     0.028 C 
ATOM     10  C   LIG d   1      -3.177  56.532 122.087  0.00  0.00     0.006 C 
ENDBRANCH   8   9
BRANCH   8  11
ATOM     11  C   LIG d   1      -0.511  55.394 119.574  0.00  0.00     0.028 C 
ATOM     12  C   LIG d   1      -0.622  55.324 118.042  0.00  0.00     0.006 C 
ENDBRANCH   8  11
ENDBRANCH   7   8
ENDBRANCH   1   7
BRANCH   6  13
ATOM     13  N   LIG d   1       1.374  59.451 119.448  0.00  0.00    -0.311 N 
ATOM     14  C   LIG d   1       2.363  58.693 119.916  0.00  0.00     0.210 C 
ATOM     15  C   LIG d   1       3.458  59.452 120.673  0.00  0.00     0.109 C 
ATOM     16  O   LIG d   1       2.454  57.467 119.749  0.00  0.00    -0.276 OA
ATOM     17  H   LIG d   1       1.396  60.441 119.601  0.00  0.00     0.149 HD
ENDBRANCH   6  13
BRANCH   5  18
ATOM     18  N   LIG d   1       0.879  59.837 116.458  0.00  0.00     0.381 N 
ATOM     19  H   LIG d   1       0.638  59.236 115.695  0.00  0.00    -0.090 HD
ATOM     20  H   LIG d   1       1.741  59.509 116.857  0.00  0.00    -0.090 HD
ATOM     21  H   LIG d   1       0.991  60.772 116.132  0.00  0.00    -0.090 HD
ENDBRANCH   5  18
BRANCH   3  22
ATOM     22  C   LIG d   1      -3.777  59.078 117.280  0.00  0.00     0.382 C 
ATOM     23  O   LIG d   1      -4.111  60.036 116.541  0.00  0.00    -0.241 OA
ATOM     24  O   LIG d   1      -4.634  58.244 117.628  0.00  0.00    -0.241 OA
ENDBRANCH   3  22
TORSDOF 7
ENDMDL
MODEL 2
REMARK VINA RESULT:      -4.7     20.937     22.667
REMARK  7 active torsions:
REMARK  status: ('A' for Active; 'I' for Inactive)
REMARK    1  A    between atoms: C_2  and  C_3 
REMARK    2  A    between atoms: C_3  and  O_6 
REMARK    3  A    between atoms: C_3  and  C_4 
REMARK    4  A    between atoms: C_7  and  O_6 
REMARK    5  A    between atoms: C_9  and  C_10 
REMARK    6  A    between atoms: N_15  and  C_14 
REMARK    7  A    between atoms: N_20  and  C_19 
REMARK       I    between atoms: C_22  and  N_20 
ROOT
ATOM      1  C   LIG d   1      -6.431  79.642 117.743  0.00  0.00     0.161 C 
ATOM      2  C   LIG d   1      -7.739  79.195 117.991  0.00  0.00     0.016 C 
ATOM      3  C   LIG d   1      -8.769  80.034 118.476  0.00  0.00     0.038 C 
ATOM      4  C   LIG d   1      -8.598  81.420 118.603  0.00  0.00     0.028 C 
ATOM      5  C   LIG d   1      -7.150  81.832 118.845  0.00  0.00    -0.047 C 
ATOM      6  C   LIG d   1      -6.255  81.175 117.770  0.00  0.00     0.091 C 
ENDROOT
BRANCH   1   7
ATOM      7  O   LIG d   1      -5.961  79.106 116.491  0.00  0.00    -0.368 OA
BRANCH   7   8
ATOM      8  C   LIG d   1      -5.113  77.934 116.577  0.00  0.00     0.119 C 
BRANCH   8   9
ATOM      9  C   LIG d   1      -3.815  78.244 115.805  0.00  0.00     0.028 C 
ATOM     10  C   LIG d   1      -2.555  77.988 116.649  0.00  0.00     0.006 C 
ENDBRANCH   8   9
BRANCH   8  11
ATOM     11  C   LIG d   1      -5.740  76.739 115.854  0.00  0.00     0.028 C 
ATOM     12  C   LIG d   1      -5.574  75.421 116.627  0.00  0.00     0.006 C 
ENDBRANCH   8  11
ENDBRANCH   7   8
ENDBRANCH   1   7
BRANCH   6  13
ATOM     13  N   LIG d   1      -4.812  81.458 117.984  0.00  0.00    -0.311 N 
ATOM     14  C   LIG d   1      -3.980  81.807 117.003  0.00  0.00     0.210 C 
ATOM     15  C   LIG d   1      -2.529  82.034 117.437  0.00  0.00     0.109 C 
ATOM     16  O   LIG d   1      -4.314  81.982 115.822  0.00  0.00    -0.276 OA
ATOM     17  H   LIG d   1      -4.463  81.371 118.918  0.00  0.00     0.149 HD
ENDBRANCH   6  13
BRANCH   5  18
ATOM     18  N   LIG d   1      -7.096  83.306 118.820  0.00  0.00     0.381 N 
ATOM     19  H   LIG d   1      -6.568  83.639 119.602  0.00  0.00    -0.090 HD
ATOM     20  H   LIG d   1      -8.031  83.667 118.895  0.00  0.00    -0.090 HD
ATOM     21  H   LIG d   1      -6.679  83.618 117.971  0.00  0.00    -0.090 HD
ENDBRANCH   5  18
BRANCH   3  22
ATOM     22  C   LIG d   1      -9.975  79.479 118.878  0.00  0.00     0.382 C 
ATOM     23  O   LIG d   1     -10.571  79.936 119.883  0.00  0.00    -0.241 OA
ATOM     24  O   LIG d   1     -10.452  78.500 118.274  0.00  0.00    -0.241 OA
ENDBRANCH   3  22
TORSDOF 7
ENDMDL
MODEL 3
REMARK VINA RESULT:      -4.6     19.464     21.153
REMARK  7 active torsions:
REMARK  status: ('A' for Active; 'I' for Inactive)
REMARK    1  A    between atoms: C_2  and  C_3 
REMARK    2  A    between atoms: C_3  and  O_6 
REMARK    3  A    between atoms: C_3  and  C_4 
REMARK    4  A    between atoms: C_7  and  O_6 
REMARK    5  A    between atoms: C_9  and  C_10 
REMARK    6  A    between atoms: N_15  and  C_14 
REMARK    7  A    between atoms: N_20  and  C_19 
REMARK       I    between atoms: C_22  and  N_20 
ROOT
ATOM      1  C   LIG d   1      -6.497  78.058 117.769  0.00  0.00     0.161 C 
ATOM      2  C   LIG d   1      -7.884  78.203 117.937  0.00  0.00     0.016 C 
ATOM      3  C   LIG d   1      -8.543  79.454 117.925  0.00  0.00     0.038 C 
ATOM      4  C   LIG d   1      -7.874  80.641 117.591  0.00  0.00     0.028 C 
ATOM      5  C   LIG d   1      -6.383  80.607 117.911  0.00  0.00    -0.047 C 
ATOM      6  C   LIG d   1      -5.766  79.331 117.293  0.00  0.00     0.091 C 
ENDROOT
BRANCH   1   7
ATOM      7  O   LIG d   1      -6.225  76.960 116.875  0.00  0.00    -0.368 OA
BRANCH   7   8
ATOM      8  C   LIG d   1      -5.899  75.695 117.500  0.00  0.00     0.119 C 
BRANCH   8   9
ATOM      9  C   LIG d   1      -4.362  75.586 117.550  0.00  0.00     0.028 C 
ATOM     10  C   LIG d   1      -3.712  75.827 116.178  0.00  0.00     0.006 C 
ENDBRANCH   8   9
BRANCH   8  11
ATOM     11  C   LIG d   1      -6.361  74.514 116.642  0.00  0.00     0.028 C 
ATOM     12  C   LIG d   1      -7.380  73.616 117.362  0.00  0.00     0.006 C 
ENDBRANCH   8  11
ENDBRANCH   7   8
ENDBRANCH   1   7
BRANCH   6  13
ATOM     13  N   LIG d   1      -4.327  79.176 117.630  0.00  0.00    -0.311 N 
ATOM     14  C   LIG d   1      -3.341  79.629 116.858  0.00  0.00     0.210 C 
ATOM     15  C   LIG d   1      -1.929  79.347 117.381  0.00  0.00     0.109 C 
ATOM     16  O   LIG d   1      -3.501  80.265 115.805  0.00  0.00    -0.276 OA
ATOM     17  H   LIG d   1      -4.107  78.699 118.482  0.00  0.00     0.149 HD
ENDBRANCH   6  13
BRANCH   5  18
ATOM     18  N   LIG d   1      -5.786  81.850 117.387  0.00  0.00     0.381 N 
ATOM     19  H   LIG d   1      -5.628  82.492 118.137  0.00  0.00    -0.090 HD
ATOM     20  H   LIG d   1      -6.429  82.272 116.740  0.00  0.00    -0.090 HD
ATOM     21  H   LIG d   1      -4.926  81.647 116.927  0.00  0.00    -0.090 HD
ENDBRANCH   5  18
BRANCH   3  22
ATOM     22  C   LIG d   1      -9.878  79.531 118.289  0.00  0.00     0.382 C 
ATOM     23  O   LIG d   1     -10.471  78.511 118.718  0.00  0.00    -0.241 OA
ATOM     24  O   LIG d   1     -10.510  80.595 118.151  0.00  0.00    -0.241 OA
ENDBRANCH   3  22
TORSDOF 7
ENDMDL
MODEL 4
REMARK VINA RESULT:      -4.4      2.496      4.386
REMARK  7 active torsions:
REMARK  status: ('A' for Active; 'I' for Inactive)
REMARK    1  A    between atoms: C_2  and  C_3 
REMARK    2  A    between atoms: C_3  and  O_6 
REMARK    3  A    between atoms: C_3  and  C_4 
REMARK    4  A    between atoms: C_7  and  O_6 
REMARK    5  A    between atoms: C_9  and  C_10 
REMARK    6  A    between atoms: N_15  and  C_14 
REMARK    7  A    between atoms: N_20  and  C_19 
REMARK       I    between atoms: C_22  and  N_20 
ROOT
ATOM      1  C   LIG d   1      -0.091  57.577 118.407  0.00  0.00     0.161 C 
ATOM      2  C   LIG d   1      -1.116  58.517 118.206  0.00  0.00     0.016 C 
ATOM      3  C   LIG d   1      -2.473  58.162 118.025  0.00  0.00     0.038 C 
ATOM      4  C   LIG d   1      -2.922  56.843 118.184  0.00  0.00     0.028 C 
ATOM      5  C   LIG d   1      -1.851  55.799 117.887  0.00  0.00    -0.047 C 
ATOM      6  C   LIG d   1      -0.578  56.141 118.694  0.00  0.00     0.091 C 
ENDROOT
BRANCH   1   7
ATOM      7  O   LIG d   1       0.787  58.027 119.457  0.00  0.00    -0.368 OA
BRANCH   7   8
ATOM      8  C   LIG d   1       1.227  59.405 119.372  0.00  0.00     0.119 C 
BRANCH   8   9
ATOM      9  C   LIG d   1       2.513  59.428 118.524  0.00  0.00     0.028 C 
ATOM     10  C   LIG d   1       3.671  60.150 119.233  0.00  0.00     0.006 C 
ENDBRANCH   8   9
BRANCH   8  11
ATOM     11  C   LIG d   1       1.638  59.944 120.746  0.00  0.00     0.028 C 
ATOM     12  C   LIG d   1       0.442  60.139 121.691  0.00  0.00     0.006 C 
ENDBRANCH   8  11
ENDBRANCH   7   8
ENDBRANCH   1   7
BRANCH   6  13
ATOM     13  N   LIG d   1       0.547  55.216 118.397  0.00  0.00    -0.311 N 
ATOM     14  C   LIG d   1       1.091  54.409 119.305  0.00  0.00     0.210 C 
ATOM     15  C   LIG d   1       2.254  53.552 118.794  0.00  0.00     0.109 C 
ATOM     16  O   LIG d   1       0.701  54.297 120.477  0.00  0.00    -0.276 OA
ATOM     17  H   LIG d   1       0.905  55.220 117.462  0.00  0.00     0.149 HD
ENDBRANCH   6  13
BRANCH   5  18
ATOM     18  N   LIG d   1      -2.412  54.477 118.224  0.00  0.00     0.381 N 
ATOM     19  H   LIG d   1      -2.318  54.310 119.206  0.00  0.00    -0.090 HD
ATOM     20  H   LIG d   1      -1.895  53.769 117.733  0.00  0.00    -0.090 HD
ATOM     21  H   LIG d   1      -3.373  54.437 117.964  0.00  0.00    -0.090 HD
ENDBRANCH   5  18
BRANCH   3  22
ATOM     22  C   LIG d   1      -3.390  59.129 117.642  0.00  0.00     0.382 C 
ATOM     23  O   LIG d   1      -4.590  58.815 117.454  0.00  0.00    -0.241 OA
ATOM     24  O   LIG d   1      -3.024  60.302 117.439  0.00  0.00    -0.241 OA
ENDBRANCH   3  22
TORSDOF 7
ENDMDL
MODEL 5
REMARK VINA RESULT:      -4.4     20.497     22.157
REMARK  7 active torsions:
REMARK  status: ('A' for Active; 'I' for Inactive)
REMARK    1  A    between atoms: C_2  and  C_3 
REMARK    2  A    between atoms: C_3  and  O_6 
REMARK    3  A    between atoms: C_3  and  C_4 
REMARK    4  A    between atoms: C_7  and  O_6 
REMARK    5  A    between atoms: C_9  and  C_10 
REMARK    6  A    between atoms: N_15  and  C_14 
REMARK    7  A    between atoms: N_20  and  C_19 
REMARK       I    between atoms: C_22  and  N_20 
ROOT
ATOM      1  C   LIG d   1      -6.230  79.237 117.483  0.00  0.00     0.161 C 
ATOM      2  C   LIG d   1      -7.624  79.127 117.613  0.00  0.00     0.016 C 
ATOM      3  C   LIG d   1      -8.453  80.192 118.036  0.00  0.00     0.038 C 
ATOM      4  C   LIG d   1      -7.957  81.492 118.213  0.00  0.00     0.028 C 
ATOM      5  C   LIG d   1      -6.477  81.530 118.582  0.00  0.00    -0.047 C 
ATOM      6  C   LIG d   1      -5.684  80.678 117.566  0.00  0.00     0.091 C 
ENDROOT
BRANCH   1   7
ATOM      7  O   LIG d   1      -5.802  78.609 116.258  0.00  0.00    -0.368 OA
BRANCH   7   8
ATOM      8  C   LIG d   1      -5.129  77.333 116.398  0.00  0.00     0.119 C 
BRANCH   8   9
ATOM      9  C   LIG d   1      -6.129  76.235 115.986  0.00  0.00     0.028 C 
ATOM     10  C   LIG d   1      -6.684  75.463 117.195  0.00  0.00     0.006 C 
ENDBRANCH   8   9
BRANCH   8  11
ATOM     11  C   LIG d   1      -4.786  77.041 117.862  0.00  0.00     0.028 C 
ATOM     12  C   LIG d   1      -3.272  77.015 118.125  0.00  0.00     0.006 C 
ENDBRANCH   8  11
ENDBRANCH   7   8
ENDBRANCH   1   7
BRANCH   6  13
ATOM     13  N   LIG d   1      -4.239  80.593 117.902  0.00  0.00    -0.311 N 
ATOM     14  C   LIG d   1      -3.267  80.739 117.003  0.00  0.00     0.210 C 
ATOM     15  C   LIG d   1      -1.847  80.595 117.558  0.00  0.00     0.109 C 
ATOM     16  O   LIG d   1      -3.446  81.006 115.805  0.00  0.00    -0.276 OA
ATOM     17  H   LIG d   1      -4.003  80.410 118.858  0.00  0.00     0.149 HD
ENDBRANCH   6  13
BRANCH   5  18
ATOM     18  N   LIG d   1      -6.060  82.945 118.602  0.00  0.00     0.381 N 
ATOM     19  H   LIG d   1      -6.691  83.492 118.051  0.00  0.00    -0.090 HD
ATOM     20  H   LIG d   1      -5.143  83.019 118.196  0.00  0.00    -0.090 HD
ATOM     21  H   LIG d   1      -6.045  83.283 119.538  0.00  0.00    -0.090 HD
ENDBRANCH   5  18
BRANCH   3  22
ATOM     22  C   LIG d   1      -9.788  79.951 118.324  0.00  0.00     0.382 C 
ATOM     23  O   LIG d   1     -10.543  80.903 118.638  0.00  0.00    -0.241 OA
ATOM     24  O   LIG d   1     -10.236  78.789 118.316  0.00  0.00    -0.241 OA
ENDBRANCH   3  22
TORSDOF 7
ENDMDL
MODEL 6
REMARK VINA RESULT:      -4.3     14.066     17.083
REMARK  7 active torsions:
REMARK  status: ('A' for Active; 'I' for Inactive)
REMARK    1  A    between atoms: C_2  and  C_3 
REMARK    2  A    between atoms: C_3  and  O_6 
REMARK    3  A    between atoms: C_3  and  C_4 
REMARK    4  A    between atoms: C_7  and  O_6 
REMARK    5  A    between atoms: C_9  and  C_10 
REMARK    6  A    between atoms: N_15  and  C_14 
REMARK    7  A    between atoms: N_20  and  C_19 
REMARK       I    between atoms: C_22  and  N_20 
ROOT
ATOM      1  C   LIG d   1     -15.420  65.395 119.177  0.00  0.00     0.161 C 
ATOM      2  C   LIG d   1     -14.528  65.777 120.193  0.00  0.00     0.016 C 
ATOM      3  C   LIG d   1     -13.630  64.881 120.818  0.00  0.00     0.038 C 
ATOM      4  C   LIG d   1     -13.458  63.566 120.362  0.00  0.00     0.028 C 
ATOM      5  C   LIG d   1     -14.694  62.996 119.674  0.00  0.00    -0.047 C 
ATOM      6  C   LIG d   1     -15.168  63.990 118.590  0.00  0.00     0.091 C 
ENDROOT
BRANCH   1   7
ATOM      7  O   LIG d   1     -15.420  66.384 118.129  0.00  0.00    -0.368 OA
BRANCH   7   8
ATOM      8  C   LIG d   1     -16.622  67.184 118.006  0.00  0.00     0.119 C 
BRANCH   8   9
ATOM      9  C   LIG d   1     -16.749  67.605 116.529  0.00  0.00     0.028 C 
ATOM     10  C   LIG d   1     -15.851  68.804 116.181  0.00  0.00     0.006 C 
ENDBRANCH   8   9
BRANCH   8  11
ATOM     11  C   LIG d   1     -16.502  68.493 118.792  0.00  0.00     0.028 C 
ATOM     12  C   LIG d   1     -17.401  68.523 120.039  0.00  0.00     0.006 C 
ENDBRANCH   8  11
ENDBRANCH   7   8
ENDBRANCH   1   7
BRANCH   6  13
ATOM     13  N   LIG d   1     -16.423  63.549 117.926  0.00  0.00    -0.311 N 
ATOM     14  C   LIG d   1     -16.646  63.681 116.620  0.00  0.00     0.210 C 
ATOM     15  C   LIG d   1     -18.013  63.179 116.144  0.00  0.00     0.109 C 
ATOM     16  O   LIG d   1     -15.830  64.136 115.805  0.00  0.00    -0.276 OA
ATOM     17  H   LIG d   1     -17.127  63.140 118.508  0.00  0.00     0.149 HD
ENDBRANCH   6  13
BRANCH   5  18
ATOM     18  N   LIG d   1     -14.331  61.675 119.128  0.00  0.00     0.381 N 
ATOM     19  H   LIG d   1     -13.448  61.386 119.499  0.00  0.00    -0.090 HD
ATOM     20  H   LIG d   1     -14.245  61.748 118.130  0.00  0.00    -0.090 HD
ATOM     21  H   LIG d   1     -15.032  61.006 119.360  0.00  0.00    -0.090 HD
ENDBRANCH   5  18
BRANCH   3  22
ATOM     22  C   LIG d   1     -12.922  65.288 121.938  0.00  0.00     0.382 C 
ATOM     23  O   LIG d   1     -13.200  66.378 122.495  0.00  0.00    -0.241 OA
ATOM     24  O   LIG d   1     -11.979  64.600 122.374  0.00  0.00    -0.241 OA
ENDBRANCH   3  22
TORSDOF 7
ENDMDL
MODEL 7
REMARK VINA RESULT:      -4.2     23.398     25.172
REMARK  7 active torsions:
REMARK  status: ('A' for Active; 'I' for Inactive)
REMARK    1  A    between atoms: C_2  and  C_3 
REMARK    2  A    between atoms: C_3  and  O_6 
REMARK    3  A    between atoms: C_3  and  C_4 
REMARK    4  A    between atoms: C_7  and  O_6 
REMARK    5  A    between atoms: C_9  and  C_10 
REMARK    6  A    between atoms: N_15  and  C_14 
REMARK    7  A    between atoms: N_20  and  C_19 
REMARK       I    between atoms: C_22  and  N_20 
ROOT
ATOM      1  C   LIG d   1      -7.165  82.069 119.175  0.00  0.00     0.161 C 
ATOM      2  C   LIG d   1      -7.136  80.747 118.701  0.00  0.00     0.016 C 
ATOM      3  C   LIG d   1      -8.238  80.119 118.076  0.00  0.00     0.038 C 
ATOM      4  C   LIG d   1      -9.403  80.826 117.745  0.00  0.00     0.028 C 
ATOM      5  C   LIG d   1      -9.667  82.021 118.656  0.00  0.00    -0.047 C 
ATOM      6  C   LIG d   1      -8.391  82.891 118.723  0.00  0.00     0.091 C 
ENDROOT
BRANCH   1   7
ATOM      7  O   LIG d   1      -5.946  82.746 118.812  0.00  0.00    -0.368 OA
BRANCH   7   8
ATOM      8  C   LIG d   1      -4.840  82.608 119.737  0.00  0.00     0.119 C 
BRANCH   8   9
ATOM      9  C   LIG d   1      -5.064  83.618 120.880  0.00  0.00     0.028 C 
ATOM     10  C   LIG d   1      -3.975  84.703 120.926  0.00  0.00     0.006 C 
ENDBRANCH   8   9
BRANCH   8  11
ATOM     11  C   LIG d   1      -3.515  83.019 119.087  0.00  0.00     0.028 C 
ATOM     12  C   LIG d   1      -3.372  82.500 117.648  0.00  0.00     0.006 C 
ENDBRANCH   8  11
ENDBRANCH   7   8
ENDBRANCH   1   7
BRANCH   6  13
ATOM     13  N   LIG d   1      -8.535  84.036 119.660  0.00  0.00    -0.311 N 
ATOM     14  C   LIG d   1      -8.747  83.892 120.967  0.00  0.00     0.210 C 
ATOM     15  C   LIG d   1      -8.885  85.202 121.748  0.00  0.00     0.109 C 
ATOM     16  O   LIG d   1      -8.801  82.803 121.559  0.00  0.00    -0.276 OA
ATOM     17  H   LIG d   1      -8.472  84.955 119.269  0.00  0.00     0.149 HD
ENDBRANCH   6  13
BRANCH   5  18
ATOM     18  N   LIG d   1     -10.832  82.745 118.114  0.00  0.00     0.381 N 
ATOM     19  H   LIG d   1     -11.029  83.543 118.684  0.00  0.00    -0.090 HD
ATOM     20  H   LIG d   1     -11.632  82.137 118.136  0.00  0.00    -0.090 HD
ATOM     21  H   LIG d   1     -10.650  83.033 117.178  0.00  0.00    -0.090 HD
ENDBRANCH   5  18
BRANCH   3  22
ATOM     22  C   LIG d   1      -8.195  78.759 117.812  0.00  0.00     0.382 C 
ATOM     23  O   LIG d   1      -7.231  78.275 117.170  0.00  0.00    -0.241 OA
ATOM     24  O   LIG d   1      -9.129  78.016 118.168  0.00  0.00    -0.241 OA
ENDBRANCH   3  22
TORSDOF 7
ENDMDL
MODEL 8
REMARK VINA RESULT:      -4.0     20.380     22.273
REMARK  7 active torsions:
REMARK  status: ('A' for Active; 'I' for Inactive)
REMARK    1  A    between atoms: C_2  and  C_3 
REMARK    2  A    between atoms: C_3  and  O_6 
REMARK    3  A    between atoms: C_3  and  C_4 
REMARK    4  A    between atoms: C_7  and  O_6 
REMARK    5  A    between atoms: C_9  and  C_10 
REMARK    6  A    between atoms: N_15  and  C_14 
REMARK    7  A    between atoms: N_20  and  C_19 
REMARK       I    between atoms: C_22  and  N_20 
ROOT
ATOM      1  C   LIG d   1      -6.166  79.689 117.447  0.00  0.00     0.161 C 
ATOM      2  C   LIG d   1      -7.479  79.949 117.873  0.00  0.00     0.016 C 
ATOM      3  C   LIG d   1      -8.465  78.946 118.013  0.00  0.00     0.038 C 
ATOM      4  C   LIG d   1      -8.160  77.583 117.879  0.00  0.00     0.028 C 
ATOM      5  C   LIG d   1      -6.975  77.315 116.958  0.00  0.00    -0.047 C 
ATOM      6  C   LIG d   1      -5.784  78.194 117.403  0.00  0.00     0.091 C 
ENDROOT
BRANCH   1   7
ATOM      7  O   LIG d   1      -5.232  80.420 118.265  0.00  0.00    -0.368 OA
BRANCH   7   8
ATOM      8  C   LIG d   1      -4.740  81.666 117.712  0.00  0.00     0.119 C 
BRANCH   8   9
ATOM      9  C   LIG d   1      -3.359  81.384 117.091  0.00  0.00     0.028 C 
ATOM     10  C   LIG d   1      -3.102  82.220 115.826  0.00  0.00     0.006 C 
ENDBRANCH   8   9
BRANCH   8  11
ATOM     11  C   LIG d   1      -4.487  82.702 118.812  0.00  0.00     0.028 C 
ATOM     12  C   LIG d   1      -5.654  82.812 119.806  0.00  0.00     0.006 C 
ENDBRANCH   8  11
ENDBRANCH   7   8
ENDBRANCH   1   7
BRANCH   6  13
ATOM     13  N   LIG d   1      -4.610  78.056 116.503  0.00  0.00    -0.311 N 
ATOM     14  C   LIG d   1      -3.428  77.591 116.906  0.00  0.00     0.210 C 
ATOM     15  C   LIG d   1      -2.347  77.549 115.822  0.00  0.00     0.109 C 
ATOM     16  O   LIG d   1      -3.183  77.180 118.050  0.00  0.00    -0.276 OA
ATOM     17  H   LIG d   1      -4.730  78.337 115.550  0.00  0.00     0.149 HD
ENDBRANCH   6  13
BRANCH   5  18
ATOM     18  N   LIG d   1      -6.682  75.870 117.018  0.00  0.00     0.381 N 
ATOM     19  H   LIG d   1      -7.383  75.361 116.517  0.00  0.00    -0.090 HD
ATOM     20  H   LIG d   1      -6.702  75.574 117.978  0.00  0.00    -0.090 HD
ATOM     21  H   LIG d   1      -5.784  75.688 116.625  0.00  0.00    -0.090 HD
ENDBRANCH   5  18
BRANCH   3  22
ATOM     22  C   LIG d   1      -9.783  79.306 118.251  0.00  0.00     0.382 C 
ATOM     23  O   LIG d   1     -10.558  78.503 118.823  0.00  0.00    -0.241 OA
ATOM     24  O   LIG d   1     -10.217  80.406 117.861  0.00  0.00    -0.241 OA
ENDBRANCH   3  22
TORSDOF 7
ENDMDL
MODEL 9
REMARK VINA RESULT:      -4.0     19.568     21.581
REMARK  7 active torsions:
REMARK  status: ('A' for Active; 'I' for Inactive)
REMARK    1  A    between atoms: C_2  and  C_3 
REMARK    2  A    between atoms: C_3  and  O_6 
REMARK    3  A    between atoms: C_3  and  C_4 
REMARK    4  A    between atoms: C_7  and  O_6 
REMARK    5  A    between atoms: C_9  and  C_10 
REMARK    6  A    between atoms: N_15  and  C_14 
REMARK    7  A    between atoms: N_20  and  C_19 
REMARK       I    between atoms: C_22  and  N_20 
ROOT
ATOM      1  C   LIG d   1      -5.479  78.299 117.195  0.00  0.00     0.161 C 
ATOM      2  C   LIG d   1      -5.472  76.935 116.860  0.00  0.00     0.016 C 
ATOM      3  C   LIG d   1      -6.623  76.115 116.912  0.00  0.00     0.038 C 
ATOM      4  C   LIG d   1      -7.899  76.643 117.161  0.00  0.00     0.028 C 
ATOM      5  C   LIG d   1      -7.874  77.917 117.999  0.00  0.00    -0.047 C 
ATOM      6  C   LIG d   1      -6.883  78.917 117.362  0.00  0.00     0.091 C 
ENDROOT
BRANCH   1   7
ATOM      7  O   LIG d   1      -4.714  79.044 116.227  0.00  0.00    -0.368 OA
BRANCH   7   8
ATOM      8  C   LIG d   1      -3.455  79.588 116.691  0.00  0.00     0.119 C 
BRANCH   8   9
ATOM      9  C   LIG d   1      -3.521  81.119 116.524  0.00  0.00     0.028 C 
ATOM     10  C   LIG d   1      -2.854  81.867 117.690  0.00  0.00     0.006 C 
ENDBRANCH   8   9
BRANCH   8  11
ATOM     11  C   LIG d   1      -2.291  79.134 115.805  0.00  0.00     0.028 C 
ATOM     12  C   LIG d   1      -1.856  77.687 116.088  0.00  0.00     0.006 C 
ENDBRANCH   8  11
ENDBRANCH   7   8
ENDBRANCH   1   7
BRANCH   6  13
ATOM     13  N   LIG d   1      -6.735  80.159 118.166  0.00  0.00    -0.311 N 
ATOM     14  C   LIG d   1      -6.888  81.382 117.661  0.00  0.00     0.210 C 
ATOM     15  C   LIG d   1      -6.672  82.525 118.658  0.00  0.00     0.109 C 
ATOM     16  O   LIG d   1      -7.213  81.628 116.490  0.00  0.00    -0.276 OA
ATOM     17  H   LIG d   1      -6.502  80.050 119.133  0.00  0.00     0.149 HD
ENDBRANCH   6  13
BRANCH   5  18
ATOM     18  N   LIG d   1      -9.254  78.434 118.065  0.00  0.00     0.381 N 
ATOM     19  H   LIG d   1      -9.902  77.695 117.875  0.00  0.00    -0.090 HD
ATOM     20  H   LIG d   1      -9.370  79.143 117.362  0.00  0.00    -0.090 HD
ATOM     21  H   LIG d   1      -9.432  78.817 118.967  0.00  0.00    -0.090 HD
ENDBRANCH   5  18
BRANCH   3  22
ATOM     22  C   LIG d   1      -6.497  74.743 116.754  0.00  0.00     0.382 C 
ATOM     23  O   LIG d   1      -7.276  73.968 117.360  0.00  0.00    -0.241 OA
ATOM     24  O   LIG d   1      -5.587  74.270 116.047  0.00  0.00    -0.241 OA
ENDBRANCH   3  22
TORSDOF 7
ENDMDL
