MODEL 1
REMARK VINA RESULT:      -5.1      0.000      0.000
REMARK  7 active torsions:
REMARK  status: ('A' for Active; 'I' for Inactive)
REMARK    1  A    between atoms: C_2  and  C_3 
REMARK    2  A    between atoms: C_3  and  O_6 
REMARK    3  A    between atoms: C_3  and  C_4 
REMARK    4  A    between atoms: C_7  and  O_6 
REMARK    5  A    between atoms: C_9  and  C_10 
REMARK    6  A    between atoms: N_15  and  C_14 
REMARK    7  A    between atoms: N_20  and  C_19 
REMARK       I    between atoms: C_22  and  N_20 
ROOT
ATOM      1  C   LIG d   1      -9.072  81.905 120.275  0.00  0.00     0.161 C 
ATOM      2  C   LIG d   1      -9.639  83.063 120.831  0.00  0.00     0.016 C 
ATOM      3  C   LIG d   1     -10.367  84.012 120.077  0.00  0.00     0.038 C 
ATOM      4  C   LIG d   1     -10.708  83.789 118.735  0.00  0.00     0.028 C 
ATOM      5  C   LIG d   1      -9.728  82.877 118.004  0.00  0.00    -0.047 C 
ATOM      6  C   LIG d   1      -9.528  81.588 118.835  0.00  0.00     0.091 C 
ENDROOT
BRANCH   1   7
ATOM      7  O   LIG d   1      -9.319  80.777 121.137  0.00  0.00    -0.368 OA
BRANCH   7   8
ATOM      8  C   LIG d   1      -8.160  80.218 121.803  0.00  0.00     0.119 C 
BRANCH   8   9
ATOM      9  C   LIG d   1      -6.920  80.973 121.286  0.00  0.00     0.028 C 
ATOM     10  C   LIG d   1      -5.878  80.030 120.660  0.00  0.00     0.006 C 
ENDBRANCH   8   9
BRANCH   8  11
ATOM     11  C   LIG d   1      -7.940  78.756 121.405  0.00  0.00     0.028 C 
ATOM     12  C   LIG d   1      -8.225  77.776 122.555  0.00  0.00     0.006 C 
ENDBRANCH   8  11
ENDBRANCH   7   8
ENDBRANCH   1   7
BRANCH   6  13
ATOM     13  N   LIG d   1      -8.519  80.678 118.233  0.00  0.00    -0.311 N 
ATOM     14  C   LIG d   1      -8.745  79.386 117.998  0.00  0.00     0.210 C 
ATOM     15  C   LIG d   1      -7.564  78.623 117.391  0.00  0.00     0.109 C 
ATOM     16  O   LIG d   1      -9.823  78.808 118.203  0.00  0.00    -0.276 OA
ATOM     17  H   LIG d   1      -7.627  81.071 118.006  0.00  0.00     0.149 HD
ENDBRANCH   6  13
BRANCH   5  18
ATOM     18  N   LIG d   1     -10.277  82.619 116.660  0.00  0.00     0.381 N 
ATOM     19  H   LIG d   1      -9.715  83.078 115.971  0.00  0.00    -0.090 HD
ATOM     20  H   LIG d   1     -11.207  82.995 116.610  0.00  0.00    -0.090 HD
ATOM     21  H   LIG d   1     -10.298  81.638 116.482  0.00  0.00    -0.090 HD
ENDBRANCH   5  18
BRANCH   3  22
ATOM     22  C   LIG d   1     -10.728  85.219 120.656  0.00  0.00     0.382 C 
ATOM     23  O   LIG d   1      -9.846  86.058 120.959  0.00  0.00    -0.241 OA
ATOM     24  O   LIG d   1     -11.921  85.461 120.920  0.00  0.00    -0.241 OA
ENDBRANCH   3  22
TORSDOF 7
ENDMDL
MODEL 2
REMARK VINA RESULT:      -5.0     10.641     13.107
REMARK  7 active torsions:
REMARK  status: ('A' for Active; 'I' for Inactive)
REMARK    1  A    between atoms: C_2  and  C_3 
REMARK    2  A    between atoms: C_3  and  O_6 
REMARK    3  A    between atoms: C_3  and  C_4 
REMARK    4  A    between atoms: C_7  and  O_6 
REMARK    5  A    between atoms: C_9  and  C_10 
REMARK    6  A    between atoms: N_15  and  C_14 
REMARK    7  A    between atoms: N_20  and  C_19 
REMARK       I    between atoms: C_22  and  N_20 
ROOT
ATOM      1  C   LIG d   1      -5.111  92.762 118.902  0.00  0.00     0.161 C 
ATOM      2  C   LIG d   1      -5.427  91.819 117.910  0.00  0.00     0.016 C 
ATOM      3  C   LIG d   1      -6.513  91.963 117.016  0.00  0.00     0.038 C 
ATOM      4  C   LIG d   1      -7.271  93.142 116.955  0.00  0.00     0.028 C 
ATOM      5  C   LIG d   1      -7.307  93.908 118.273  0.00  0.00    -0.047 C 
ATOM      6  C   LIG d   1      -5.859  94.106 118.778  0.00  0.00     0.091 C 
ENDROOT
BRANCH   1   7
ATOM      7  O   LIG d   1      -3.687  92.982 118.932  0.00  0.00    -0.368 OA
BRANCH   7   8
ATOM      8  C   LIG d   1      -2.863  91.886 118.463  0.00  0.00     0.119 C 
BRANCH   8   9
ATOM      9  C   LIG d   1      -2.592  90.964 119.667  0.00  0.00     0.028 C 
ATOM     10  C   LIG d   1      -2.799  89.478 119.327  0.00  0.00     0.006 C 
ENDBRANCH   8   9
BRANCH   8  11
ATOM     11  C   LIG d   1      -1.485  92.379 118.011  0.00  0.00     0.028 C 
ATOM     12  C   LIG d   1      -1.486  93.861 117.606  0.00  0.00     0.006 C 
ENDBRANCH   8  11
ENDBRANCH   7   8
ENDBRANCH   1   7
BRANCH   6  13
ATOM     13  N   LIG d   1      -5.807  94.774 120.105  0.00  0.00    -0.311 N 
ATOM     14  C   LIG d   1      -5.632  96.085 120.259  0.00  0.00     0.210 C 
ATOM     15  C   LIG d   1      -5.589  96.564 121.714  0.00  0.00     0.109 C 
ATOM     16  O   LIG d   1      -5.539  96.900 119.330  0.00  0.00    -0.276 OA
ATOM     17  H   LIG d   1      -5.905  94.191 120.913  0.00  0.00     0.149 HD
ENDBRANCH   6  13
BRANCH   5  18
ATOM     18  N   LIG d   1      -8.013  95.180 118.030  0.00  0.00     0.381 N 
ATOM     19  H   LIG d   1      -8.996  95.054 118.169  0.00  0.00    -0.090 HD
ATOM     20  H   LIG d   1      -7.863  95.459 117.077  0.00  0.00    -0.090 HD
ATOM     21  H   LIG d   1      -7.671  95.884 118.648  0.00  0.00    -0.090 HD
ENDBRANCH   5  18
BRANCH   3  22
ATOM     22  C   LIG d   1      -6.875  90.904 116.198  0.00  0.00     0.382 C 
ATOM     23  O   LIG d   1      -8.078  90.738 115.883  0.00  0.00    -0.241 OA
ATOM     24  O   LIG d   1      -6.020  90.087 115.806  0.00  0.00    -0.241 OA
ENDBRANCH   3  22
TORSDOF 7
ENDMDL
MODEL 3
REMARK VINA RESULT:      -4.9     10.999     12.970
REMARK  7 active torsions:
REMARK  status: ('A' for Active; 'I' for Inactive)
REMARK    1  A    between atoms: C_2  and  C_3 
REMARK    2  A    between atoms: C_3  and  O_6 
REMARK    3  A    between atoms: C_3  and  C_4 
REMARK    4  A    between atoms: C_7  and  O_6 
REMARK    5  A    between atoms: C_9  and  C_10 
REMARK    6  A    between atoms: N_15  and  C_14 
REMARK    7  A    between atoms: N_20  and  C_19 
REMARK       I    between atoms: C_22  and  N_20 
ROOT
ATOM      1  C   LIG d   1      -5.845  92.766 119.097  0.00  0.00     0.161 C 
ATOM      2  C   LIG d   1      -7.131  93.237 118.785  0.00  0.00     0.016 C 
ATOM      3  C   LIG d   1      -7.447  94.610 118.656  0.00  0.00     0.038 C 
ATOM      4  C   LIG d   1      -6.457  95.604 118.681  0.00  0.00     0.028 C 
ATOM      5  C   LIG d   1      -5.227  95.214 119.494  0.00  0.00    -0.047 C 
ATOM      6  C   LIG d   1      -4.730  93.830 119.018  0.00  0.00     0.091 C 
ENDROOT
BRANCH   1   7
ATOM      7  O   LIG d   1      -5.522  91.638 118.259  0.00  0.00    -0.368 OA
BRANCH   7   8
ATOM      8  C   LIG d   1      -4.727  91.926 117.082  0.00  0.00     0.119 C 
BRANCH   8   9
ATOM      9  C   LIG d   1      -5.670  91.875 115.864  0.00  0.00     0.028 C 
ATOM     10  C   LIG d   1      -6.748  90.786 116.001  0.00  0.00     0.006 C 
ENDBRANCH   8   9
BRANCH   8  11
ATOM     11  C   LIG d   1      -3.684  90.833 116.833  0.00  0.00     0.028 C 
ATOM     12  C   LIG d   1      -3.216  90.150 118.128  0.00  0.00     0.006 C 
ENDBRANCH   8  11
ENDBRANCH   7   8
ENDBRANCH   1   7
BRANCH   6  13
ATOM     13  N   LIG d   1      -3.579  93.335 119.818  0.00  0.00    -0.311 N 
ATOM     14  C   LIG d   1      -2.308  93.502 119.456  0.00  0.00     0.210 C 
ATOM     15  C   LIG d   1      -1.278  92.897 120.414  0.00  0.00     0.109 C 
ATOM     16  O   LIG d   1      -1.936  94.122 118.448  0.00  0.00    -0.276 OA
ATOM     17  H   LIG d   1      -3.790  92.848 120.667  0.00  0.00     0.149 HD
ENDBRANCH   6  13
BRANCH   5  18
ATOM     18  N   LIG d   1      -4.223  96.280 119.322  0.00  0.00     0.381 N 
ATOM     19  H   LIG d   1      -3.451  95.935 118.786  0.00  0.00    -0.090 HD
ATOM     20  H   LIG d   1      -3.881  96.554 120.226  0.00  0.00    -0.090 HD
ATOM     21  H   LIG d   1      -4.632  97.063 118.862  0.00  0.00    -0.090 HD
ENDBRANCH   5  18
BRANCH   3  22
ATOM     22  C   LIG d   1      -8.772  95.002 118.540  0.00  0.00     0.382 C 
ATOM     23  O   LIG d   1      -9.273  95.777 119.389  0.00  0.00    -0.241 OA
ATOM     24  O   LIG d   1      -9.484  94.555 117.621  0.00  0.00    -0.241 OA
ENDBRANCH   3  22
TORSDOF 7
ENDMDL
MODEL 4
REMARK VINA RESULT:      -4.9      2.480      5.113
REMARK  7 active torsions:
REMARK  status: ('A' for Active; 'I' for Inactive)
REMARK    1  A    between atoms: C_2  and  C_3 
REMARK    2  A    between atoms: C_3  and  O_6 
REMARK    3  A    between atoms: C_3  and  C_4 
REMARK    4  A    between atoms: C_7  and  O_6 
REMARK    5  A    between atoms: C_9  and  C_10 
REMARK    6  A    between atoms: N_15  and  C_14 
REMARK    7  A    between atoms: N_20  and  C_19 
REMARK       I    between atoms: C_22  and  N_20 
ROOT
ATOM      1  C   LIG d   1      -7.955  82.612 119.659  0.00  0.00     0.161 C 
ATOM      2  C   LIG d   1      -7.901  81.286 119.196  0.00  0.00     0.016 C 
ATOM      3  C   LIG d   1      -8.867  80.724 118.331  0.00  0.00     0.038 C 
ATOM      4  C   LIG d   1      -9.879  81.500 117.746  0.00  0.00     0.028 C 
ATOM      5  C   LIG d   1     -10.268  82.717 118.579  0.00  0.00    -0.047 C 
ATOM      6  C   LIG d   1      -8.990  83.505 118.944  0.00  0.00     0.091 C 
ENDROOT
BRANCH   1   7
ATOM      7  O   LIG d   1      -6.644  83.208 119.589  0.00  0.00    -0.368 OA
BRANCH   7   8
ATOM      8  C   LIG d   1      -5.954  83.380 120.851  0.00  0.00     0.119 C 
BRANCH   8   9
ATOM      9  C   LIG d   1      -5.952  84.886 121.176  0.00  0.00     0.028 C 
ATOM     10  C   LIG d   1      -4.531  85.441 121.376  0.00  0.00     0.006 C 
ENDBRANCH   8   9
BRANCH   8  11
ATOM     11  C   LIG d   1      -4.478  82.987 120.737  0.00  0.00     0.028 C 
ATOM     12  C   LIG d   1      -4.282  81.548 120.235  0.00  0.00     0.006 C 
ENDBRANCH   8  11
ENDBRANCH   7   8
ENDBRANCH   1   7
BRANCH   6  13
ATOM     13  N   LIG d   1      -9.272  84.664 119.829  0.00  0.00    -0.311 N 
ATOM     14  C   LIG d   1      -9.868  84.553 121.015  0.00  0.00     0.210 C 
ATOM     15  C   LIG d   1     -10.082  85.876 121.758  0.00  0.00     0.109 C 
ATOM     16  O   LIG d   1     -10.211  83.481 121.536  0.00  0.00    -0.276 OA
ATOM     17  H   LIG d   1      -8.998  85.569 119.498  0.00  0.00     0.149 HD
ENDBRANCH   6  13
BRANCH   5  18
ATOM     18  N   LIG d   1     -11.230  83.508 117.790  0.00  0.00     0.381 N 
ATOM     19  H   LIG d   1     -12.054  83.678 118.331  0.00  0.00    -0.090 HD
ATOM     20  H   LIG d   1     -11.492  82.983 116.974  0.00  0.00    -0.090 HD
ATOM     21  H   LIG d   1     -10.818  84.374 117.519  0.00  0.00    -0.090 HD
ENDBRANCH   5  18
BRANCH   3  22
ATOM     22  C   LIG d   1      -8.851  79.362 118.074  0.00  0.00     0.382 C 
ATOM     23  O   LIG d   1      -7.783  78.802 117.728  0.00  0.00    -0.241 OA
ATOM     24  O   LIG d   1      -9.900  78.694 118.142  0.00  0.00    -0.241 OA
ENDBRANCH   3  22
TORSDOF 7
ENDMDL
MODEL 5
REMARK VINA RESULT:      -4.8     10.497     12.166
REMARK  7 active torsions:
REMARK  status: ('A' for Active; 'I' for Inactive)
REMARK    1  A    between atoms: C_2  and  C_3 
REMARK    2  A    between atoms: C_3  and  O_6 
REMARK    3  A    between atoms: C_3  and  C_4 
REMARK    4  A    between atoms: C_7  and  O_6 
REMARK    5  A    between atoms: C_9  and  C_10 
REMARK    6  A    between atoms: N_15  and  C_14 
REMARK    7  A    between atoms: N_20  and  C_19 
REMARK       I    between atoms: C_22  and  N_20 
ROOT
ATOM      1  C   LIG d   1      -3.888  91.134 118.136  0.00  0.00     0.161 C 
ATOM      2  C   LIG d   1      -4.874  90.897 117.164  0.00  0.00     0.016 C 
ATOM      3  C   LIG d   1      -6.072  91.641 117.073  0.00  0.00     0.038 C 
ATOM      4  C   LIG d   1      -6.299  92.780 117.860  0.00  0.00     0.028 C 
ATOM      5  C   LIG d   1      -5.559  92.752 119.194  0.00  0.00    -0.047 C 
ATOM      6  C   LIG d   1      -4.067  92.443 118.933  0.00  0.00     0.091 C 
ENDROOT
BRANCH   1   7
ATOM      7  O   LIG d   1      -2.582  91.092 117.528  0.00  0.00    -0.368 OA
BRANCH   7   8
ATOM      8  C   LIG d   1      -1.826  89.871 117.723  0.00  0.00     0.119 C 
BRANCH   8   9
ATOM      9  C   LIG d   1      -2.438  89.137 118.932  0.00  0.00     0.028 C 
ATOM     10  C   LIG d   1      -1.466  89.053 120.121  0.00  0.00     0.006 C 
ENDBRANCH   8   9
BRANCH   8  11
ATOM     11  C   LIG d   1      -0.378  90.170 118.121  0.00  0.00     0.028 C 
ATOM     12  C   LIG d   1       0.190  91.411 117.414  0.00  0.00     0.006 C 
ENDBRANCH   8  11
ENDBRANCH   7   8
ENDBRANCH   1   7
BRANCH   6  13
ATOM     13  N   LIG d   1      -3.287  92.314 120.191  0.00  0.00    -0.311 N 
ATOM     14  C   LIG d   1      -2.096  92.881 120.377  0.00  0.00     0.210 C 
ATOM     15  C   LIG d   1      -1.454  92.605 121.740  0.00  0.00     0.109 C 
ATOM     16  O   LIG d   1      -1.526  93.614 119.555  0.00  0.00    -0.276 OA
ATOM     17  H   LIG d   1      -3.690  91.762 120.923  0.00  0.00     0.149 HD
ENDBRANCH   6  13
BRANCH   5  18
ATOM     18  N   LIG d   1      -5.773  94.055 119.850  0.00  0.00     0.381 N 
ATOM     19  H   LIG d   1      -6.328  93.933 120.674  0.00  0.00    -0.090 HD
ATOM     20  H   LIG d   1      -6.273  94.658 119.220  0.00  0.00    -0.090 HD
ATOM     21  H   LIG d   1      -4.897  94.465 120.089  0.00  0.00    -0.090 HD
ENDBRANCH   5  18
BRANCH   3  22
ATOM     22  C   LIG d   1      -7.077  91.224 116.214  0.00  0.00     0.382 C 
ATOM     23  O   LIG d   1      -7.101  90.038 115.806  0.00  0.00    -0.241 OA
ATOM     24  O   LIG d   1      -7.935  92.030 115.806  0.00  0.00    -0.241 OA
ENDBRANCH   3  22
TORSDOF 7
ENDMDL
MODEL 6
REMARK VINA RESULT:      -4.7      2.091      5.199
REMARK  7 active torsions:
REMARK  status: ('A' for Active; 'I' for Inactive)
REMARK    1  A    between atoms: C_2  and  C_3 
REMARK    2  A    between atoms: C_3  and  O_6 
REMARK    3  A    between atoms: C_3  and  C_4 
REMARK    4  A    between atoms: C_7  and  O_6 
REMARK    5  A    between atoms: C_9  and  C_10 
REMARK    6  A    between atoms: N_15  and  C_14 
REMARK    7  A    between atoms: N_20  and  C_19 
REMARK       I    between atoms: C_22  and  N_20 
ROOT
ATOM      1  C   LIG d   1      -8.930  82.045 120.836  0.00  0.00     0.161 C 
ATOM      2  C   LIG d   1      -8.522  80.984 120.010  0.00  0.00     0.016 C 
ATOM      3  C   LIG d   1      -8.963  80.821 118.677  0.00  0.00     0.038 C 
ATOM      4  C   LIG d   1      -9.730  81.799 118.025  0.00  0.00     0.028 C 
ATOM      5  C   LIG d   1     -10.580  82.636 118.976  0.00  0.00    -0.047 C 
ATOM      6  C   LIG d   1      -9.678  83.181 120.107  0.00  0.00     0.091 C 
ENDROOT
BRANCH   1   7
ATOM      7  O   LIG d   1      -7.795  82.571 121.552  0.00  0.00    -0.368 OA
BRANCH   7   8
ATOM      8  C   LIG d   1      -6.677  83.009 120.741  0.00  0.00     0.119 C 
BRANCH   8   9
ATOM      9  C   LIG d   1      -5.431  82.236 121.216  0.00  0.00     0.028 C 
ATOM     10  C   LIG d   1      -4.756  81.454 120.076  0.00  0.00     0.006 C 
ENDBRANCH   8   9
BRANCH   8  11
ATOM     11  C   LIG d   1      -6.356  84.486 120.986  0.00  0.00     0.028 C 
ATOM     12  C   LIG d   1      -6.681  84.937 122.419  0.00  0.00     0.006 C 
ENDBRANCH   8  11
ENDBRANCH   7   8
ENDBRANCH   1   7
BRANCH   6  13
ATOM     13  N   LIG d   1     -10.446  83.941 121.127  0.00  0.00    -0.311 N 
ATOM     14  C   LIG d   1     -10.300  85.249 121.330  0.00  0.00     0.210 C 
ATOM     15  C   LIG d   1     -11.174  85.832 122.445  0.00  0.00     0.109 C 
ATOM     16  O   LIG d   1      -9.554  85.988 120.671  0.00  0.00    -0.276 OA
ATOM     17  H   LIG d   1     -11.097  83.425 121.686  0.00  0.00     0.149 HD
ENDBRANCH   6  13
BRANCH   5  18
ATOM     18  N   LIG d   1     -11.219  83.702 118.181  0.00  0.00     0.381 N 
ATOM     19  H   LIG d   1     -12.084  83.968 118.606  0.00  0.00    -0.090 HD
ATOM     20  H   LIG d   1     -11.415  83.348 117.261  0.00  0.00    -0.090 HD
ATOM     21  H   LIG d   1     -10.614  84.491 118.120  0.00  0.00    -0.090 HD
ENDBRANCH   5  18
BRANCH   3  22
ATOM     22  C   LIG d   1      -8.670  79.651 117.994  0.00  0.00     0.382 C 
ATOM     23  O   LIG d   1      -9.483  78.695 118.011  0.00  0.00    -0.241 OA
ATOM     24  O   LIG d   1      -7.584  79.522 117.398  0.00  0.00    -0.241 OA
ENDBRANCH   3  22
TORSDOF 7
ENDMDL
MODEL 7
REMARK VINA RESULT:      -4.7     11.025     13.365
REMARK  7 active torsions:
REMARK  status: ('A' for Active; 'I' for Inactive)
REMARK    1  A    between atoms: C_2  and  C_3 
REMARK    2  A    between atoms: C_3  and  O_6 
REMARK    3  A    between atoms: C_3  and  C_4 
REMARK    4  A    between atoms: C_7  and  O_6 
REMARK    5  A    between atoms: C_9  and  C_10 
REMARK    6  A    between atoms: N_15  and  C_14 
REMARK    7  A    between atoms: N_20  and  C_19 
REMARK       I    between atoms: C_22  and  N_20 
ROOT
ATOM      1  C   LIG d   1      -5.523  92.904 119.829  0.00  0.00     0.161 C 
ATOM      2  C   LIG d   1      -4.406  92.165 119.404  0.00  0.00     0.016 C 
ATOM      3  C   LIG d   1      -4.335  91.514 118.151  0.00  0.00     0.038 C 
ATOM      4  C   LIG d   1      -5.322  91.685 117.169  0.00  0.00     0.028 C 
ATOM      5  C   LIG d   1      -6.697  92.010 117.743  0.00  0.00    -0.047 C 
ATOM      6  C   LIG d   1      -6.564  93.194 118.727  0.00  0.00     0.091 C 
ENDROOT
BRANCH   1   7
ATOM      7  O   LIG d   1      -5.090  94.133 120.445  0.00  0.00    -0.368 OA
BRANCH   7   8
ATOM      8  C   LIG d   1      -4.867  95.251 119.550  0.00  0.00     0.119 C 
BRANCH   8   9
ATOM      9  C   LIG d   1      -3.379  95.638 119.657  0.00  0.00     0.028 C 
ATOM     10  C   LIG d   1      -2.746  95.180 120.981  0.00  0.00     0.006 C 
ENDBRANCH   8   9
BRANCH   8  11
ATOM     11  C   LIG d   1      -5.642  96.491 120.003  0.00  0.00     0.028 C 
ATOM     12  C   LIG d   1      -6.400  96.272 121.322  0.00  0.00     0.006 C 
ENDBRANCH   8  11
ENDBRANCH   7   8
ENDBRANCH   1   7
BRANCH   6  13
ATOM     13  N   LIG d   1      -7.849  93.522 119.397  0.00  0.00    -0.311 N 
ATOM     14  C   LIG d   1      -8.691  94.453 118.952  0.00  0.00     0.210 C 
ATOM     15  C   LIG d   1      -9.950  94.646 119.803  0.00  0.00     0.109 C 
ATOM     16  O   LIG d   1      -8.530  95.115 117.915  0.00  0.00    -0.276 OA
ATOM     17  H   LIG d   1      -8.074  93.011 120.228  0.00  0.00     0.149 HD
ENDBRANCH   6  13
BRANCH   5  18
ATOM     18  N   LIG d   1      -7.596  92.298 116.609  0.00  0.00     0.381 N 
ATOM     19  H   LIG d   1      -8.418  91.732 116.677  0.00  0.00    -0.090 HD
ATOM     20  H   LIG d   1      -7.124  92.067 115.753  0.00  0.00    -0.090 HD
ATOM     21  H   LIG d   1      -7.847  93.262 116.610  0.00  0.00    -0.090 HD
ENDBRANCH   5  18
BRANCH   3  22
ATOM     22  C   LIG d   1      -3.284  90.649 117.886  0.00  0.00     0.382 C 
ATOM     23  O   LIG d   1      -3.400  89.426 118.141  0.00  0.00    -0.241 OA
ATOM     24  O   LIG d   1      -2.207  91.082 117.436  0.00  0.00    -0.241 OA
ENDBRANCH   3  22
TORSDOF 7
ENDMDL
MODEL 8
REMARK VINA RESULT:      -4.6     10.961     13.338
REMARK  7 active torsions:
REMARK  status: ('A' for Active; 'I' for Inactive)
REMARK    1  A    between atoms: C_2  and  C_3 
REMARK    2  A    between atoms: C_3  and  O_6 
REMARK    3  A    between atoms: C_3  and  C_4 
REMARK    4  A    between atoms: C_7  and  O_6 
REMARK    5  A    between atoms: C_9  and  C_10 
REMARK    6  A    between atoms: N_15  and  C_14 
REMARK    7  A    between atoms: N_20  and  C_19 
REMARK       I    between atoms: C_22  and  N_20 
ROOT
ATOM      1  C   LIG d   1      -5.638  93.349 118.813  0.00  0.00     0.161 C 
ATOM      2  C   LIG d   1      -6.516  92.593 118.018  0.00  0.00     0.016 C 
ATOM      3  C   LIG d   1      -6.081  91.643 117.066  0.00  0.00     0.038 C 
ATOM      4  C   LIG d   1      -4.733  91.272 116.951  0.00  0.00     0.028 C 
ATOM      5  C   LIG d   1      -3.765  92.370 117.377  0.00  0.00    -0.047 C 
ATOM      6  C   LIG d   1      -4.169  92.878 118.780  0.00  0.00     0.091 C 
ENDROOT
BRANCH   1   7
ATOM      7  O   LIG d   1      -6.121  93.390 120.171  0.00  0.00    -0.368 OA
BRANCH   7   8
ATOM      8  C   LIG d   1      -6.416  94.705 120.703  0.00  0.00     0.119 C 
BRANCH   8   9
ATOM      9  C   LIG d   1      -7.844  94.661 121.279  0.00  0.00     0.028 C 
ATOM     10  C   LIG d   1      -7.995  93.614 122.395  0.00  0.00     0.006 C 
ENDBRANCH   8   9
BRANCH   8  11
ATOM     11  C   LIG d   1      -6.458  95.758 119.592  0.00  0.00     0.028 C 
ATOM     12  C   LIG d   1      -5.614  97.001 119.917  0.00  0.00     0.006 C 
ENDBRANCH   8  11
ENDBRANCH   7   8
ENDBRANCH   1   7
BRANCH   6  13
ATOM     13  N   LIG d   1      -3.323  94.012 119.237  0.00  0.00    -0.311 N 
ATOM     14  C   LIG d   1      -2.789  94.083 120.455  0.00  0.00     0.210 C 
ATOM     15  C   LIG d   1      -1.967  95.347 120.728  0.00  0.00     0.109 C 
ATOM     16  O   LIG d   1      -2.891  93.205 121.325  0.00  0.00    -0.276 OA
ATOM     17  H   LIG d   1      -3.163  94.754 118.585  0.00  0.00     0.149 HD
ENDBRANCH   6  13
BRANCH   5  18
ATOM     18  N   LIG d   1      -2.403  91.803 117.338  0.00  0.00     0.381 N 
ATOM     19  H   LIG d   1      -1.803  92.321 117.948  0.00  0.00    -0.090 HD
ATOM     20  H   LIG d   1      -2.046  91.881 116.402  0.00  0.00    -0.090 HD
ATOM     21  H   LIG d   1      -2.424  90.846 117.615  0.00  0.00    -0.090 HD
ENDBRANCH   5  18
BRANCH   3  22
ATOM     22  C   LIG d   1      -6.996  91.081 116.189  0.00  0.00     0.382 C 
ATOM     23  O   LIG d   1      -7.989  91.746 115.807  0.00  0.00    -0.241 OA
ATOM     24  O   LIG d   1      -6.866  89.902 115.809  0.00  0.00    -0.241 OA
ENDBRANCH   3  22
TORSDOF 7
ENDMDL
MODEL 9
REMARK VINA RESULT:      -4.5     10.806     12.333
REMARK  7 active torsions:
REMARK  status: ('A' for Active; 'I' for Inactive)
REMARK    1  A    between atoms: C_2  and  C_3 
REMARK    2  A    between atoms: C_3  and  O_6 
REMARK    3  A    between atoms: C_3  and  C_4 
REMARK    4  A    between atoms: C_7  and  O_6 
REMARK    5  A    between atoms: C_9  and  C_10 
REMARK    6  A    between atoms: N_15  and  C_14 
REMARK    7  A    between atoms: N_20  and  C_19 
REMARK       I    between atoms: C_22  and  N_20 
ROOT
ATOM      1  C   LIG d   1      -1.438  88.958 117.858  0.00  0.00     0.161 C 
ATOM      2  C   LIG d   1      -0.134  88.588 118.229  0.00  0.00     0.016 C 
ATOM      3  C   LIG d   1       0.947  89.497 118.281  0.00  0.00     0.038 C 
ATOM      4  C   LIG d   1       0.764  90.878 118.110  0.00  0.00     0.028 C 
ATOM      5  C   LIG d   1      -0.438  91.226 117.239  0.00  0.00    -0.047 C 
ATOM      6  C   LIG d   1      -1.680  90.479 117.776  0.00  0.00     0.091 C 
ENDROOT
BRANCH   1   7
ATOM      7  O   LIG d   1      -2.391  88.345 118.749  0.00  0.00    -0.368 OA
BRANCH   7   8
ATOM      8  C   LIG d   1      -1.912  88.038 120.081  0.00  0.00     0.119 C 
BRANCH   8   9
ATOM      9  C   LIG d   1      -2.444  86.640 120.453  0.00  0.00     0.028 C 
ATOM     10  C   LIG d   1      -1.504  85.513 119.992  0.00  0.00     0.006 C 
ENDBRANCH   8   9
BRANCH   8  11
ATOM     11  C   LIG d   1      -2.510  88.989 121.122  0.00  0.00     0.028 C 
ATOM     12  C   LIG d   1      -1.565  90.145 121.484  0.00  0.00     0.006 C 
ENDBRANCH   8  11
ENDBRANCH   7   8
ENDBRANCH   1   7
BRANCH   6  13
ATOM     13  N   LIG d   1      -2.883  90.698 116.931  0.00  0.00    -0.311 N 
ATOM     14  C   LIG d   1      -3.778  91.657 117.164  0.00  0.00     0.210 C 
ATOM     15  C   LIG d   1      -4.954  91.696 116.183  0.00  0.00     0.109 C 
ATOM     16  O   LIG d   1      -3.693  92.499 118.070  0.00  0.00    -0.276 OA
ATOM     17  H   LIG d   1      -3.013  90.080 116.155  0.00  0.00     0.149 HD
ENDBRANCH   6  13
BRANCH   5  18
ATOM     18  N   LIG d   1      -0.592  92.693 117.259  0.00  0.00     0.381 N 
ATOM     19  H   LIG d   1      -1.506  92.942 116.935  0.00  0.00    -0.090 HD
ATOM     20  H   LIG d   1       0.084  93.099 116.636  0.00  0.00    -0.090 HD
ATOM     21  H   LIG d   1      -0.453  93.038 118.183  0.00  0.00    -0.090 HD
ENDBRANCH   5  18
BRANCH   3  22
ATOM     22  C   LIG d   1       2.237  89.022 118.467  0.00  0.00     0.382 C 
ATOM     23  O   LIG d   1       2.470  87.792 118.379  0.00  0.00    -0.241 OA
ATOM     24  O   LIG d   1       3.161  89.802 118.765  0.00  0.00    -0.241 OA
ENDBRANCH   3  22
TORSDOF 7
ENDMDL
