MODEL 1
REMARK VINA RESULT:      -4.7      0.000      0.000
REMARK  7 active torsions:
REMARK  status: ('A' for Active; 'I' for Inactive)
REMARK    1  A    between atoms: C_2  and  C_3 
REMARK    2  A    between atoms: C_3  and  O_6 
REMARK    3  A    between atoms: C_3  and  C_4 
REMARK    4  A    between atoms: C_7  and  O_6 
REMARK    5  A    between atoms: C_9  and  C_10 
REMARK    6  A    between atoms: N_15  and  C_14 
REMARK    7  A    between atoms: N_20  and  C_19 
REMARK       I    between atoms: C_22  and  N_20 
ROOT
ATOM      1  C   LIG d   1      -8.339  77.909 119.123  0.00  0.00     0.161 C 
ATOM      2  C   LIG d   1      -9.117  76.910 119.732  0.00  0.00     0.016 C 
ATOM      3  C   LIG d   1     -10.136  77.183 120.674  0.00  0.00     0.038 C 
ATOM      4  C   LIG d   1     -10.550  78.493 120.958  0.00  0.00     0.028 C 
ATOM      5  C   LIG d   1      -9.456  79.534 120.748  0.00  0.00    -0.047 C 
ATOM      6  C   LIG d   1      -8.851  79.348 119.338  0.00  0.00     0.091 C 
ENDROOT
BRANCH   1   7
ATOM      7  O   LIG d   1      -8.201  77.631 117.716  0.00  0.00    -0.368 OA
BRANCH   7   8
ATOM      8  C   LIG d   1      -7.042  76.852 117.330  0.00  0.00     0.119 C 
BRANCH   8   9
ATOM      9  C   LIG d   1      -6.025  77.820 116.695  0.00  0.00     0.028 C 
ATOM     10  C   LIG d   1      -4.934  78.258 117.687  0.00  0.00     0.006 C 
ENDBRANCH   8   9
BRANCH   8  11
ATOM     11  C   LIG d   1      -7.387  75.847 116.228  0.00  0.00     0.028 C 
ATOM     12  C   LIG d   1      -6.734  74.473 116.448  0.00  0.00     0.006 C 
ENDBRANCH   8  11
ENDBRANCH   7   8
ENDBRANCH   1   7
BRANCH   6  13
ATOM     13  N   LIG d   1      -7.715  80.272 119.082  0.00  0.00    -0.311 N 
ATOM     14  C   LIG d   1      -7.664  81.100 118.039  0.00  0.00     0.210 C 
ATOM     15  C   LIG d   1      -6.394  81.952 117.953  0.00  0.00     0.109 C 
ATOM     16  O   LIG d   1      -8.564  81.231 117.196  0.00  0.00    -0.276 OA
ATOM     17  H   LIG d   1      -6.956  80.254 119.734  0.00  0.00     0.149 HD
ENDBRANCH   6  13
BRANCH   5  18
ATOM     18  N   LIG d   1     -10.061  80.864 120.948  0.00  0.00     0.381 N 
ATOM     19  H   LIG d   1     -10.127  81.341 120.071  0.00  0.00    -0.090 HD
ATOM     20  H   LIG d   1      -9.470  81.403 121.556  0.00  0.00    -0.090 HD
ATOM     21  H   LIG d   1     -10.967  80.769 121.351  0.00  0.00    -0.090 HD
ENDBRANCH   5  18
BRANCH   3  22
ATOM     22  C   LIG d   1     -10.725  76.140 121.371  0.00  0.00     0.382 C 
ATOM     23  O   LIG d   1     -10.203  75.722 122.433  0.00  0.00    -0.241 OA
ATOM     24  O   LIG d   1     -11.747  75.582 120.929  0.00  0.00    -0.241 OA
ENDBRANCH   3  22
TORSDOF 7
ENDMDL
MODEL 2
REMARK VINA RESULT:      -4.7     13.532     16.834
REMARK  7 active torsions:
REMARK  status: ('A' for Active; 'I' for Inactive)
REMARK    1  A    between atoms: C_2  and  C_3 
REMARK    2  A    between atoms: C_3  and  O_6 
REMARK    3  A    between atoms: C_3  and  C_4 
REMARK    4  A    between atoms: C_7  and  O_6 
REMARK    5  A    between atoms: C_9  and  C_10 
REMARK    6  A    between atoms: N_15  and  C_14 
REMARK    7  A    between atoms: N_20  and  C_19 
REMARK       I    between atoms: C_22  and  N_20 
ROOT
ATOM      1  C   LIG d   1      -6.077  94.092 117.581  0.00  0.00     0.161 C 
ATOM      2  C   LIG d   1      -6.414  92.761 117.283  0.00  0.00     0.016 C 
ATOM      3  C   LIG d   1      -5.456  91.760 117.001  0.00  0.00     0.038 C 
ATOM      4  C   LIG d   1      -4.080  91.989 117.147  0.00  0.00     0.028 C 
ATOM      5  C   LIG d   1      -3.685  93.450 116.953  0.00  0.00    -0.047 C 
ATOM      6  C   LIG d   1      -4.578  94.334 117.854  0.00  0.00     0.091 C 
ENDROOT
BRANCH   1   7
ATOM      7  O   LIG d   1      -6.870  94.560 118.690  0.00  0.00    -0.368 OA
BRANCH   7   8
ATOM      8  C   LIG d   1      -8.099  95.247 118.350  0.00  0.00     0.119 C 
BRANCH   8   9
ATOM      9  C   LIG d   1      -7.859  96.755 118.552  0.00  0.00     0.028 C 
ATOM     10  C   LIG d   1      -7.610  97.493 117.226  0.00  0.00     0.006 C 
ENDBRANCH   8   9
BRANCH   8  11
ATOM     11  C   LIG d   1      -9.228  94.882 119.319  0.00  0.00     0.028 C 
ATOM     12  C   LIG d   1      -9.286  93.378 119.627  0.00  0.00     0.006 C 
ENDBRANCH   8  11
ENDBRANCH   7   8
ENDBRANCH   1   7
BRANCH   6  13
ATOM     13  N   LIG d   1      -4.314  95.784 117.663  0.00  0.00    -0.311 N 
ATOM     14  C   LIG d   1      -4.110  96.631 118.671  0.00  0.00     0.210 C 
ATOM     15  C   LIG d   1      -3.876  98.087 118.255  0.00  0.00     0.109 C 
ATOM     16  O   LIG d   1      -4.067  96.308 119.868  0.00  0.00    -0.276 OA
ATOM     17  H   LIG d   1      -4.300  96.126 116.722  0.00  0.00     0.149 HD
ENDBRANCH   6  13
BRANCH   5  18
ATOM     18  N   LIG d   1      -2.249  93.568 117.268  0.00  0.00     0.381 N 
ATOM     19  H   LIG d   1      -2.068  93.186 118.175  0.00  0.00    -0.090 HD
ATOM     20  H   LIG d   1      -1.998  94.541 117.280  0.00  0.00    -0.090 HD
ATOM     21  H   LIG d   1      -1.708  93.087 116.584  0.00  0.00    -0.090 HD
ENDBRANCH   5  18
BRANCH   3  22
ATOM     22  C   LIG d   1      -5.872  90.525 116.529  0.00  0.00     0.382 C 
ATOM     23  O   LIG d   1      -5.086  89.813 115.857  0.00  0.00    -0.241 OA
ATOM     24  O   LIG d   1      -7.037  90.132 116.728  0.00  0.00    -0.241 OA
ENDBRANCH   3  22
TORSDOF 7
ENDMDL
MODEL 3
REMARK VINA RESULT:      -4.6     13.412     16.765
REMARK  7 active torsions:
REMARK  status: ('A' for Active; 'I' for Inactive)
REMARK    1  A    between atoms: C_2  and  C_3 
REMARK    2  A    between atoms: C_3  and  O_6 
REMARK    3  A    between atoms: C_3  and  C_4 
REMARK    4  A    between atoms: C_7  and  O_6 
REMARK    5  A    between atoms: C_9  and  C_10 
REMARK    6  A    between atoms: N_15  and  C_14 
REMARK    7  A    between atoms: N_20  and  C_19 
REMARK       I    between atoms: C_22  and  N_20 
ROOT
ATOM      1  C   LIG d   1      -5.121  93.756 117.847  0.00  0.00     0.161 C 
ATOM      2  C   LIG d   1      -5.107  92.439 117.359  0.00  0.00     0.016 C 
ATOM      3  C   LIG d   1      -6.188  91.858 116.655  0.00  0.00     0.038 C 
ATOM      4  C   LIG d   1      -7.303  92.610 116.258  0.00  0.00     0.028 C 
ATOM      5  C   LIG d   1      -7.583  93.804 117.165  0.00  0.00    -0.047 C 
ATOM      6  C   LIG d   1      -6.284  94.626 117.327  0.00  0.00     0.091 C 
ENDROOT
BRANCH   1   7
ATOM      7  O   LIG d   1      -3.857  94.392 117.572  0.00  0.00    -0.368 OA
BRANCH   7   8
ATOM      8  C   LIG d   1      -2.971  94.567 118.705  0.00  0.00     0.119 C 
BRANCH   8   9
ATOM      9  C   LIG d   1      -2.832  96.081 118.954  0.00  0.00     0.028 C 
ATOM     10  C   LIG d   1      -3.546  96.533 120.239  0.00  0.00     0.006 C 
ENDBRANCH   8   9
BRANCH   8  11
ATOM     11  C   LIG d   1      -1.556  94.076 118.387  0.00  0.00     0.028 C 
ATOM     12  C   LIG d   1      -0.470  95.085 118.793  0.00  0.00     0.006 C 
ENDBRANCH   8  11
ENDBRANCH   7   8
ENDBRANCH   1   7
BRANCH   6  13
ATOM     13  N   LIG d   1      -6.448  95.766 118.266  0.00  0.00    -0.311 N 
ATOM     14  C   LIG d   1      -6.836  96.981 117.884  0.00  0.00     0.210 C 
ATOM     15  C   LIG d   1      -6.921  98.017 119.010  0.00  0.00     0.109 C 
ATOM     16  O   LIG d   1      -7.148  97.292 116.725  0.00  0.00    -0.276 OA
ATOM     17  H   LIG d   1      -6.245  95.594 119.232  0.00  0.00     0.149 HD
ENDBRANCH   6  13
BRANCH   5  18
ATOM     18  N   LIG d   1      -8.684  94.576 116.558  0.00  0.00     0.381 N 
ATOM     19  H   LIG d   1      -8.311  95.288 115.962  0.00  0.00    -0.090 HD
ATOM     20  H   LIG d   1      -9.210  95.021 117.290  0.00  0.00    -0.090 HD
ATOM     21  H   LIG d   1      -9.277  93.971 116.034  0.00  0.00    -0.090 HD
ENDBRANCH   5  18
BRANCH   3  22
ATOM     22  C   LIG d   1      -6.176  90.500 116.377  0.00  0.00     0.382 C 
ATOM     23  O   LIG d   1      -5.095  89.925 116.104  0.00  0.00    -0.241 OA
ATOM     24  O   LIG d   1      -7.239  89.851 116.352  0.00  0.00    -0.241 OA
ENDBRANCH   3  22
TORSDOF 7
ENDMDL
MODEL 4
REMARK VINA RESULT:      -4.6     14.183     17.288
REMARK  7 active torsions:
REMARK  status: ('A' for Active; 'I' for Inactive)
REMARK    1  A    between atoms: C_2  and  C_3 
REMARK    2  A    between atoms: C_3  and  O_6 
REMARK    3  A    between atoms: C_3  and  C_4 
REMARK    4  A    between atoms: C_7  and  O_6 
REMARK    5  A    between atoms: C_9  and  C_10 
REMARK    6  A    between atoms: N_15  and  C_14 
REMARK    7  A    between atoms: N_20  and  C_19 
REMARK       I    between atoms: C_22  and  N_20 
ROOT
ATOM      1  C   LIG d   1      -3.067  93.628 118.085  0.00  0.00     0.161 C 
ATOM      2  C   LIG d   1      -3.062  94.988 118.437  0.00  0.00     0.016 C 
ATOM      3  C   LIG d   1      -1.900  95.682 118.847  0.00  0.00     0.038 C 
ATOM      4  C   LIG d   1      -0.627  95.096 118.788  0.00  0.00     0.028 C 
ATOM      5  C   LIG d   1      -0.653  93.577 118.921  0.00  0.00    -0.047 C 
ATOM      6  C   LIG d   1      -1.668  93.001 117.907  0.00  0.00     0.091 C 
ENDROOT
BRANCH   1   7
ATOM      7  O   LIG d   1      -3.858  93.434 116.896  0.00  0.00    -0.368 OA
BRANCH   7   8
ATOM      8  C   LIG d   1      -5.171  92.854 117.091  0.00  0.00     0.119 C 
BRANCH   8   9
ATOM      9  C   LIG d   1      -5.392  91.821 115.970  0.00  0.00     0.028 C 
ATOM     10  C   LIG d   1      -4.737  90.465 116.283  0.00  0.00     0.006 C 
ENDBRANCH   8   9
BRANCH   8  11
ATOM     11  C   LIG d   1      -6.275  93.899 116.904  0.00  0.00     0.028 C 
ATOM     12  C   LIG d   1      -7.278  93.515 115.805  0.00  0.00     0.006 C 
ENDBRANCH   8  11
ENDBRANCH   7   8
ENDBRANCH   1   7
BRANCH   6  13
ATOM     13  N   LIG d   1      -1.817  91.528 118.029  0.00  0.00    -0.311 N 
ATOM     14  C   LIG d   1      -1.054  90.657 117.371  0.00  0.00     0.210 C 
ATOM     15  C   LIG d   1      -1.388  89.183 117.624  0.00  0.00     0.109 C 
ATOM     16  O   LIG d   1      -0.112  90.964 116.626  0.00  0.00    -0.276 OA
ATOM     17  H   LIG d   1      -2.538  91.191 118.637  0.00  0.00     0.149 HD
ENDBRANCH   6  13
BRANCH   5  18
ATOM     18  N   LIG d   1       0.722  93.087 118.704  0.00  0.00     0.381 N 
ATOM     19  H   LIG d   1       0.746  92.489 117.902  0.00  0.00    -0.090 HD
ATOM     20  H   LIG d   1       1.007  92.552 119.505  0.00  0.00    -0.090 HD
ATOM     21  H   LIG d   1       1.341  93.856 118.571  0.00  0.00    -0.090 HD
ENDBRANCH   5  18
BRANCH   3  22
ATOM     22  C   LIG d   1      -2.011  96.965 119.361  0.00  0.00     0.382 C 
ATOM     23  O   LIG d   1      -2.982  97.263 120.098  0.00  0.00    -0.241 OA
ATOM     24  O   LIG d   1      -1.177  97.840 119.061  0.00  0.00    -0.241 OA
ENDBRANCH   3  22
TORSDOF 7
ENDMDL
MODEL 5
REMARK VINA RESULT:      -4.6      8.377     11.532
REMARK  7 active torsions:
REMARK  status: ('A' for Active; 'I' for Inactive)
REMARK    1  A    between atoms: C_2  and  C_3 
REMARK    2  A    between atoms: C_3  and  O_6 
REMARK    3  A    between atoms: C_3  and  C_4 
REMARK    4  A    between atoms: C_7  and  O_6 
REMARK    5  A    between atoms: C_9  and  C_10 
REMARK    6  A    between atoms: N_15  and  C_14 
REMARK    7  A    between atoms: N_20  and  C_19 
REMARK       I    between atoms: C_22  and  N_20 
ROOT
ATOM      1  C   LIG d   1     -15.691  70.895 119.888  0.00  0.00     0.161 C 
ATOM      2  C   LIG d   1     -14.686  71.876 119.842  0.00  0.00     0.016 C 
ATOM      3  C   LIG d   1     -14.950  73.253 119.658  0.00  0.00     0.038 C 
ATOM      4  C   LIG d   1     -16.256  73.764 119.657  0.00  0.00     0.028 C 
ATOM      5  C   LIG d   1     -17.301  72.754 119.195  0.00  0.00    -0.047 C 
ATOM      6  C   LIG d   1     -17.128  71.447 120.001  0.00  0.00     0.091 C 
ENDROOT
BRANCH   1   7
ATOM      7  O   LIG d   1     -15.423  69.971 120.961  0.00  0.00    -0.368 OA
BRANCH   7   8
ATOM      8  C   LIG d   1     -14.510  68.888 120.657  0.00  0.00     0.119 C 
BRANCH   8   9
ATOM      9  C   LIG d   1     -15.304  67.816 119.887  0.00  0.00     0.028 C 
ATOM     10  C   LIG d   1     -14.807  67.641 118.442  0.00  0.00     0.006 C 
ENDBRANCH   8   9
BRANCH   8  11
ATOM     11  C   LIG d   1     -14.023  68.195 121.933  0.00  0.00     0.028 C 
ATOM     12  C   LIG d   1     -12.494  68.053 121.987  0.00  0.00     0.006 C 
ENDBRANCH   8  11
ENDBRANCH   7   8
ENDBRANCH   1   7
BRANCH   6  13
ATOM     13  N   LIG d   1     -18.056  70.376 119.553  0.00  0.00    -0.311 N 
ATOM     14  C   LIG d   1     -18.906  69.755 120.368  0.00  0.00     0.210 C 
ATOM     15  C   LIG d   1     -19.760  68.668 119.706  0.00  0.00     0.109 C 
ATOM     16  O   LIG d   1     -19.058  70.022 121.569  0.00  0.00    -0.276 OA
ATOM     17  H   LIG d   1     -18.022  70.119 118.586  0.00  0.00     0.149 HD
ENDBRANCH   6  13
BRANCH   5  18
ATOM     18  N   LIG d   1     -18.629  73.372 119.374  0.00  0.00     0.381 N 
ATOM     19  H   LIG d   1     -18.523  74.336 119.619  0.00  0.00    -0.090 HD
ATOM     20  H   LIG d   1     -19.105  72.906 120.127  0.00  0.00    -0.090 HD
ATOM     21  H   LIG d   1     -19.159  73.291 118.535  0.00  0.00    -0.090 HD
ENDBRANCH   5  18
BRANCH   3  22
ATOM     22  C   LIG d   1     -13.900  74.130 119.431  0.00  0.00     0.382 C 
ATOM     23  O   LIG d   1     -13.659  74.532 118.267  0.00  0.00    -0.241 OA
ATOM     24  O   LIG d   1     -13.163  74.488 120.369  0.00  0.00    -0.241 OA
ENDBRANCH   3  22
TORSDOF 7
ENDMDL
MODEL 6
REMARK VINA RESULT:      -4.6      9.009     11.502
REMARK  7 active torsions:
REMARK  status: ('A' for Active; 'I' for Inactive)
REMARK    1  A    between atoms: C_2  and  C_3 
REMARK    2  A    between atoms: C_3  and  O_6 
REMARK    3  A    between atoms: C_3  and  C_4 
REMARK    4  A    between atoms: C_7  and  O_6 
REMARK    5  A    between atoms: C_9  and  C_10 
REMARK    6  A    between atoms: N_15  and  C_14 
REMARK    7  A    between atoms: N_20  and  C_19 
REMARK       I    between atoms: C_22  and  N_20 
ROOT
ATOM      1  C   LIG d   1     -17.621  72.338 119.638  0.00  0.00     0.161 C 
ATOM      2  C   LIG d   1     -16.962  71.098 119.683  0.00  0.00     0.016 C 
ATOM      3  C   LIG d   1     -15.557  70.960 119.601  0.00  0.00     0.038 C 
ATOM      4  C   LIG d   1     -14.701  72.071 119.620  0.00  0.00     0.028 C 
ATOM      5  C   LIG d   1     -15.341  73.339 119.065  0.00  0.00    -0.047 C 
ATOM      6  C   LIG d   1     -16.697  73.567 119.771  0.00  0.00     0.091 C 
ENDROOT
BRANCH   1   7
ATOM      7  O   LIG d   1     -18.656  72.378 120.641  0.00  0.00    -0.368 OA
BRANCH   7   8
ATOM      8  C   LIG d   1     -20.002  72.109 120.178  0.00  0.00     0.119 C 
BRANCH   8   9
ATOM      9  C   LIG d   1     -20.726  73.464 120.051  0.00  0.00     0.028 C 
ATOM     10  C   LIG d   1     -20.750  74.244 121.376  0.00  0.00     0.006 C 
ENDBRANCH   8   9
BRANCH   8  11
ATOM     11  C   LIG d   1     -20.801  71.319 121.218  0.00  0.00     0.028 C 
ATOM     12  C   LIG d   1     -19.910  70.676 122.292  0.00  0.00     0.006 C 
ENDBRANCH   8  11
ENDBRANCH   7   8
ENDBRANCH   1   7
BRANCH   6  13
ATOM     13  N   LIG d   1     -17.430  74.740 119.227  0.00  0.00    -0.311 N 
ATOM     14  C   LIG d   1     -17.760  75.802 119.961  0.00  0.00     0.210 C 
ATOM     15  C   LIG d   1     -18.531  76.892 119.209  0.00  0.00     0.109 C 
ATOM     16  O   LIG d   1     -17.461  75.958 121.154  0.00  0.00    -0.276 OA
ATOM     17  H   LIG d   1     -17.685  74.710 118.260  0.00  0.00     0.149 HD
ENDBRANCH   6  13
BRANCH   5  18
ATOM     18  N   LIG d   1     -14.389  74.447 119.272  0.00  0.00     0.381 N 
ATOM     19  H   LIG d   1     -13.802  74.247 120.057  0.00  0.00    -0.090 HD
ATOM     20  H   LIG d   1     -14.905  75.286 119.470  0.00  0.00    -0.090 HD
ATOM     21  H   LIG d   1     -13.833  74.575 118.456  0.00  0.00    -0.090 HD
ENDBRANCH   5  18
BRANCH   3  22
ATOM     22  C   LIG d   1     -14.997  69.700 119.459  0.00  0.00     0.382 C 
ATOM     23  O   LIG d   1     -15.703  68.742 119.062  0.00  0.00    -0.241 OA
ATOM     24  O   LIG d   1     -13.806  69.499 119.764  0.00  0.00    -0.241 OA
ENDBRANCH   3  22
TORSDOF 7
ENDMDL
MODEL 7
REMARK VINA RESULT:      -4.5     13.073     15.191
REMARK  7 active torsions:
REMARK  status: ('A' for Active; 'I' for Inactive)
REMARK    1  A    between atoms: C_2  and  C_3 
REMARK    2  A    between atoms: C_3  and  O_6 
REMARK    3  A    between atoms: C_3  and  C_4 
REMARK    4  A    between atoms: C_7  and  O_6 
REMARK    5  A    between atoms: C_9  and  C_10 
REMARK    6  A    between atoms: N_15  and  C_14 
REMARK    7  A    between atoms: N_20  and  C_19 
REMARK       I    between atoms: C_22  and  N_20 
ROOT
ATOM      1  C   LIG d   1      -6.678  92.476 119.122  0.00  0.00     0.161 C 
ATOM      2  C   LIG d   1      -6.349  91.391 118.293  0.00  0.00     0.016 C 
ATOM      3  C   LIG d   1      -6.660  91.343 116.914  0.00  0.00     0.038 C 
ATOM      4  C   LIG d   1      -7.192  92.449 116.235  0.00  0.00     0.028 C 
ATOM      5  C   LIG d   1      -8.003  93.378 117.132  0.00  0.00    -0.047 C 
ATOM      6  C   LIG d   1      -7.159  93.738 118.375  0.00  0.00     0.091 C 
ENDROOT
BRANCH   1   7
ATOM      7  O   LIG d   1      -5.562  92.795 119.977  0.00  0.00    -0.368 OA
BRANCH   7   8
ATOM      8  C   LIG d   1      -4.246  92.520 119.435  0.00  0.00     0.119 C 
BRANCH   8   9
ATOM      9  C   LIG d   1      -3.377  91.977 120.586  0.00  0.00     0.028 C 
ATOM     10  C   LIG d   1      -2.855  90.557 120.306  0.00  0.00     0.006 C 
ENDBRANCH   8   9
BRANCH   8  11
ATOM     11  C   LIG d   1      -3.553  93.807 118.976  0.00  0.00     0.028 C 
ATOM     12  C   LIG d   1      -3.250  93.815 117.470  0.00  0.00     0.006 C 
ENDBRANCH   8  11
ENDBRANCH   7   8
ENDBRANCH   1   7
BRANCH   6  13
ATOM     13  N   LIG d   1      -7.909  94.577 119.346  0.00  0.00    -0.311 N 
ATOM     14  C   LIG d   1      -9.136  94.283 119.774  0.00  0.00     0.210 C 
ATOM     15  C   LIG d   1      -9.736  95.292 120.759  0.00  0.00     0.109 C 
ATOM     16  O   LIG d   1      -9.772  93.267 119.455  0.00  0.00    -0.276 OA
ATOM     17  H   LIG d   1      -7.456  95.404 119.681  0.00  0.00     0.149 HD
ENDBRANCH   6  13
BRANCH   5  18
ATOM     18  N   LIG d   1      -8.381  94.555 116.328  0.00  0.00     0.381 N 
ATOM     19  H   LIG d   1      -8.377  95.374 116.904  0.00  0.00    -0.090 HD
ATOM     20  H   LIG d   1      -9.313  94.423 115.975  0.00  0.00    -0.090 HD
ATOM     21  H   LIG d   1      -7.744  94.670 115.571  0.00  0.00    -0.090 HD
ENDBRANCH   5  18
BRANCH   3  22
ATOM     22  C   LIG d   1      -6.476  90.163 116.209  0.00  0.00     0.382 C 
ATOM     23  O   LIG d   1      -7.447  89.394 116.009  0.00  0.00    -0.241 OA
ATOM     24  O   LIG d   1      -5.343  89.836 115.810  0.00  0.00    -0.241 OA
ENDBRANCH   3  22
TORSDOF 7
ENDMDL
MODEL 8
REMARK VINA RESULT:      -4.5      2.680      5.144
REMARK  7 active torsions:
REMARK  status: ('A' for Active; 'I' for Inactive)
REMARK    1  A    between atoms: C_2  and  C_3 
REMARK    2  A    between atoms: C_3  and  O_6 
REMARK    3  A    between atoms: C_3  and  C_4 
REMARK    4  A    between atoms: C_7  and  O_6 
REMARK    5  A    between atoms: C_9  and  C_10 
REMARK    6  A    between atoms: N_15  and  C_14 
REMARK    7  A    between atoms: N_20  and  C_19 
REMARK       I    between atoms: C_22  and  N_20 
ROOT
ATOM      1  C   LIG d   1      -6.927  79.408 117.754  0.00  0.00     0.161 C 
ATOM      2  C   LIG d   1      -7.519  80.642 118.070  0.00  0.00     0.016 C 
ATOM      3  C   LIG d   1      -8.842  80.769 118.553  0.00  0.00     0.038 C 
ATOM      4  C   LIG d   1      -9.616  79.652 118.899  0.00  0.00     0.028 C 
ATOM      5  C   LIG d   1      -9.243  78.393 118.123  0.00  0.00    -0.047 C 
ATOM      6  C   LIG d   1      -7.717  78.171 118.230  0.00  0.00     0.091 C 
ENDROOT
BRANCH   1   7
ATOM      7  O   LIG d   1      -5.580  79.368 118.263  0.00  0.00    -0.368 OA
BRANCH   7   8
ATOM      8  C   LIG d   1      -4.628  80.251 117.620  0.00  0.00     0.119 C 
BRANCH   8   9
ATOM      9  C   LIG d   1      -3.787  79.398 116.651  0.00  0.00     0.028 C 
ATOM     10  C   LIG d   1      -3.683  77.931 117.100  0.00  0.00     0.006 C 
ENDBRANCH   8   9
BRANCH   8  11
ATOM     11  C   LIG d   1      -3.629  80.824 118.629  0.00  0.00     0.028 C 
ATOM     12  C   LIG d   1      -4.213  81.981 119.455  0.00  0.00     0.006 C 
ENDBRANCH   8  11
ENDBRANCH   7   8
ENDBRANCH   1   7
BRANCH   6  13
ATOM     13  N   LIG d   1      -7.256  77.007 117.429  0.00  0.00    -0.311 N 
ATOM     14  C   LIG d   1      -7.092  75.786 117.936  0.00  0.00     0.210 C 
ATOM     15  C   LIG d   1      -6.590  74.735 116.941  0.00  0.00     0.109 C 
ATOM     16  O   LIG d   1      -7.346  75.467 119.107  0.00  0.00    -0.276 OA
ATOM     17  H   LIG d   1      -7.058  77.169 116.461  0.00  0.00     0.149 HD
ENDBRANCH   6  13
BRANCH   5  18
ATOM     18  N   LIG d   1     -10.031  77.277 118.679  0.00  0.00     0.381 N 
ATOM     19  H   LIG d   1     -10.741  77.006 118.028  0.00  0.00    -0.090 HD
ATOM     20  H   LIG d   1     -10.478  77.584 119.524  0.00  0.00    -0.090 HD
ATOM     21  H   LIG d   1      -9.435  76.502 118.872  0.00  0.00    -0.090 HD
ENDBRANCH   5  18
BRANCH   3  22
ATOM     22  C   LIG d   1      -9.417  82.027 118.657  0.00  0.00     0.382 C 
ATOM     23  O   LIG d   1      -8.927  82.878 119.438  0.00  0.00    -0.241 OA
ATOM     24  O   LIG d   1     -10.447  82.306 118.013  0.00  0.00    -0.241 OA
ENDBRANCH   3  22
TORSDOF 7
ENDMDL
MODEL 9
REMARK VINA RESULT:      -4.5     13.125     15.475
REMARK  7 active torsions:
REMARK  status: ('A' for Active; 'I' for Inactive)
REMARK    1  A    between atoms: C_2  and  C_3 
REMARK    2  A    between atoms: C_3  and  O_6 
REMARK    3  A    between atoms: C_3  and  C_4 
REMARK    4  A    between atoms: C_7  and  O_6 
REMARK    5  A    between atoms: C_9  and  C_10 
REMARK    6  A    between atoms: N_15  and  C_14 
REMARK    7  A    between atoms: N_20  and  C_19 
REMARK       I    between atoms: C_22  and  N_20 
ROOT
ATOM      1  C   LIG d   1      -5.233  92.439 118.687  0.00  0.00     0.161 C 
ATOM      2  C   LIG d   1      -5.697  91.381 117.886  0.00  0.00     0.016 C 
ATOM      3  C   LIG d   1      -6.492  91.570 116.732  0.00  0.00     0.038 C 
ATOM      4  C   LIG d   1      -6.753  92.846 116.212  0.00  0.00     0.028 C 
ATOM      5  C   LIG d   1      -6.730  93.947 117.267  0.00  0.00    -0.047 C 
ATOM      6  C   LIG d   1      -5.414  93.842 118.072  0.00  0.00     0.091 C 
ENDROOT
BRANCH   1   7
ATOM      7  O   LIG d   1      -3.852  92.218 119.035  0.00  0.00    -0.368 OA
BRANCH   7   8
ATOM      8  C   LIG d   1      -2.998  91.725 117.973  0.00  0.00     0.119 C 
BRANCH   8   9
ATOM      9  C   LIG d   1      -2.322  90.438 118.483  0.00  0.00     0.028 C 
ATOM     10  C   LIG d   1      -2.823  89.182 117.750  0.00  0.00     0.006 C 
ENDBRANCH   8   9
BRANCH   8  11
ATOM     11  C   LIG d   1      -1.851  92.698 117.683  0.00  0.00     0.028 C 
ATOM     12  C   LIG d   1      -1.773  93.847 118.701  0.00  0.00     0.006 C 
ENDBRANCH   8  11
ENDBRANCH   7   8
ENDBRANCH   1   7
BRANCH   6  13
ATOM     13  N   LIG d   1      -5.348  94.830 119.181  0.00  0.00    -0.311 N 
ATOM     14  C   LIG d   1      -4.721  96.001 119.083  0.00  0.00     0.210 C 
ATOM     15  C   LIG d   1      -4.757  96.861 120.350  0.00  0.00     0.109 C 
ATOM     16  O   LIG d   1      -4.166  96.423 118.057  0.00  0.00    -0.276 OA
ATOM     17  H   LIG d   1      -5.799  94.583 120.040  0.00  0.00     0.149 HD
ENDBRANCH   6  13
BRANCH   5  18
ATOM     18  N   LIG d   1      -6.879  95.237 116.568  0.00  0.00     0.381 N 
ATOM     19  H   LIG d   1      -7.703  95.222 116.002  0.00  0.00    -0.090 HD
ATOM     20  H   LIG d   1      -6.085  95.375 115.967  0.00  0.00    -0.090 HD
ATOM     21  H   LIG d   1      -6.936  95.979 117.231  0.00  0.00    -0.090 HD
ENDBRANCH   5  18
BRANCH   3  22
ATOM     22  C   LIG d   1      -7.069  90.474 116.109  0.00  0.00     0.382 C 
ATOM     23  O   LIG d   1      -6.364  89.482 115.805  0.00  0.00    -0.241 OA
ATOM     24  O   LIG d   1      -8.277  90.483 115.806  0.00  0.00    -0.241 OA
ENDBRANCH   3  22
TORSDOF 7
ENDMDL
