MODEL 1
REMARK VINA RESULT:      -5.7      0.000      0.000
REMARK  7 active torsions:
REMARK  status: ('A' for Active; 'I' for Inactive)
REMARK    1  A    between atoms: C_2  and  C_3 
REMARK    2  A    between atoms: C_3  and  O_6 
REMARK    3  A    between atoms: C_3  and  C_4 
REMARK    4  A    between atoms: C_7  and  O_6 
REMARK    5  A    between atoms: C_9  and  C_10 
REMARK    6  A    between atoms: N_15  and  C_14 
REMARK    7  A    between atoms: N_20  and  C_19 
REMARK       I    between atoms: C_22  and  N_20 
ROOT
ATOM      1  C   LIG d   1      -0.534  60.440 118.644  0.00  0.00     0.161 C 
ATOM      2  C   LIG d   1      -1.870  60.031 118.797  0.00  0.00     0.016 C 
ATOM      3  C   LIG d   1      -2.326  58.730 118.485  0.00  0.00     0.038 C 
ATOM      4  C   LIG d   1      -1.442  57.697 118.139  0.00  0.00     0.028 C 
ATOM      5  C   LIG d   1      -0.157  58.194 117.485  0.00  0.00    -0.047 C 
ATOM      6  C   LIG d   1       0.465  59.295 118.374  0.00  0.00     0.091 C 
ENDROOT
BRANCH   1   7
ATOM      7  O   LIG d   1      -0.122  61.203 119.795  0.00  0.00    -0.368 OA
BRANCH   7   8
ATOM      8  C   LIG d   1       0.225  60.439 120.976  0.00  0.00     0.119 C 
BRANCH   8   9
ATOM      9  C   LIG d   1      -0.734  60.868 122.104  0.00  0.00     0.028 C 
ATOM     10  C   LIG d   1      -1.761  59.777 122.447  0.00  0.00     0.006 C 
ENDBRANCH   8   9
BRANCH   8  11
ATOM     11  C   LIG d   1       1.627  60.796 121.479  0.00  0.00     0.028 C 
ATOM     12  C   LIG d   1       2.416  59.569 121.963  0.00  0.00     0.006 C 
ENDBRANCH   8  11
ENDBRANCH   7   8
ENDBRANCH   1   7
BRANCH   6  13
ATOM     13  N   LIG d   1       1.681  59.895 117.766  0.00  0.00    -0.311 N 
ATOM     14  C   LIG d   1       2.915  59.459 118.013  0.00  0.00     0.210 C 
ATOM     15  C   LIG d   1       4.029  60.231 117.298  0.00  0.00     0.109 C 
ATOM     16  O   LIG d   1       3.191  58.486 118.731  0.00  0.00    -0.276 OA
ATOM     17  H   LIG d   1       1.547  60.669 117.146  0.00  0.00     0.149 HD
ENDBRANCH   6  13
BRANCH   5  18
ATOM     18  N   LIG d   1       0.730  57.029 117.303  0.00  0.00     0.381 N 
ATOM     19  H   LIG d   1       0.618  56.659 116.381  0.00  0.00    -0.090 HD
ATOM     20  H   LIG d   1       0.469  56.316 117.963  0.00  0.00    -0.090 HD
ATOM     21  H   LIG d   1       1.678  57.296 117.449  0.00  0.00    -0.090 HD
ENDBRANCH   5  18
BRANCH   3  22
ATOM     22  C   LIG d   1      -3.687  58.462 118.479  0.00  0.00     0.382 C 
ATOM     23  O   LIG d   1      -4.107  57.342 118.857  0.00  0.00    -0.241 OA
ATOM     24  O   LIG d   1      -4.496  59.310 118.058  0.00  0.00    -0.241 OA
ENDBRANCH   3  22
TORSDOF 7
ENDMDL
MODEL 2
REMARK VINA RESULT:      -5.0     19.702     21.359
REMARK  7 active torsions:
REMARK  status: ('A' for Active; 'I' for Inactive)
REMARK    1  A    between atoms: C_2  and  C_3 
REMARK    2  A    between atoms: C_3  and  O_6 
REMARK    3  A    between atoms: C_3  and  C_4 
REMARK    4  A    between atoms: C_7  and  O_6 
REMARK    5  A    between atoms: C_9  and  C_10 
REMARK    6  A    between atoms: N_15  and  C_14 
REMARK    7  A    between atoms: N_20  and  C_19 
REMARK       I    between atoms: C_22  and  N_20 
ROOT
ATOM      1  C   LIG d   1      -9.621  77.848 118.658  0.00  0.00     0.161 C 
ATOM      2  C   LIG d   1      -8.961  78.779 117.839  0.00  0.00     0.016 C 
ATOM      3  C   LIG d   1      -8.723  80.119 118.220  0.00  0.00     0.038 C 
ATOM      4  C   LIG d   1      -8.996  80.582 119.515  0.00  0.00     0.028 C 
ATOM      5  C   LIG d   1     -10.122  79.818 120.206  0.00  0.00    -0.047 C 
ATOM      6  C   LIG d   1      -9.828  78.303 120.118  0.00  0.00     0.091 C 
ENDROOT
BRANCH   1   7
ATOM      7  O   LIG d   1      -8.927  76.585 118.621  0.00  0.00    -0.368 OA
BRANCH   7   8
ATOM      8  C   LIG d   1      -7.918  76.443 117.591  0.00  0.00     0.119 C 
BRANCH   8   9
ATOM      9  C   LIG d   1      -8.333  75.260 116.695  0.00  0.00     0.028 C 
ATOM     10  C   LIG d   1      -8.067  73.899 117.359  0.00  0.00     0.006 C 
ENDBRANCH   8   9
BRANCH   8  11
ATOM     11  C   LIG d   1      -6.565  76.044 118.188  0.00  0.00     0.028 C 
ATOM     12  C   LIG d   1      -6.197  76.866 119.433  0.00  0.00     0.006 C 
ENDBRANCH   8  11
ENDBRANCH   7   8
ENDBRANCH   1   7
BRANCH   6  13
ATOM     13  N   LIG d   1     -10.922  77.480 120.695  0.00  0.00    -0.311 N 
ATOM     14  C   LIG d   1     -10.738  76.606 121.684  0.00  0.00     0.210 C 
ATOM     15  C   LIG d   1     -11.996  75.846 122.117  0.00  0.00     0.109 C 
ATOM     16  O   LIG d   1      -9.660  76.412 122.265  0.00  0.00    -0.276 OA
ATOM     17  H   LIG d   1     -11.836  77.596 120.304  0.00  0.00     0.149 HD
ENDBRANCH   6  13
BRANCH   5  18
ATOM     18  N   LIG d   1     -10.208  80.311 121.594  0.00  0.00     0.381 N 
ATOM     19  H   LIG d   1     -10.028  79.561 122.231  0.00  0.00    -0.090 HD
ATOM     20  H   LIG d   1     -11.139  80.650 121.761  0.00  0.00    -0.090 HD
ATOM     21  H   LIG d   1      -9.549  81.044 121.737  0.00  0.00    -0.090 HD
ENDBRANCH   5  18
BRANCH   3  22
ATOM     22  C   LIG d   1      -8.241  81.024 117.286  0.00  0.00     0.382 C 
ATOM     23  O   LIG d   1      -9.037  81.766 116.663  0.00  0.00    -0.241 OA
ATOM     24  O   LIG d   1      -7.024  81.075 117.026  0.00  0.00    -0.241 OA
ENDBRANCH   3  22
TORSDOF 7
ENDMDL
MODEL 3
REMARK VINA RESULT:      -4.9     33.609     35.002
REMARK  7 active torsions:
REMARK  status: ('A' for Active; 'I' for Inactive)
REMARK    1  A    between atoms: C_2  and  C_3 
REMARK    2  A    between atoms: C_3  and  O_6 
REMARK    3  A    between atoms: C_3  and  C_4 
REMARK    4  A    between atoms: C_7  and  O_6 
REMARK    5  A    between atoms: C_9  and  C_10 
REMARK    6  A    between atoms: N_15  and  C_14 
REMARK    7  A    between atoms: N_20  and  C_19 
REMARK       I    between atoms: C_22  and  N_20 
ROOT
ATOM      1  C   LIG d   1      -6.344  93.859 118.163  0.00  0.00     0.161 C 
ATOM      2  C   LIG d   1      -6.825  92.728 117.483  0.00  0.00     0.016 C 
ATOM      3  C   LIG d   1      -6.068  91.547 117.305  0.00  0.00     0.038 C 
ATOM      4  C   LIG d   1      -4.826  91.361 117.930  0.00  0.00     0.028 C 
ATOM      5  C   LIG d   1      -4.085  92.665 118.206  0.00  0.00    -0.047 C 
ATOM      6  C   LIG d   1      -5.034  93.634 118.947  0.00  0.00     0.091 C 
ENDROOT
BRANCH   1   7
ATOM      7  O   LIG d   1      -7.368  94.377 119.035  0.00  0.00    -0.368 OA
BRANCH   7   8
ATOM      8  C   LIG d   1      -8.391  95.188 118.406  0.00  0.00     0.119 C 
BRANCH   8   9
ATOM      9  C   LIG d   1      -7.795  96.590 118.178  0.00  0.00     0.028 C 
ATOM     10  C   LIG d   1      -7.253  97.216 119.474  0.00  0.00     0.006 C 
ENDBRANCH   8   9
BRANCH   8  11
ATOM     11  C   LIG d   1      -9.585  95.402 119.341  0.00  0.00     0.028 C 
ATOM     12  C   LIG d   1      -9.841  94.201 120.266  0.00  0.00     0.006 C 
ENDBRANCH   8  11
ENDBRANCH   7   8
ENDBRANCH   1   7
BRANCH   6  13
ATOM     13  N   LIG d   1      -4.416  94.965 119.181  0.00  0.00    -0.311 N 
ATOM     14  C   LIG d   1      -3.793  95.296 120.311  0.00  0.00     0.210 C 
ATOM     15  C   LIG d   1      -3.244  96.726 120.352  0.00  0.00     0.109 C 
ATOM     16  O   LIG d   1      -3.615  94.531 121.271  0.00  0.00    -0.276 OA
ATOM     17  H   LIG d   1      -4.486  95.637 118.442  0.00  0.00     0.149 HD
ENDBRANCH   6  13
BRANCH   5  18
ATOM     18  N   LIG d   1      -2.875  92.335 118.982  0.00  0.00     0.381 N 
ATOM     19  H   LIG d   1      -2.072  92.369 118.387  0.00  0.00    -0.090 HD
ATOM     20  H   LIG d   1      -2.963  91.400 119.339  0.00  0.00    -0.090 HD
ATOM     21  H   LIG d   1      -2.767  92.978 119.735  0.00  0.00    -0.090 HD
ENDBRANCH   5  18
BRANCH   3  22
ATOM     22  C   LIG d   1      -6.536  90.552 116.461  0.00  0.00     0.382 C 
ATOM     23  O   LIG d   1      -7.771  90.368 116.332  0.00  0.00    -0.241 OA
ATOM     24  O   LIG d   1      -5.739  89.806 115.860  0.00  0.00    -0.241 OA
ENDBRANCH   3  22
TORSDOF 7
ENDMDL
MODEL 4
REMARK VINA RESULT:      -4.9     16.427     18.169
REMARK  7 active torsions:
REMARK  status: ('A' for Active; 'I' for Inactive)
REMARK    1  A    between atoms: C_2  and  C_3 
REMARK    2  A    between atoms: C_3  and  O_6 
REMARK    3  A    between atoms: C_3  and  C_4 
REMARK    4  A    between atoms: C_7  and  O_6 
REMARK    5  A    between atoms: C_9  and  C_10 
REMARK    6  A    between atoms: N_15  and  C_14 
REMARK    7  A    between atoms: N_20  and  C_19 
REMARK       I    between atoms: C_22  and  N_20 
ROOT
ATOM      1  C   LIG d   1      -5.041  75.946 116.847  0.00  0.00     0.161 C 
ATOM      2  C   LIG d   1      -4.037  74.981 117.027  0.00  0.00     0.016 C 
ATOM      3  C   LIG d   1      -3.175  74.953 118.148  0.00  0.00     0.038 C 
ATOM      4  C   LIG d   1      -3.360  75.806 119.246  0.00  0.00     0.028 C 
ATOM      5  C   LIG d   1      -4.040  77.122 118.883  0.00  0.00    -0.047 C 
ATOM      6  C   LIG d   1      -5.330  76.818 118.088  0.00  0.00     0.091 C 
ENDROOT
BRANCH   1   7
ATOM      7  O   LIG d   1      -6.251  75.313 116.387  0.00  0.00    -0.368 OA
BRANCH   7   8
ATOM      8  C   LIG d   1      -6.971  74.526 117.367  0.00  0.00     0.119 C 
BRANCH   8   9
ATOM      9  C   LIG d   1      -7.217  73.134 116.753  0.00  0.00     0.028 C 
ATOM     10  C   LIG d   1      -8.335  72.363 117.476  0.00  0.00     0.006 C 
ENDBRANCH   8   9
BRANCH   8  11
ATOM     11  C   LIG d   1      -8.364  75.104 117.632  0.00  0.00     0.028 C 
ATOM     12  C   LIG d   1      -8.886  75.958 116.466  0.00  0.00     0.006 C 
ENDBRANCH   8  11
ENDBRANCH   7   8
ENDBRANCH   1   7
BRANCH   6  13
ATOM     13  N   LIG d   1      -6.013  78.052 117.621  0.00  0.00    -0.311 N 
ATOM     14  C   LIG d   1      -7.009  78.635 118.286  0.00  0.00     0.210 C 
ATOM     15  C   LIG d   1      -7.586  79.888 117.619  0.00  0.00     0.109 C 
ATOM     16  O   LIG d   1      -7.447  78.252 119.381  0.00  0.00    -0.276 OA
ATOM     17  H   LIG d   1      -5.699  78.448 116.757  0.00  0.00     0.149 HD
ENDBRANCH   6  13
BRANCH   5  18
ATOM     18  N   LIG d   1      -4.294  77.853 120.139  0.00  0.00     0.381 N 
ATOM     19  H   LIG d   1      -3.476  78.364 120.405  0.00  0.00    -0.090 HD
ATOM     20  H   LIG d   1      -4.502  77.190 120.865  0.00  0.00    -0.090 HD
ATOM     21  H   LIG d   1      -5.061  78.478 120.020  0.00  0.00    -0.090 HD
ENDBRANCH   5  18
BRANCH   3  22
ATOM     22  C   LIG d   1      -2.089  74.091 118.159  0.00  0.00     0.382 C 
ATOM     23  O   LIG d   1      -1.225  74.159 117.252  0.00  0.00    -0.241 OA
ATOM     24  O   LIG d   1      -1.986  73.216 119.040  0.00  0.00    -0.241 OA
ENDBRANCH   3  22
TORSDOF 7
ENDMDL
MODEL 5
REMARK VINA RESULT:      -4.9     19.720     21.204
REMARK  7 active torsions:
REMARK  status: ('A' for Active; 'I' for Inactive)
REMARK    1  A    between atoms: C_2  and  C_3 
REMARK    2  A    between atoms: C_3  and  O_6 
REMARK    3  A    between atoms: C_3  and  C_4 
REMARK    4  A    between atoms: C_7  and  O_6 
REMARK    5  A    between atoms: C_9  and  C_10 
REMARK    6  A    between atoms: N_15  and  C_14 
REMARK    7  A    between atoms: N_20  and  C_19 
REMARK       I    between atoms: C_22  and  N_20 
ROOT
ATOM      1  C   LIG d   1      -9.675  77.848 118.034  0.00  0.00     0.161 C 
ATOM      2  C   LIG d   1      -8.912  76.673 117.922  0.00  0.00     0.016 C 
ATOM      3  C   LIG d   1      -7.506  76.669 117.779  0.00  0.00     0.038 C 
ATOM      4  C   LIG d   1      -6.746  77.843 117.890  0.00  0.00     0.028 C 
ATOM      5  C   LIG d   1      -7.513  79.101 117.498  0.00  0.00    -0.047 C 
ATOM      6  C   LIG d   1      -8.853  79.132 118.269  0.00  0.00     0.091 C 
ENDROOT
BRANCH   1   7
ATOM      7  O   LIG d   1     -10.666  77.690 119.069  0.00  0.00    -0.368 OA
BRANCH   7   8
ATOM      8  C   LIG d   1     -10.173  77.710 120.431  0.00  0.00     0.119 C 
BRANCH   8   9
ATOM      9  C   LIG d   1     -10.621  76.398 121.104  0.00  0.00     0.028 C 
ATOM     10  C   LIG d   1      -9.436  75.476 121.440  0.00  0.00     0.006 C 
ENDBRANCH   8   9
BRANCH   8  11
ATOM     11  C   LIG d   1     -10.830  78.828 121.246  0.00  0.00     0.028 C 
ATOM     12  C   LIG d   1      -9.834  79.568 122.153  0.00  0.00     0.006 C 
ENDBRANCH   8  11
ENDBRANCH   7   8
ENDBRANCH   1   7
BRANCH   6  13
ATOM     13  N   LIG d   1      -9.703  80.288 117.880  0.00  0.00    -0.311 N 
ATOM     14  C   LIG d   1      -9.713  81.445 118.539  0.00  0.00     0.210 C 
ATOM     15  C   LIG d   1     -10.678  82.497 117.984  0.00  0.00     0.109 C 
ATOM     16  O   LIG d   1      -8.990  81.711 119.512  0.00  0.00    -0.276 OA
ATOM     17  H   LIG d   1     -10.298  80.169 117.084  0.00  0.00     0.149 HD
ENDBRANCH   6  13
BRANCH   5  18
ATOM     18  N   LIG d   1      -6.650  80.260 117.792  0.00  0.00     0.381 N 
ATOM     19  H   LIG d   1      -6.035  80.428 117.021  0.00  0.00    -0.090 HD
ATOM     20  H   LIG d   1      -6.091  80.052 118.601  0.00  0.00    -0.090 HD
ATOM     21  H   LIG d   1      -7.208  81.067 117.963  0.00  0.00    -0.090 HD
ENDBRANCH   5  18
BRANCH   3  22
ATOM     22  C   LIG d   1      -6.849  75.485 117.482  0.00  0.00     0.382 C 
ATOM     23  O   LIG d   1      -5.595  75.437 117.517  0.00  0.00    -0.241 OA
ATOM     24  O   LIG d   1      -7.491  74.475 117.136  0.00  0.00    -0.241 OA
ENDBRANCH   3  22
TORSDOF 7
ENDMDL
MODEL 6
REMARK VINA RESULT:      -4.8     20.170     21.602
REMARK  7 active torsions:
REMARK  status: ('A' for Active; 'I' for Inactive)
REMARK    1  A    between atoms: C_2  and  C_3 
REMARK    2  A    between atoms: C_3  and  O_6 
REMARK    3  A    between atoms: C_3  and  C_4 
REMARK    4  A    between atoms: C_7  and  O_6 
REMARK    5  A    between atoms: C_9  and  C_10 
REMARK    6  A    between atoms: N_15  and  C_14 
REMARK    7  A    between atoms: N_20  and  C_19 
REMARK       I    between atoms: C_22  and  N_20 
ROOT
ATOM      1  C   LIG d   1      -8.464  78.976 118.735  0.00  0.00     0.161 C 
ATOM      2  C   LIG d   1      -9.415  79.782 118.087  0.00  0.00     0.016 C 
ATOM      3  C   LIG d   1      -9.379  81.195 118.105  0.00  0.00     0.038 C 
ATOM      4  C   LIG d   1      -8.297  81.903 118.650  0.00  0.00     0.028 C 
ATOM      5  C   LIG d   1      -7.571  81.142 119.755  0.00  0.00    -0.047 C 
ATOM      6  C   LIG d   1      -7.215  79.728 119.241  0.00  0.00     0.091 C 
ENDROOT
BRANCH   1   7
ATOM      7  O   LIG d   1      -8.078  77.887 117.874  0.00  0.00    -0.368 OA
BRANCH   7   8
ATOM      8  C   LIG d   1      -8.833  76.659 118.022  0.00  0.00     0.119 C 
BRANCH   8   9
ATOM      9  C   LIG d   1      -8.155  75.830 119.130  0.00  0.00     0.028 C 
ATOM     10  C   LIG d   1      -9.011  75.745 120.405  0.00  0.00     0.006 C 
ENDBRANCH   8   9
BRANCH   8  11
ATOM     11  C   LIG d   1      -8.746  75.796 116.760  0.00  0.00     0.028 C 
ATOM     12  C   LIG d   1      -8.086  74.431 117.015  0.00  0.00     0.006 C 
ENDBRANCH   8  11
ENDBRANCH   7   8
ENDBRANCH   1   7
BRANCH   6  13
ATOM     13  N   LIG d   1      -6.577  78.888 120.287  0.00  0.00    -0.311 N 
ATOM     14  C   LIG d   1      -5.461  78.189 120.087  0.00  0.00     0.210 C 
ATOM     15  C   LIG d   1      -4.984  77.374 121.293  0.00  0.00     0.109 C 
ATOM     16  O   LIG d   1      -4.804  78.192 119.035  0.00  0.00    -0.276 OA
ATOM     17  H   LIG d   1      -7.027  78.853 121.181  0.00  0.00     0.149 HD
ENDBRANCH   6  13
BRANCH   5  18
ATOM     18  N   LIG d   1      -6.386  81.934 120.136  0.00  0.00     0.381 N 
ATOM     19  H   LIG d   1      -6.391  82.807 119.648  0.00  0.00    -0.090 HD
ATOM     20  H   LIG d   1      -5.559  81.429 119.871  0.00  0.00    -0.090 HD
ATOM     21  H   LIG d   1      -6.385  82.094 121.119  0.00  0.00    -0.090 HD
ENDBRANCH   5  18
BRANCH   3  22
ATOM     22  C   LIG d   1     -10.454  81.917 117.609  0.00  0.00     0.382 C 
ATOM     23  O   LIG d   1     -10.996  81.572 116.531  0.00  0.00    -0.241 OA
ATOM     24  O   LIG d   1     -10.861  82.933 118.202  0.00  0.00    -0.241 OA
ENDBRANCH   3  22
TORSDOF 7
ENDMDL
MODEL 7
REMARK VINA RESULT:      -4.8     19.022     20.429
REMARK  7 active torsions:
REMARK  status: ('A' for Active; 'I' for Inactive)
REMARK    1  A    between atoms: C_2  and  C_3 
REMARK    2  A    between atoms: C_3  and  O_6 
REMARK    3  A    between atoms: C_3  and  C_4 
REMARK    4  A    between atoms: C_7  and  O_6 
REMARK    5  A    between atoms: C_9  and  C_10 
REMARK    6  A    between atoms: N_15  and  C_14 
REMARK    7  A    between atoms: N_20  and  C_19 
REMARK       I    between atoms: C_22  and  N_20 
ROOT
ATOM      1  C   LIG d   1      -6.907  78.175 117.319  0.00  0.00     0.161 C 
ATOM      2  C   LIG d   1      -7.069  79.570 117.352  0.00  0.00     0.016 C 
ATOM      3  C   LIG d   1      -8.252  80.206 117.795  0.00  0.00     0.038 C 
ATOM      4  C   LIG d   1      -9.304  79.488 118.382  0.00  0.00     0.028 C 
ATOM      5  C   LIG d   1      -9.391  78.042 117.906  0.00  0.00    -0.047 C 
ATOM      6  C   LIG d   1      -8.003  77.379 118.060  0.00  0.00     0.091 C 
ENDROOT
BRANCH   1   7
ATOM      7  O   LIG d   1      -5.604  77.823 117.824  0.00  0.00    -0.368 OA
BRANCH   7   8
ATOM      8  C   LIG d   1      -4.633  77.394 116.838  0.00  0.00     0.119 C 
BRANCH   8   9
ATOM      9  C   LIG d   1      -4.356  75.898 117.082  0.00  0.00     0.028 C 
ATOM     10  C   LIG d   1      -4.875  75.010 115.938  0.00  0.00     0.006 C 
ENDBRANCH   8   9
BRANCH   8  11
ATOM     11  C   LIG d   1      -3.286  78.094 117.041  0.00  0.00     0.028 C 
ATOM     12  C   LIG d   1      -3.181  78.801 118.402  0.00  0.00     0.006 C 
ENDBRANCH   8  11
ENDBRANCH   7   8
ENDBRANCH   1   7
BRANCH   6  13
ATOM     13  N   LIG d   1      -7.978  75.988 117.538  0.00  0.00    -0.311 N 
ATOM     14  C   LIG d   1      -8.180  74.915 118.302  0.00  0.00     0.210 C 
ATOM     15  C   LIG d   1      -8.092  73.574 117.568  0.00  0.00     0.109 C 
ATOM     16  O   LIG d   1      -8.457  74.949 119.510  0.00  0.00    -0.276 OA
ATOM     17  H   LIG d   1      -7.792  75.870 116.562  0.00  0.00     0.149 HD
ENDBRANCH   6  13
BRANCH   5  18
ATOM     18  N   LIG d   1     -10.441  77.374 118.698  0.00  0.00     0.381 N 
ATOM     19  H   LIG d   1     -10.777  76.571 118.206  0.00  0.00    -0.090 HD
ATOM     20  H   LIG d   1     -11.208  78.011 118.823  0.00  0.00    -0.090 HD
ATOM     21  H   LIG d   1     -10.078  77.102 119.585  0.00  0.00    -0.090 HD
ENDBRANCH   5  18
BRANCH   3  22
ATOM     22  C   LIG d   1      -8.406  81.572 117.616  0.00  0.00     0.382 C 
ATOM     23  O   LIG d   1      -8.282  82.351 118.592  0.00  0.00    -0.241 OA
ATOM     24  O   LIG d   1      -8.710  82.033 116.499  0.00  0.00    -0.241 OA
ENDBRANCH   3  22
TORSDOF 7
ENDMDL
MODEL 8
REMARK VINA RESULT:      -4.8      2.644      4.719
REMARK  7 active torsions:
REMARK  status: ('A' for Active; 'I' for Inactive)
REMARK    1  A    between atoms: C_2  and  C_3 
REMARK    2  A    between atoms: C_3  and  O_6 
REMARK    3  A    between atoms: C_3  and  C_4 
REMARK    4  A    between atoms: C_7  and  O_6 
REMARK    5  A    between atoms: C_9  and  C_10 
REMARK    6  A    between atoms: N_15  and  C_14 
REMARK    7  A    between atoms: N_20  and  C_19 
REMARK       I    between atoms: C_22  and  N_20 
ROOT
ATOM      1  C   LIG d   1      -1.123  58.052 120.082  0.00  0.00     0.161 C 
ATOM      2  C   LIG d   1      -0.196  57.024 120.318  0.00  0.00     0.016 C 
ATOM      3  C   LIG d   1       0.049  55.972 119.405  0.00  0.00     0.038 C 
ATOM      4  C   LIG d   1      -0.513  55.961 118.119  0.00  0.00     0.028 C 
ATOM      5  C   LIG d   1      -1.839  56.707 118.031  0.00  0.00    -0.047 C 
ATOM      6  C   LIG d   1      -1.663  58.118 118.638  0.00  0.00     0.091 C 
ENDROOT
BRANCH   1   7
ATOM      7  O   LIG d   1      -0.553  59.320 120.462  0.00  0.00    -0.368 OA
BRANCH   7   8
ATOM      8  C   LIG d   1       0.748  59.627 119.904  0.00  0.00     0.119 C 
BRANCH   8   9
ATOM      9  C   LIG d   1       1.596  60.258 121.025  0.00  0.00     0.028 C 
ATOM     10  C   LIG d   1       3.105  60.156 120.748  0.00  0.00     0.006 C 
ENDBRANCH   8   9
BRANCH   8  11
ATOM     11  C   LIG d   1       0.649  60.702 118.817  0.00  0.00     0.028 C 
ATOM     12  C   LIG d   1       1.154  60.215 117.450  0.00  0.00     0.006 C 
ENDBRANCH   8  11
ENDBRANCH   7   8
ENDBRANCH   1   7
BRANCH   6  13
ATOM     13  N   LIG d   1      -2.935  58.885 118.668  0.00  0.00    -0.311 N 
ATOM     14  C   LIG d   1      -3.306  59.729 117.706  0.00  0.00     0.210 C 
ATOM     15  C   LIG d   1      -4.646  60.432 117.944  0.00  0.00     0.109 C 
ATOM     16  O   LIG d   1      -2.667  59.936 116.664  0.00  0.00    -0.276 OA
ATOM     17  H   LIG d   1      -3.529  58.753 119.464  0.00  0.00     0.149 HD
ENDBRANCH   6  13
BRANCH   5  18
ATOM     18  N   LIG d   1      -2.242  56.735 116.612  0.00  0.00     0.381 N 
ATOM     19  H   LIG d   1      -3.012  57.361 116.491  0.00  0.00    -0.090 HD
ATOM     20  H   LIG d   1      -2.538  55.814 116.341  0.00  0.00    -0.090 HD
ATOM     21  H   LIG d   1      -1.476  57.025 116.046  0.00  0.00    -0.090 HD
ENDBRANCH   5  18
BRANCH   3  22
ATOM     22  C   LIG d   1       0.832  54.895 119.791  0.00  0.00     0.382 C 
ATOM     23  O   LIG d   1       1.408  54.196 118.923  0.00  0.00    -0.241 OA
ATOM     24  O   LIG d   1       0.934  54.587 120.994  0.00  0.00    -0.241 OA
ENDBRANCH   3  22
TORSDOF 7
ENDMDL
MODEL 9
REMARK VINA RESULT:      -4.7     33.106     34.545
REMARK  7 active torsions:
REMARK  status: ('A' for Active; 'I' for Inactive)
REMARK    1  A    between atoms: C_2  and  C_3 
REMARK    2  A    between atoms: C_3  and  O_6 
REMARK    3  A    between atoms: C_3  and  C_4 
REMARK    4  A    between atoms: C_7  and  O_6 
REMARK    5  A    between atoms: C_9  and  C_10 
REMARK    6  A    between atoms: N_15  and  C_14 
REMARK    7  A    between atoms: N_20  and  C_19 
REMARK       I    between atoms: C_22  and  N_20 
ROOT
ATOM      1  C   LIG d   1      -5.646  92.551 119.522  0.00  0.00     0.161 C 
ATOM      2  C   LIG d   1      -5.739  91.593 118.499  0.00  0.00     0.016 C 
ATOM      3  C   LIG d   1      -6.382  91.834 117.263  0.00  0.00     0.038 C 
ATOM      4  C   LIG d   1      -6.848  93.108 116.906  0.00  0.00     0.028 C 
ATOM      5  C   LIG d   1      -7.227  93.973 118.104  0.00  0.00    -0.047 C 
ATOM      6  C   LIG d   1      -6.051  93.981 119.108  0.00  0.00     0.091 C 
ENDROOT
BRANCH   1   7
ATOM      7  O   LIG d   1      -4.316  92.548 120.076  0.00  0.00    -0.368 OA
BRANCH   7   8
ATOM      8  C   LIG d   1      -3.329  93.340 119.369  0.00  0.00     0.119 C 
BRANCH   8   9
ATOM      9  C   LIG d   1      -2.270  92.370 118.810  0.00  0.00     0.028 C 
ATOM     10  C   LIG d   1      -2.087  91.127 119.698  0.00  0.00     0.006 C 
ENDBRANCH   8   9
BRANCH   8  11
ATOM     11  C   LIG d   1      -2.569  94.264 120.324  0.00  0.00     0.028 C 
ATOM     12  C   LIG d   1      -3.048  94.142 121.779  0.00  0.00     0.006 C 
ENDBRANCH   8  11
ENDBRANCH   7   8
ENDBRANCH   1   7
BRANCH   6  13
ATOM     13  N   LIG d   1      -6.370  94.736 120.348  0.00  0.00    -0.311 N 
ATOM     14  C   LIG d   1      -6.034  96.011 120.537  0.00  0.00     0.210 C 
ATOM     15  C   LIG d   1      -6.441  96.591 121.895  0.00  0.00     0.109 C 
ATOM     16  O   LIG d   1      -5.466  96.725 119.698  0.00  0.00    -0.276 OA
ATOM     17  H   LIG d   1      -6.858  94.242 121.069  0.00  0.00     0.149 HD
ENDBRANCH   6  13
BRANCH   5  18
ATOM     18  N   LIG d   1      -7.563  95.316 117.596  0.00  0.00     0.381 N 
ATOM     19  H   LIG d   1      -7.209  95.425 116.666  0.00  0.00    -0.090 HD
ATOM     20  H   LIG d   1      -7.126  96.005 118.182  0.00  0.00    -0.090 HD
ATOM     21  H   LIG d   1      -8.551  95.445 117.600  0.00  0.00    -0.090 HD
ENDBRANCH   5  18
BRANCH   3  22
ATOM     22  C   LIG d   1      -6.601  90.783 116.385  0.00  0.00     0.382 C 
ATOM     23  O   LIG d   1      -5.676  89.972 116.136  0.00  0.00    -0.241 OA
ATOM     24  O   LIG d   1      -7.696  90.662 115.805  0.00  0.00    -0.241 OA
ENDBRANCH   3  22
TORSDOF 7
ENDMDL
