MODEL 1
REMARK VINA RESULT:      -5.3      0.000      0.000
REMARK  7 active torsions:
REMARK  status: ('A' for Active; 'I' for Inactive)
REMARK    1  A    between atoms: C_2  and  C_3 
REMARK    2  A    between atoms: C_3  and  O_6 
REMARK    3  A    between atoms: C_3  and  C_4 
REMARK    4  A    between atoms: C_7  and  O_6 
REMARK    5  A    between atoms: C_9  and  C_10 
REMARK    6  A    between atoms: N_15  and  C_14 
REMARK    7  A    between atoms: N_20  and  C_19 
REMARK       I    between atoms: C_22  and  N_20 
ROOT
ATOM      1  C   LIG d   1      -8.103  75.239 116.952  0.00  0.00     0.161 C 
ATOM      2  C   LIG d   1      -6.888  74.659 116.552  0.00  0.00     0.016 C 
ATOM      3  C   LIG d   1      -5.735  74.626 117.370  0.00  0.00     0.038 C 
ATOM      4  C   LIG d   1      -5.764  75.041 118.710  0.00  0.00     0.028 C 
ATOM      5  C   LIG d   1      -6.828  76.095 118.994  0.00  0.00    -0.047 C 
ATOM      6  C   LIG d   1      -8.187  75.597 118.450  0.00  0.00     0.091 C 
ENDROOT
BRANCH   1   7
ATOM      7  O   LIG d   1      -9.200  74.382 116.579  0.00  0.00    -0.368 OA
BRANCH   7   8
ATOM      8  C   LIG d   1      -9.270  73.105 117.260  0.00  0.00     0.119 C 
BRANCH   8   9
ATOM      9  C   LIG d   1      -9.282  72.005 116.181  0.00  0.00     0.028 C 
ATOM     10  C   LIG d   1      -8.093  71.038 116.317  0.00  0.00     0.006 C 
ENDBRANCH   8   9
BRANCH   8  11
ATOM     11  C   LIG d   1     -10.594  72.948 118.014  0.00  0.00     0.028 C 
ATOM     12  C   LIG d   1     -11.616  74.039 117.657  0.00  0.00     0.006 C 
ENDBRANCH   8  11
ENDBRANCH   7   8
ENDBRANCH   1   7
BRANCH   6  13
ATOM     13  N   LIG d   1      -9.267  76.605 118.612  0.00  0.00    -0.311 N 
ATOM     14  C   LIG d   1     -10.107  76.620 119.646  0.00  0.00     0.210 C 
ATOM     15  C   LIG d   1     -11.158  77.733 119.608  0.00  0.00     0.109 C 
ATOM     16  O   LIG d   1     -10.061  75.837 120.606  0.00  0.00    -0.276 OA
ATOM     17  H   LIG d   1      -9.356  77.297 117.894  0.00  0.00     0.149 HD
ENDBRANCH   6  13
BRANCH   5  18
ATOM     18  N   LIG d   1      -6.841  76.334 120.450  0.00  0.00     0.381 N 
ATOM     19  H   LIG d   1      -6.543  77.270 120.642  0.00  0.00    -0.090 HD
ATOM     20  H   LIG d   1      -6.196  75.701 120.889  0.00  0.00    -0.090 HD
ATOM     21  H   LIG d   1      -7.758  76.190 120.811  0.00  0.00    -0.090 HD
ENDBRANCH   5  18
BRANCH   3  22
ATOM     22  C   LIG d   1      -4.524  74.211 116.836  0.00  0.00     0.382 C 
ATOM     23  O   LIG d   1      -3.856  73.320 117.414  0.00  0.00    -0.241 OA
ATOM     24  O   LIG d   1      -4.071  74.748 115.807  0.00  0.00    -0.241 OA
ENDBRANCH   3  22
TORSDOF 7
ENDMDL
MODEL 2
REMARK VINA RESULT:      -5.1      2.465      4.264
REMARK  7 active torsions:
REMARK  status: ('A' for Active; 'I' for Inactive)
REMARK    1  A    between atoms: C_2  and  C_3 
REMARK    2  A    between atoms: C_3  and  O_6 
REMARK    3  A    between atoms: C_3  and  C_4 
REMARK    4  A    between atoms: C_7  and  O_6 
REMARK    5  A    between atoms: C_9  and  C_10 
REMARK    6  A    between atoms: N_15  and  C_14 
REMARK    7  A    between atoms: N_20  and  C_19 
REMARK       I    between atoms: C_22  and  N_20 
ROOT
ATOM      1  C   LIG d   1      -8.125  75.322 116.644  0.00  0.00     0.161 C 
ATOM      2  C   LIG d   1      -8.616  74.015 116.493  0.00  0.00     0.016 C 
ATOM      3  C   LIG d   1      -7.787  72.870 116.475  0.00  0.00     0.038 C 
ATOM      4  C   LIG d   1      -6.416  72.942 116.759  0.00  0.00     0.028 C 
ATOM      5  C   LIG d   1      -5.797  74.294 116.418  0.00  0.00    -0.047 C 
ATOM      6  C   LIG d   1      -6.644  75.412 117.068  0.00  0.00     0.091 C 
ENDROOT
BRANCH   1   7
ATOM      7  O   LIG d   1      -8.955  76.052 117.569  0.00  0.00    -0.368 OA
BRANCH   7   8
ATOM      8  C   LIG d   1      -9.786  75.253 118.447  0.00  0.00     0.119 C 
BRANCH   8   9
ATOM      9  C   LIG d   1     -11.253  75.631 118.165  0.00  0.00     0.028 C 
ATOM     10  C   LIG d   1     -12.085  74.431 117.682  0.00  0.00     0.006 C 
ENDBRANCH   8   9
BRANCH   8  11
ATOM     11  C   LIG d   1      -9.550  75.612 119.917  0.00  0.00     0.028 C 
ATOM     12  C   LIG d   1      -8.436  76.654 120.105  0.00  0.00     0.006 C 
ENDBRANCH   8  11
ENDBRANCH   7   8
ENDBRANCH   1   7
BRANCH   6  13
ATOM     13  N   LIG d   1      -6.156  76.770 116.714  0.00  0.00    -0.311 N 
ATOM     14  C   LIG d   1      -5.308  77.465 117.470  0.00  0.00     0.210 C 
ATOM     15  C   LIG d   1      -4.950  78.854 116.932  0.00  0.00     0.109 C 
ATOM     16  O   LIG d   1      -4.795  77.051 118.520  0.00  0.00    -0.276 OA
ATOM     17  H   LIG d   1      -6.498  77.170 115.862  0.00  0.00     0.149 HD
ENDBRANCH   6  13
BRANCH   5  18
ATOM     18  N   LIG d   1      -4.400  74.277 116.892  0.00  0.00     0.381 N 
ATOM     19  H   LIG d   1      -4.161  73.359 117.209  0.00  0.00    -0.090 HD
ATOM     20  H   LIG d   1      -4.312  74.911 117.667  0.00  0.00    -0.090 HD
ATOM     21  H   LIG d   1      -3.787  74.553 116.157  0.00  0.00    -0.090 HD
ENDBRANCH   5  18
BRANCH   3  22
ATOM     22  C   LIG d   1      -8.324  71.639 116.129  0.00  0.00     0.382 C 
ATOM     23  O   LIG d   1      -9.564  71.458 116.184  0.00  0.00    -0.241 OA
ATOM     24  O   LIG d   1      -7.580  70.694 115.805  0.00  0.00    -0.241 OA
ENDBRANCH   3  22
TORSDOF 7
ENDMDL
MODEL 3
REMARK VINA RESULT:      -5.0      2.226      4.478
REMARK  7 active torsions:
REMARK  status: ('A' for Active; 'I' for Inactive)
REMARK    1  A    between atoms: C_2  and  C_3 
REMARK    2  A    between atoms: C_3  and  O_6 
REMARK    3  A    between atoms: C_3  and  C_4 
REMARK    4  A    between atoms: C_7  and  O_6 
REMARK    5  A    between atoms: C_9  and  C_10 
REMARK    6  A    between atoms: N_15  and  C_14 
REMARK    7  A    between atoms: N_20  and  C_19 
REMARK       I    between atoms: C_22  and  N_20 
ROOT
ATOM      1  C   LIG d   1      -8.802  75.039 118.691  0.00  0.00     0.161 C 
ATOM      2  C   LIG d   1      -8.376  73.996 117.852  0.00  0.00     0.016 C 
ATOM      3  C   LIG d   1      -9.249  73.266 117.012  0.00  0.00     0.038 C 
ATOM      4  C   LIG d   1     -10.592  73.634 116.841  0.00  0.00     0.028 C 
ATOM      5  C   LIG d   1     -11.179  74.360 118.046  0.00  0.00    -0.047 C 
ATOM      6  C   LIG d   1     -10.243  75.527 118.435  0.00  0.00     0.091 C 
ENDROOT
BRANCH   1   7
ATOM      7  O   LIG d   1      -7.877  76.141 118.608  0.00  0.00    -0.368 OA
BRANCH   7   8
ATOM      8  C   LIG d   1      -6.507  75.801 118.282  0.00  0.00     0.119 C 
BRANCH   8   9
ATOM      9  C   LIG d   1      -5.665  76.001 119.556  0.00  0.00     0.028 C 
ATOM     10  C   LIG d   1      -4.363  75.181 119.534  0.00  0.00     0.006 C 
ENDBRANCH   8   9
BRANCH   8  11
ATOM     11  C   LIG d   1      -5.922  76.772 117.252  0.00  0.00     0.028 C 
ATOM     12  C   LIG d   1      -6.082  76.276 115.806  0.00  0.00     0.006 C 
ENDBRANCH   8  11
ENDBRANCH   7   8
ENDBRANCH   1   7
BRANCH   6  13
ATOM     13  N   LIG d   1     -10.701  76.238 119.657  0.00  0.00    -0.311 N 
ATOM     14  C   LIG d   1     -10.804  77.564 119.738  0.00  0.00     0.210 C 
ATOM     15  C   LIG d   1     -11.276  78.093 121.096  0.00  0.00     0.109 C 
ATOM     16  O   LIG d   1     -10.580  78.349 118.805  0.00  0.00    -0.276 OA
ATOM     17  H   LIG d   1     -10.933  75.676 120.452  0.00  0.00     0.149 HD
ENDBRANCH   6  13
BRANCH   5  18
ATOM     18  N   LIG d   1     -12.537  74.806 117.680  0.00  0.00     0.381 N 
ATOM     19  H   LIG d   1     -12.842  75.519 118.312  0.00  0.00    -0.090 HD
ATOM     20  H   LIG d   1     -13.167  74.026 117.756  0.00  0.00    -0.090 HD
ATOM     21  H   LIG d   1     -12.541  75.155 116.747  0.00  0.00    -0.090 HD
ENDBRANCH   5  18
BRANCH   3  22
ATOM     22  C   LIG d   1      -8.789  72.131 116.363  0.00  0.00     0.382 C 
ATOM     23  O   LIG d   1      -9.527  71.121 116.267  0.00  0.00    -0.241 OA
ATOM     24  O   LIG d   1      -7.629  72.088 115.911  0.00  0.00    -0.241 OA
ENDBRANCH   3  22
TORSDOF 7
ENDMDL
MODEL 4
REMARK VINA RESULT:      -4.8      1.892      4.312
REMARK  7 active torsions:
REMARK  status: ('A' for Active; 'I' for Inactive)
REMARK    1  A    between atoms: C_2  and  C_3 
REMARK    2  A    between atoms: C_3  and  O_6 
REMARK    3  A    between atoms: C_3  and  C_4 
REMARK    4  A    between atoms: C_7  and  O_6 
REMARK    5  A    between atoms: C_9  and  C_10 
REMARK    6  A    between atoms: N_15  and  C_14 
REMARK    7  A    between atoms: N_20  and  C_19 
REMARK       I    between atoms: C_22  and  N_20 
ROOT
ATOM      1  C   LIG d   1      -7.934  74.619 117.220  0.00  0.00     0.161 C 
ATOM      2  C   LIG d   1      -7.790  73.288 116.796  0.00  0.00     0.016 C 
ATOM      3  C   LIG d   1      -8.881  72.409 116.607  0.00  0.00     0.038 C 
ATOM      4  C   LIG d   1     -10.210  72.851 116.684  0.00  0.00     0.028 C 
ATOM      5  C   LIG d   1     -10.396  74.055 117.601  0.00  0.00    -0.047 C 
ATOM      6  C   LIG d   1      -9.382  75.151 117.202  0.00  0.00     0.091 C 
ENDROOT
BRANCH   1   7
ATOM      7  O   LIG d   1      -7.076  75.476 116.440  0.00  0.00    -0.368 OA
BRANCH   7   8
ATOM      8  C   LIG d   1      -5.929  76.029 117.131  0.00  0.00     0.119 C 
BRANCH   8   9
ATOM      9  C   LIG d   1      -4.665  75.456 116.462  0.00  0.00     0.028 C 
ATOM     10  C   LIG d   1      -4.226  74.119 117.082  0.00  0.00     0.006 C 
ENDBRANCH   8   9
BRANCH   8  11
ATOM     11  C   LIG d   1      -5.870  75.551 118.585  0.00  0.00     0.028 C 
ATOM     12  C   LIG d   1      -5.408  76.649 119.555  0.00  0.00     0.006 C 
ENDBRANCH   8  11
ENDBRANCH   7   8
ENDBRANCH   1   7
BRANCH   6  13
ATOM     13  N   LIG d   1      -9.439  76.331 118.103  0.00  0.00    -0.311 N 
ATOM     14  C   LIG d   1      -9.338  76.247 119.428  0.00  0.00     0.210 C 
ATOM     15  C   LIG d   1      -9.443  77.583 120.171  0.00  0.00     0.109 C 
ATOM     16  O   LIG d   1      -9.139  75.197 120.058  0.00  0.00    -0.276 OA
ATOM     17  H   LIG d   1      -9.567  77.227 117.674  0.00  0.00     0.149 HD
ENDBRANCH   6  13
BRANCH   5  18
ATOM     18  N   LIG d   1     -11.799  74.494 117.481  0.00  0.00     0.381 N 
ATOM     19  H   LIG d   1     -12.126  74.334 116.549  0.00  0.00    -0.090 HD
ATOM     20  H   LIG d   1     -11.848  75.480 117.667  0.00  0.00    -0.090 HD
ATOM     21  H   LIG d   1     -12.369  73.997 118.130  0.00  0.00    -0.090 HD
ENDBRANCH   5  18
BRANCH   3  22
ATOM     22  C   LIG d   1      -8.647  71.062 116.376  0.00  0.00     0.382 C 
ATOM     23  O   LIG d   1      -9.467  70.204 116.781  0.00  0.00    -0.241 OA
ATOM     24  O   LIG d   1      -7.603  70.691 115.806  0.00  0.00    -0.241 OA
ENDBRANCH   3  22
TORSDOF 7
ENDMDL
MODEL 5
REMARK VINA RESULT:      -4.8     17.348     19.331
REMARK  7 active torsions:
REMARK  status: ('A' for Active; 'I' for Inactive)
REMARK    1  A    between atoms: C_2  and  C_3 
REMARK    2  A    between atoms: C_3  and  O_6 
REMARK    3  A    between atoms: C_3  and  C_4 
REMARK    4  A    between atoms: C_7  and  O_6 
REMARK    5  A    between atoms: C_9  and  C_10 
REMARK    6  A    between atoms: N_15  and  C_14 
REMARK    7  A    between atoms: N_20  and  C_19 
REMARK       I    between atoms: C_22  and  N_20 
ROOT
ATOM      1  C   LIG d   1      -5.121  92.571 119.344  0.00  0.00     0.161 C 
ATOM      2  C   LIG d   1      -5.148  91.604 118.326  0.00  0.00     0.016 C 
ATOM      3  C   LIG d   1      -6.051  91.643 117.238  0.00  0.00     0.038 C 
ATOM      4  C   LIG d   1      -6.893  92.742 117.014  0.00  0.00     0.028 C 
ATOM      5  C   LIG d   1      -7.255  93.498 118.288  0.00  0.00    -0.047 C 
ATOM      6  C   LIG d   1      -5.957  93.836 119.057  0.00  0.00     0.091 C 
ENDROOT
BRANCH   1   7
ATOM      7  O   LIG d   1      -3.757  92.929 119.642  0.00  0.00    -0.368 OA
BRANCH   7   8
ATOM      8  C   LIG d   1      -3.150  93.911 118.766  0.00  0.00     0.119 C 
BRANCH   8   9
ATOM      9  C   LIG d   1      -2.076  93.186 117.933  0.00  0.00     0.028 C 
ATOM     10  C   LIG d   1      -1.425  92.022 118.699  0.00  0.00     0.006 C 
ENDBRANCH   8   9
BRANCH   8  11
ATOM     11  C   LIG d   1      -2.393  94.977 119.564  0.00  0.00     0.028 C 
ATOM     12  C   LIG d   1      -2.444  94.734 121.081  0.00  0.00     0.006 C 
ENDBRANCH   8  11
ENDBRANCH   7   8
ENDBRANCH   1   7
BRANCH   6  13
ATOM     13  N   LIG d   1      -6.226  94.502 120.358  0.00  0.00    -0.311 N 
ATOM     14  C   LIG d   1      -5.978  95.790 120.587  0.00  0.00     0.210 C 
ATOM     15  C   LIG d   1      -6.310  96.271 122.003  0.00  0.00     0.109 C 
ATOM     16  O   LIG d   1      -5.543  96.588 119.743  0.00  0.00    -0.276 OA
ATOM     17  H   LIG d   1      -6.609  93.936 121.090  0.00  0.00     0.149 HD
ENDBRANCH   6  13
BRANCH   5  18
ATOM     18  N   LIG d   1      -8.021  94.695 117.893  0.00  0.00     0.381 N 
ATOM     19  H   LIG d   1      -8.390  94.573 116.972  0.00  0.00    -0.090 HD
ATOM     20  H   LIG d   1      -7.403  95.488 117.883  0.00  0.00    -0.090 HD
ATOM     21  H   LIG d   1      -8.764  94.853 118.538  0.00  0.00    -0.090 HD
ENDBRANCH   5  18
BRANCH   3  22
ATOM     22  C   LIG d   1      -6.145  90.556 116.383  0.00  0.00     0.382 C 
ATOM     23  O   LIG d   1      -5.113  90.099 115.835  0.00  0.00    -0.241 OA
ATOM     24  O   LIG d   1      -7.253  90.054 116.119  0.00  0.00    -0.241 OA
ENDBRANCH   3  22
TORSDOF 7
ENDMDL
MODEL 6
REMARK VINA RESULT:      -4.7      2.717      6.167
REMARK  7 active torsions:
REMARK  status: ('A' for Active; 'I' for Inactive)
REMARK    1  A    between atoms: C_2  and  C_3 
REMARK    2  A    between atoms: C_3  and  O_6 
REMARK    3  A    between atoms: C_3  and  C_4 
REMARK    4  A    between atoms: C_7  and  O_6 
REMARK    5  A    between atoms: C_9  and  C_10 
REMARK    6  A    between atoms: N_15  and  C_14 
REMARK    7  A    between atoms: N_20  and  C_19 
REMARK       I    between atoms: C_22  and  N_20 
ROOT
ATOM      1  C   LIG d   1      -7.516  76.016 117.413  0.00  0.00     0.161 C 
ATOM      2  C   LIG d   1      -8.888  76.014 117.714  0.00  0.00     0.016 C 
ATOM      3  C   LIG d   1      -9.685  74.846 117.707  0.00  0.00     0.038 C 
ATOM      4  C   LIG d   1      -9.127  73.569 117.545  0.00  0.00     0.028 C 
ATOM      5  C   LIG d   1      -7.832  73.572 116.739  0.00  0.00    -0.047 C 
ATOM      6  C   LIG d   1      -6.867  74.618 117.343  0.00  0.00     0.091 C 
ENDROOT
BRANCH   1   7
ATOM      7  O   LIG d   1      -6.811  76.849 118.354  0.00  0.00    -0.368 OA
BRANCH   7   8
ATOM      8  C   LIG d   1      -6.240  78.070 117.822  0.00  0.00     0.119 C 
BRANCH   8   9
ATOM      9  C   LIG d   1      -4.963  78.374 118.630  0.00  0.00     0.028 C 
ATOM     10  C   LIG d   1      -3.801  77.435 118.266  0.00  0.00     0.006 C 
ENDBRANCH   8   9
BRANCH   8  11
ATOM     11  C   LIG d   1      -7.164  79.267 118.059  0.00  0.00     0.028 C 
ATOM     12  C   LIG d   1      -6.477  80.614 117.784  0.00  0.00     0.006 C 
ENDBRANCH   8  11
ENDBRANCH   7   8
ENDBRANCH   1   7
BRANCH   6  13
ATOM     13  N   LIG d   1      -5.609  74.745 116.563  0.00  0.00    -0.311 N 
ATOM     14  C   LIG d   1      -4.486  74.099 116.873  0.00  0.00     0.210 C 
ATOM     15  C   LIG d   1      -3.298  74.387 115.949  0.00  0.00     0.109 C 
ATOM     16  O   LIG d   1      -4.370  73.290 117.806  0.00  0.00    -0.276 OA
ATOM     17  H   LIG d   1      -5.623  75.357 115.771  0.00  0.00     0.149 HD
ENDBRANCH   6  13
BRANCH   5  18
ATOM     18  N   LIG d   1      -7.288  72.201 116.765  0.00  0.00     0.381 N 
ATOM     19  H   LIG d   1      -8.030  71.540 116.649  0.00  0.00    -0.090 HD
ATOM     20  H   LIG d   1      -6.858  72.039 117.658  0.00  0.00    -0.090 HD
ATOM     21  H   LIG d   1      -6.616  72.087 116.039  0.00  0.00    -0.090 HD
ENDBRANCH   5  18
BRANCH   3  22
ATOM     22  C   LIG d   1     -11.062  74.953 117.824  0.00  0.00     0.382 C 
ATOM     23  O   LIG d   1     -11.586  76.065 118.074  0.00  0.00    -0.241 OA
ATOM     24  O   LIG d   1     -11.785  73.942 117.727  0.00  0.00    -0.241 OA
ENDBRANCH   3  22
TORSDOF 7
ENDMDL
MODEL 7
REMARK VINA RESULT:      -4.7     16.669     19.024
REMARK  7 active torsions:
REMARK  status: ('A' for Active; 'I' for Inactive)
REMARK    1  A    between atoms: C_2  and  C_3 
REMARK    2  A    between atoms: C_3  and  O_6 
REMARK    3  A    between atoms: C_3  and  C_4 
REMARK    4  A    between atoms: C_7  and  O_6 
REMARK    5  A    between atoms: C_9  and  C_10 
REMARK    6  A    between atoms: N_15  and  C_14 
REMARK    7  A    between atoms: N_20  and  C_19 
REMARK       I    between atoms: C_22  and  N_20 
ROOT
ATOM      1  C   LIG d   1      -4.251  92.496 118.615  0.00  0.00     0.161 C 
ATOM      2  C   LIG d   1      -5.313  93.367 118.910  0.00  0.00     0.016 C 
ATOM      3  C   LIG d   1      -6.557  93.334 118.238  0.00  0.00     0.038 C 
ATOM      4  C   LIG d   1      -6.878  92.321 117.322  0.00  0.00     0.028 C 
ATOM      5  C   LIG d   1      -5.659  91.725 116.626  0.00  0.00    -0.047 C 
ATOM      6  C   LIG d   1      -4.622  91.313 117.696  0.00  0.00     0.091 C 
ENDROOT
BRANCH   1   7
ATOM      7  O   LIG d   1      -3.660  92.015 119.838  0.00  0.00    -0.368 OA
BRANCH   7   8
ATOM      8  C   LIG d   1      -2.360  92.557 120.174  0.00  0.00     0.119 C 
BRANCH   8   9
ATOM      9  C   LIG d   1      -2.572  93.633 121.257  0.00  0.00     0.028 C 
ATOM     10  C   LIG d   1      -2.176  95.038 120.775  0.00  0.00     0.006 C 
ENDBRANCH   8   9
BRANCH   8  11
ATOM     11  C   LIG d   1      -1.740  93.297 118.985  0.00  0.00     0.028 C 
ATOM     12  C   LIG d   1      -0.469  92.615 118.455  0.00  0.00     0.006 C 
ENDBRANCH   8  11
ENDBRANCH   7   8
ENDBRANCH   1   7
BRANCH   6  13
ATOM     13  N   LIG d   1      -3.363  90.798 117.097  0.00  0.00    -0.311 N 
ATOM     14  C   LIG d   1      -2.740  89.703 117.529  0.00  0.00     0.210 C 
ATOM     15  C   LIG d   1      -1.446  89.359 116.784  0.00  0.00     0.109 C 
ATOM     16  O   LIG d   1      -3.153  88.966 118.437  0.00  0.00    -0.276 OA
ATOM     17  H   LIG d   1      -2.975  91.317 116.334  0.00  0.00     0.149 HD
ENDBRANCH   6  13
BRANCH   5  18
ATOM     18  N   LIG d   1      -6.124  90.592 115.805  0.00  0.00     0.381 N 
ATOM     19  H   LIG d   1      -6.327  90.906 114.877  0.00  0.00    -0.090 HD
ATOM     20  H   LIG d   1      -6.970  90.226 116.206  0.00  0.00    -0.090 HD
ATOM     21  H   LIG d   1      -5.426  89.881 115.778  0.00  0.00    -0.090 HD
ENDBRANCH   5  18
BRANCH   3  22
ATOM     22  C   LIG d   1      -7.480  94.346 118.451  0.00  0.00     0.382 C 
ATOM     23  O   LIG d   1      -8.604  94.297 117.896  0.00  0.00    -0.241 OA
ATOM     24  O   LIG d   1      -7.188  95.330 119.157  0.00  0.00    -0.241 OA
ENDBRANCH   3  22
TORSDOF 7
ENDMDL
MODEL 8
REMARK VINA RESULT:      -4.6      2.464      4.825
REMARK  7 active torsions:
REMARK  status: ('A' for Active; 'I' for Inactive)
REMARK    1  A    between atoms: C_2  and  C_3 
REMARK    2  A    between atoms: C_3  and  O_6 
REMARK    3  A    between atoms: C_3  and  C_4 
REMARK    4  A    between atoms: C_7  and  O_6 
REMARK    5  A    between atoms: C_9  and  C_10 
REMARK    6  A    between atoms: N_15  and  C_14 
REMARK    7  A    between atoms: N_20  and  C_19 
REMARK       I    between atoms: C_22  and  N_20 
ROOT
ATOM      1  C   LIG d   1      -8.968  75.673 118.617  0.00  0.00     0.161 C 
ATOM      2  C   LIG d   1      -8.506  74.643 117.780  0.00  0.00     0.016 C 
ATOM      3  C   LIG d   1      -9.362  73.819 117.015  0.00  0.00     0.038 C 
ATOM      4  C   LIG d   1     -10.739  74.068 116.917  0.00  0.00     0.028 C 
ATOM      5  C   LIG d   1     -11.314  74.780 118.137  0.00  0.00    -0.047 C 
ATOM      6  C   LIG d   1     -10.458  76.032 118.438  0.00  0.00     0.091 C 
ENDROOT
BRANCH   1   7
ATOM      7  O   LIG d   1      -8.147  76.845 118.449  0.00  0.00    -0.368 OA
BRANCH   7   8
ATOM      8  C   LIG d   1      -7.552  77.385 119.655  0.00  0.00     0.119 C 
BRANCH   8   9
ATOM      9  C   LIG d   1      -6.141  77.886 119.291  0.00  0.00     0.028 C 
ATOM     10  C   LIG d   1      -5.984  79.401 119.503  0.00  0.00     0.006 C 
ENDBRANCH   8   9
BRANCH   8  11
ATOM     11  C   LIG d   1      -7.336  76.293 120.706  0.00  0.00     0.028 C 
ATOM     12  C   LIG d   1      -7.867  76.687 122.094  0.00  0.00     0.006 C 
ENDBRANCH   8  11
ENDBRANCH   7   8
ENDBRANCH   1   7
BRANCH   6  13
ATOM     13  N   LIG d   1     -10.902  76.739 119.667  0.00  0.00    -0.311 N 
ATOM     14  C   LIG d   1     -11.007  78.064 119.752  0.00  0.00     0.210 C 
ATOM     15  C   LIG d   1     -11.463  78.590 121.117  0.00  0.00     0.109 C 
ATOM     16  O   LIG d   1     -10.798  78.852 118.818  0.00  0.00    -0.276 OA
ATOM     17  H   LIG d   1     -11.122  76.175 120.464  0.00  0.00     0.149 HD
ENDBRANCH   6  13
BRANCH   5  18
ATOM     18  N   LIG d   1     -12.724  75.100 117.844  0.00  0.00     0.381 N 
ATOM     19  H   LIG d   1     -12.857  75.166 116.854  0.00  0.00    -0.090 HD
ATOM     20  H   LIG d   1     -12.947  75.990 118.252  0.00  0.00    -0.090 HD
ATOM     21  H   LIG d   1     -13.319  74.395 118.220  0.00  0.00    -0.090 HD
ENDBRANCH   5  18
BRANCH   3  22
ATOM     22  C   LIG d   1      -8.847  72.706 116.367  0.00  0.00     0.382 C 
ATOM     23  O   LIG d   1      -9.574  71.703 116.170  0.00  0.00    -0.241 OA
ATOM     24  O   LIG d   1      -7.651  72.676 116.018  0.00  0.00    -0.241 OA
ENDBRANCH   3  22
TORSDOF 7
ENDMDL
MODEL 9
REMARK VINA RESULT:      -4.6     15.874     17.768
REMARK  7 active torsions:
REMARK  status: ('A' for Active; 'I' for Inactive)
REMARK    1  A    between atoms: C_2  and  C_3 
REMARK    2  A    between atoms: C_3  and  O_6 
REMARK    3  A    between atoms: C_3  and  C_4 
REMARK    4  A    between atoms: C_7  and  O_6 
REMARK    5  A    between atoms: C_9  and  C_10 
REMARK    6  A    between atoms: N_15  and  C_14 
REMARK    7  A    between atoms: N_20  and  C_19 
REMARK       I    between atoms: C_22  and  N_20 
ROOT
ATOM      1  C   LIG d   1      -3.844  91.008 118.144  0.00  0.00     0.161 C 
ATOM      2  C   LIG d   1      -4.853  90.608 117.252  0.00  0.00     0.016 C 
ATOM      3  C   LIG d   1      -5.941  91.434 116.887  0.00  0.00     0.038 C 
ATOM      4  C   LIG d   1      -6.014  92.780 117.276  0.00  0.00     0.028 C 
ATOM      5  C   LIG d   1      -5.284  93.073 118.582  0.00  0.00    -0.047 C 
ATOM      6  C   LIG d   1      -3.847  92.512 118.491  0.00  0.00     0.091 C 
ENDROOT
BRANCH   1   7
ATOM      7  O   LIG d   1      -2.555  90.614 117.632  0.00  0.00    -0.368 OA
BRANCH   7   8
ATOM      8  C   LIG d   1      -2.249  89.200 117.696  0.00  0.00     0.119 C 
BRANCH   8   9
ATOM      9  C   LIG d   1      -1.848  88.878 119.149  0.00  0.00     0.028 C 
ATOM     10  C   LIG d   1      -1.549  87.384 119.358  0.00  0.00     0.006 C 
ENDBRANCH   8   9
BRANCH   8  11
ATOM     11  C   LIG d   1      -1.019  88.857 116.850  0.00  0.00     0.028 C 
ATOM     12  C   LIG d   1      -0.110  90.071 116.602  0.00  0.00     0.006 C 
ENDBRANCH   8  11
ENDBRANCH   7   8
ENDBRANCH   1   7
BRANCH   6  13
ATOM     13  N   LIG d   1      -3.090  92.682 119.759  0.00  0.00    -0.311 N 
ATOM     14  C   LIG d   1      -1.820  93.078 119.807  0.00  0.00     0.210 C 
ATOM     15  C   LIG d   1      -1.224  93.169 121.215  0.00  0.00     0.109 C 
ATOM     16  O   LIG d   1      -1.140  93.394 118.820  0.00  0.00    -0.276 OA
ATOM     17  H   LIG d   1      -3.576  92.477 120.611  0.00  0.00     0.149 HD
ENDBRANCH   6  13
BRANCH   5  18
ATOM     18  N   LIG d   1      -5.323  94.532 118.796  0.00  0.00     0.381 N 
ATOM     19  H   LIG d   1      -4.392  94.883 118.904  0.00  0.00    -0.090 HD
ATOM     20  H   LIG d   1      -5.832  94.723 119.641  0.00  0.00    -0.090 HD
ATOM     21  H   LIG d   1      -5.766  94.978 118.024  0.00  0.00    -0.090 HD
ENDBRANCH   5  18
BRANCH   3  22
ATOM     22  C   LIG d   1      -6.993  90.901 116.157  0.00  0.00     0.382 C 
ATOM     23  O   LIG d   1      -6.968  89.696 115.808  0.00  0.00    -0.241 OA
ATOM     24  O   LIG d   1      -7.946  91.622 115.805  0.00  0.00    -0.241 OA
ENDBRANCH   3  22
TORSDOF 7
ENDMDL
