MODEL 1
REMARK VINA RESULT:      -5.0      0.000      0.000
REMARK  7 active torsions:
REMARK  status: ('A' for Active; 'I' for Inactive)
REMARK    1  A    between atoms: C_2  and  C_3 
REMARK    2  A    between atoms: C_3  and  O_6 
REMARK    3  A    between atoms: C_3  and  C_4 
REMARK    4  A    between atoms: C_7  and  O_6 
REMARK    5  A    between atoms: C_9  and  C_10 
REMARK    6  A    between atoms: N_15  and  C_14 
REMARK    7  A    between atoms: N_20  and  C_19 
REMARK       I    between atoms: C_22  and  N_20 
ROOT
ATOM      1  C   LIG d   1      -6.419  79.612 117.683  0.00  0.00     0.161 C 
ATOM      2  C   LIG d   1      -7.709  80.004 118.076  0.00  0.00     0.016 C 
ATOM      3  C   LIG d   1      -8.815  79.123 118.106  0.00  0.00     0.038 C 
ATOM      4  C   LIG d   1      -8.671  77.745 117.888  0.00  0.00     0.028 C 
ATOM      5  C   LIG d   1      -7.484  77.394 116.996  0.00  0.00    -0.047 C 
ATOM      6  C   LIG d   1      -6.218  78.088 117.548  0.00  0.00     0.091 C 
ENDROOT
BRANCH   1   7
ATOM      7  O   LIG d   1      -5.443  80.168 118.587  0.00  0.00    -0.368 OA
BRANCH   7   8
ATOM      8  C   LIG d   1      -5.884  80.379 119.950  0.00  0.00     0.119 C 
BRANCH   8   9
ATOM      9  C   LIG d   1      -5.371  81.762 120.395  0.00  0.00     0.028 C 
ATOM     10  C   LIG d   1      -6.417  82.870 120.188  0.00  0.00     0.006 C 
ENDBRANCH   8   9
BRANCH   8  11
ATOM     11  C   LIG d   1      -5.232  79.377 120.908  0.00  0.00     0.028 C 
ATOM     12  C   LIG d   1      -6.110  78.143 121.169  0.00  0.00     0.006 C 
ENDBRANCH   8  11
ENDBRANCH   7   8
ENDBRANCH   1   7
BRANCH   6  13
ATOM     13  N   LIG d   1      -5.028  77.865 116.687  0.00  0.00    -0.311 N 
ATOM     14  C   LIG d   1      -3.863  77.415 117.149  0.00  0.00     0.210 C 
ATOM     15  C   LIG d   1      -2.760  77.276 116.095  0.00  0.00     0.109 C 
ATOM     16  O   LIG d   1      -3.648  77.087 118.325  0.00  0.00    -0.276 OA
ATOM     17  H   LIG d   1      -5.124  78.076 115.713  0.00  0.00     0.149 HD
ENDBRANCH   6  13
BRANCH   5  18
ATOM     18  N   LIG d   1      -7.370  75.924 116.965  0.00  0.00     0.381 N 
ATOM     19  H   LIG d   1      -7.006  75.631 116.080  0.00  0.00    -0.090 HD
ATOM     20  H   LIG d   1      -8.285  75.524 117.077  0.00  0.00    -0.090 HD
ATOM     21  H   LIG d   1      -6.772  75.612 117.698  0.00  0.00    -0.090 HD
ENDBRANCH   5  18
BRANCH   3  22
ATOM     22  C   LIG d   1     -10.089  79.627 118.318  0.00  0.00     0.382 C 
ATOM     23  O   LIG d   1     -10.921  78.967 118.985  0.00  0.00    -0.241 OA
ATOM     24  O   LIG d   1     -10.431  80.713 117.813  0.00  0.00    -0.241 OA
ENDBRANCH   3  22
TORSDOF 7
ENDMDL
MODEL 2
REMARK VINA RESULT:      -4.9     12.500     15.651
REMARK  7 active torsions:
REMARK  status: ('A' for Active; 'I' for Inactive)
REMARK    1  A    between atoms: C_2  and  C_3 
REMARK    2  A    between atoms: C_3  and  O_6 
REMARK    3  A    between atoms: C_3  and  C_4 
REMARK    4  A    between atoms: C_7  and  O_6 
REMARK    5  A    between atoms: C_9  and  C_10 
REMARK    6  A    between atoms: N_15  and  C_14 
REMARK    7  A    between atoms: N_20  and  C_19 
REMARK       I    between atoms: C_22  and  N_20 
ROOT
ATOM      1  C   LIG d   1      -3.842  93.026 120.166  0.00  0.00     0.161 C 
ATOM      2  C   LIG d   1      -3.023  92.042 119.588  0.00  0.00     0.016 C 
ATOM      3  C   LIG d   1      -3.316  91.411 118.357  0.00  0.00     0.038 C 
ATOM      4  C   LIG d   1      -4.377  91.833 117.541  0.00  0.00     0.028 C 
ATOM      5  C   LIG d   1      -5.520  92.476 118.319  0.00  0.00    -0.047 C 
ATOM      6  C   LIG d   1      -4.945  93.578 119.238  0.00  0.00     0.091 C 
ENDROOT
BRANCH   1   7
ATOM      7  O   LIG d   1      -3.029  94.103 120.673  0.00  0.00    -0.368 OA
BRANCH   7   8
ATOM      8  C   LIG d   1      -2.657  95.125 119.716  0.00  0.00     0.119 C 
BRANCH   8   9
ATOM      9  C   LIG d   1      -1.117  95.182 119.675  0.00  0.00     0.028 C 
ATOM     10  C   LIG d   1      -0.541  94.543 118.400  0.00  0.00     0.006 C 
ENDBRANCH   8   9
BRANCH   8  11
ATOM     11  C   LIG d   1      -3.101  96.514 120.184  0.00  0.00     0.028 C 
ATOM     12  C   LIG d   1      -3.439  97.456 119.017  0.00  0.00     0.006 C 
ENDBRANCH   8  11
ENDBRANCH   7   8
ENDBRANCH   1   7
BRANCH   6  13
ATOM     13  N   LIG d   1      -5.985  94.201 120.097  0.00  0.00    -0.311 N 
ATOM     14  C   LIG d   1      -6.721  95.244 119.717  0.00  0.00     0.210 C 
ATOM     15  C   LIG d   1      -7.723  95.743 120.762  0.00  0.00     0.109 C 
ATOM     16  O   LIG d   1      -6.660  95.784 118.602  0.00  0.00    -0.276 OA
ATOM     17  H   LIG d   1      -6.122  93.806 121.006  0.00  0.00     0.149 HD
ENDBRANCH   6  13
BRANCH   5  18
ATOM     18  N   LIG d   1      -6.493  92.991 117.337  0.00  0.00     0.381 N 
ATOM     19  H   LIG d   1      -7.292  92.390 117.304  0.00  0.00    -0.090 HD
ATOM     20  H   LIG d   1      -6.065  92.997 116.428  0.00  0.00    -0.090 HD
ATOM     21  H   LIG d   1      -6.772  93.914 117.587  0.00  0.00    -0.090 HD
ENDBRANCH   5  18
BRANCH   3  22
ATOM     22  C   LIG d   1      -2.566  90.319 117.949  0.00  0.00     0.382 C 
ATOM     23  O   LIG d   1      -1.367  90.473 117.610  0.00  0.00    -0.241 OA
ATOM     24  O   LIG d   1      -3.084  89.189 117.873  0.00  0.00    -0.241 OA
ENDBRANCH   3  22
TORSDOF 7
ENDMDL
MODEL 3
REMARK VINA RESULT:      -4.9     11.334     13.806
REMARK  7 active torsions:
REMARK  status: ('A' for Active; 'I' for Inactive)
REMARK    1  A    between atoms: C_2  and  C_3 
REMARK    2  A    between atoms: C_3  and  O_6 
REMARK    3  A    between atoms: C_3  and  C_4 
REMARK    4  A    between atoms: C_7  and  O_6 
REMARK    5  A    between atoms: C_9  and  C_10 
REMARK    6  A    between atoms: N_15  and  C_14 
REMARK    7  A    between atoms: N_20  and  C_19 
REMARK       I    between atoms: C_22  and  N_20 
ROOT
ATOM      1  C   LIG d   1      -3.251  91.298 118.276  0.00  0.00     0.161 C 
ATOM      2  C   LIG d   1      -4.181  91.036 117.256  0.00  0.00     0.016 C 
ATOM      3  C   LIG d   1      -5.415  91.717 117.134  0.00  0.00     0.038 C 
ATOM      4  C   LIG d   1      -5.737  92.817 117.942  0.00  0.00     0.028 C 
ATOM      5  C   LIG d   1      -5.052  92.790 119.304  0.00  0.00    -0.047 C 
ATOM      6  C   LIG d   1      -3.536  92.571 119.100  0.00  0.00     0.091 C 
ENDROOT
BRANCH   1   7
ATOM      7  O   LIG d   1      -1.921  91.347 117.723  0.00  0.00    -0.368 OA
BRANCH   7   8
ATOM      8  C   LIG d   1      -1.163  90.113 117.777  0.00  0.00     0.119 C 
BRANCH   8   9
ATOM      9  C   LIG d   1      -1.560  89.382 119.074  0.00  0.00     0.028 C 
ATOM     10  C   LIG d   1      -1.854  87.890 118.841  0.00  0.00     0.006 C 
ENDBRANCH   8   9
BRANCH   8  11
ATOM     11  C   LIG d   1       0.338  90.386 117.909  0.00  0.00     0.028 C 
ATOM     12  C   LIG d   1       0.700  91.858 117.657  0.00  0.00     0.006 C 
ENDBRANCH   8  11
ENDBRANCH   7   8
ENDBRANCH   1   7
BRANCH   6  13
ATOM     13  N   LIG d   1      -2.802  92.448 120.386  0.00  0.00    -0.311 N 
ATOM     14  C   LIG d   1      -1.676  93.106 120.654  0.00  0.00     0.210 C 
ATOM     15  C   LIG d   1      -1.071  92.820 122.032  0.00  0.00     0.109 C 
ATOM     16  O   LIG d   1      -1.137  93.925 119.893  0.00  0.00    -0.276 OA
ATOM     17  H   LIG d   1      -3.186  91.828 121.073  0.00  0.00     0.149 HD
ENDBRANCH   6  13
BRANCH   5  18
ATOM     18  N   LIG d   1      -5.367  94.060 119.987  0.00  0.00     0.381 N 
ATOM     19  H   LIG d   1      -6.313  94.044 120.312  0.00  0.00    -0.090 HD
ATOM     20  H   LIG d   1      -5.271  94.814 119.330  0.00  0.00    -0.090 HD
ATOM     21  H   LIG d   1      -4.746  94.197 120.754  0.00  0.00    -0.090 HD
ENDBRANCH   5  18
BRANCH   3  22
ATOM     22  C   LIG d   1      -6.358  91.270 116.222  0.00  0.00     0.382 C 
ATOM     23  O   LIG d   1      -7.247  92.052 115.806  0.00  0.00    -0.241 OA
ATOM     24  O   LIG d   1      -6.359  90.084 115.843  0.00  0.00    -0.241 OA
ENDBRANCH   3  22
TORSDOF 7
ENDMDL
MODEL 4
REMARK VINA RESULT:      -4.8      2.829      4.692
REMARK  7 active torsions:
REMARK  status: ('A' for Active; 'I' for Inactive)
REMARK    1  A    between atoms: C_2  and  C_3 
REMARK    2  A    between atoms: C_3  and  O_6 
REMARK    3  A    between atoms: C_3  and  C_4 
REMARK    4  A    between atoms: C_7  and  O_6 
REMARK    5  A    between atoms: C_9  and  C_10 
REMARK    6  A    between atoms: N_15  and  C_14 
REMARK    7  A    between atoms: N_20  and  C_19 
REMARK       I    between atoms: C_22  and  N_20 
ROOT
ATOM      1  C   LIG d   1      -7.998  78.772 118.751  0.00  0.00     0.161 C 
ATOM      2  C   LIG d   1      -8.154  79.963 118.021  0.00  0.00     0.016 C 
ATOM      3  C   LIG d   1      -8.830  81.099 118.520  0.00  0.00     0.038 C 
ATOM      4  C   LIG d   1      -9.268  81.176 119.851  0.00  0.00     0.028 C 
ATOM      5  C   LIG d   1      -9.580  79.815 120.465  0.00  0.00    -0.047 C 
ATOM      6  C   LIG d   1      -8.372  78.876 120.244  0.00  0.00     0.091 C 
ENDROOT
BRANCH   1   7
ATOM      7  O   LIG d   1      -6.651  78.282 118.605  0.00  0.00    -0.368 OA
BRANCH   7   8
ATOM      8  C   LIG d   1      -6.495  77.065 117.834  0.00  0.00     0.119 C 
BRANCH   8   9
ATOM      9  C   LIG d   1      -5.727  77.427 116.548  0.00  0.00     0.028 C 
ATOM     10  C   LIG d   1      -4.760  78.605 116.754  0.00  0.00     0.006 C 
ENDBRANCH   8   9
BRANCH   8  11
ATOM     11  C   LIG d   1      -7.849  76.529 117.360  0.00  0.00     0.028 C 
ATOM     12  C   LIG d   1      -7.796  75.950 115.938  0.00  0.00     0.006 C 
ENDBRANCH   8  11
ENDBRANCH   7   8
ENDBRANCH   1   7
BRANCH   6  13
ATOM     13  N   LIG d   1      -8.627  77.499 120.741  0.00  0.00    -0.311 N 
ATOM     14  C   LIG d   1      -7.733  76.790 121.427  0.00  0.00     0.210 C 
ATOM     15  C   LIG d   1      -8.191  75.384 121.827  0.00  0.00     0.109 C 
ATOM     16  O   LIG d   1      -6.615  77.204 121.771  0.00  0.00    -0.276 OA
ATOM     17  H   LIG d   1      -9.521  77.097 120.533  0.00  0.00     0.149 HD
ENDBRANCH   6  13
BRANCH   5  18
ATOM     18  N   LIG d   1      -9.892  80.031 121.891  0.00  0.00     0.381 N 
ATOM     19  H   LIG d   1      -9.363  79.394 122.453  0.00  0.00    -0.090 HD
ATOM     20  H   LIG d   1     -10.868  79.849 122.041  0.00  0.00    -0.090 HD
ATOM     21  H   LIG d   1      -9.678  80.969 122.148  0.00  0.00    -0.090 HD
ENDBRANCH   5  18
BRANCH   3  22
ATOM     22  C   LIG d   1      -9.109  82.161 117.673  0.00  0.00     0.382 C 
ATOM     23  O   LIG d   1      -9.890  83.070 118.043  0.00  0.00    -0.241 OA
ATOM     24  O   LIG d   1      -8.624  82.197 116.526  0.00  0.00    -0.241 OA
ENDBRANCH   3  22
TORSDOF 7
ENDMDL
MODEL 5
REMARK VINA RESULT:      -4.8      2.169      4.365
REMARK  7 active torsions:
REMARK  status: ('A' for Active; 'I' for Inactive)
REMARK    1  A    between atoms: C_2  and  C_3 
REMARK    2  A    between atoms: C_3  and  O_6 
REMARK    3  A    between atoms: C_3  and  C_4 
REMARK    4  A    between atoms: C_7  and  O_6 
REMARK    5  A    between atoms: C_9  and  C_10 
REMARK    6  A    between atoms: N_15  and  C_14 
REMARK    7  A    between atoms: N_20  and  C_19 
REMARK       I    between atoms: C_22  and  N_20 
ROOT
ATOM      1  C   LIG d   1      -7.290  78.331 118.939  0.00  0.00     0.161 C 
ATOM      2  C   LIG d   1      -8.181  79.075 118.149  0.00  0.00     0.016 C 
ATOM      3  C   LIG d   1      -8.184  80.488 118.099  0.00  0.00     0.038 C 
ATOM      4  C   LIG d   1      -7.190  81.254 118.725  0.00  0.00     0.028 C 
ATOM      5  C   LIG d   1      -6.574  80.570 119.941  0.00  0.00    -0.047 C 
ATOM      6  C   LIG d   1      -6.126  79.146 119.543  0.00  0.00     0.091 C 
ENDROOT
BRANCH   1   7
ATOM      7  O   LIG d   1      -6.780  77.215 118.183  0.00  0.00    -0.368 OA
BRANCH   7   8
ATOM      8  C   LIG d   1      -6.370  77.501 116.823  0.00  0.00     0.119 C 
BRANCH   8   9
ATOM      9  C   LIG d   1      -6.908  76.367 115.929  0.00  0.00     0.028 C 
ATOM     10  C   LIG d   1      -8.326  75.926 116.329  0.00  0.00     0.006 C 
ENDBRANCH   8   9
BRANCH   8  11
ATOM     11  C   LIG d   1      -4.846  77.445 116.677  0.00  0.00     0.028 C 
ATOM     12  C   LIG d   1      -4.219  78.828 116.446  0.00  0.00     0.006 C 
ENDBRANCH   8  11
ENDBRANCH   7   8
ENDBRANCH   1   7
BRANCH   6  13
ATOM     13  N   LIG d   1      -5.589  78.377 120.696  0.00  0.00    -0.311 N 
ATOM     14  C   LIG d   1      -4.349  77.892 120.740  0.00  0.00     0.210 C 
ATOM     15  C   LIG d   1      -4.005  77.112 122.013  0.00  0.00     0.109 C 
ATOM     16  O   LIG d   1      -3.492  78.062 119.861  0.00  0.00    -0.276 OA
ATOM     17  H   LIG d   1      -6.208  78.219 121.467  0.00  0.00     0.149 HD
ENDBRANCH   6  13
BRANCH   5  18
ATOM     18  N   LIG d   1      -5.461  81.416 120.413  0.00  0.00     0.381 N 
ATOM     19  H   LIG d   1      -5.817  82.290 120.745  0.00  0.00    -0.090 HD
ATOM     20  H   LIG d   1      -4.844  81.599 119.642  0.00  0.00    -0.090 HD
ATOM     21  H   LIG d   1      -4.966  80.952 121.142  0.00  0.00    -0.090 HD
ENDBRANCH   5  18
BRANCH   3  22
ATOM     22  C   LIG d   1      -9.215  81.151 117.449  0.00  0.00     0.382 C 
ATOM     23  O   LIG d   1      -8.953  82.036 116.600  0.00  0.00    -0.241 OA
ATOM     24  O   LIG d   1     -10.402  80.906 117.734  0.00  0.00    -0.241 OA
ENDBRANCH   3  22
TORSDOF 7
ENDMDL
MODEL 6
REMARK VINA RESULT:      -4.8     12.593     14.672
REMARK  7 active torsions:
REMARK  status: ('A' for Active; 'I' for Inactive)
REMARK    1  A    between atoms: C_2  and  C_3 
REMARK    2  A    between atoms: C_3  and  O_6 
REMARK    3  A    between atoms: C_3  and  C_4 
REMARK    4  A    between atoms: C_7  and  O_6 
REMARK    5  A    between atoms: C_9  and  C_10 
REMARK    6  A    between atoms: N_15  and  C_14 
REMARK    7  A    between atoms: N_20  and  C_19 
REMARK       I    between atoms: C_22  and  N_20 
ROOT
ATOM      1  C   LIG d   1      -4.368  93.289 119.199  0.00  0.00     0.161 C 
ATOM      2  C   LIG d   1      -5.437  92.831 118.412  0.00  0.00     0.016 C 
ATOM      3  C   LIG d   1      -5.314  91.791 117.462  0.00  0.00     0.038 C 
ATOM      4  C   LIG d   1      -4.141  91.032 117.341  0.00  0.00     0.028 C 
ATOM      5  C   LIG d   1      -2.884  91.788 117.759  0.00  0.00    -0.047 C 
ATOM      6  C   LIG d   1      -3.109  92.398 119.161  0.00  0.00     0.091 C 
ENDROOT
BRANCH   1   7
ATOM      7  O   LIG d   1      -4.808  93.477 120.559  0.00  0.00    -0.368 OA
BRANCH   7   8
ATOM      8  C   LIG d   1      -4.927  94.849 121.007  0.00  0.00     0.119 C 
BRANCH   8   9
ATOM      9  C   LIG d   1      -6.427  95.202 121.027  0.00  0.00     0.028 C 
ATOM     10  C   LIG d   1      -6.843  96.066 119.824  0.00  0.00     0.006 C 
ENDBRANCH   8   9
BRANCH   8  11
ATOM     11  C   LIG d   1      -4.296  95.819 120.003  0.00  0.00     0.028 C 
ATOM     12  C   LIG d   1      -3.077  96.560 120.576  0.00  0.00     0.006 C 
ENDBRANCH   8  11
ENDBRANCH   7   8
ENDBRANCH   1   7
BRANCH   6  13
ATOM     13  N   LIG d   1      -1.959  93.226 119.610  0.00  0.00    -0.311 N 
ATOM     14  C   LIG d   1      -0.968  92.757 120.366  0.00  0.00     0.210 C 
ATOM     15  C   LIG d   1       0.108  93.783 120.732  0.00  0.00     0.109 C 
ATOM     16  O   LIG d   1      -0.862  91.580 120.742  0.00  0.00    -0.276 OA
ATOM     17  H   LIG d   1      -1.948  94.186 119.324  0.00  0.00     0.149 HD
ENDBRANCH   6  13
BRANCH   5  18
ATOM     18  N   LIG d   1      -1.757  90.838 117.715  0.00  0.00     0.381 N 
ATOM     19  H   LIG d   1      -1.943  90.122 117.041  0.00  0.00    -0.090 HD
ATOM     20  H   LIG d   1      -1.662  90.405 118.617  0.00  0.00    -0.090 HD
ATOM     21  H   LIG d   1      -0.916  91.317 117.478  0.00  0.00    -0.090 HD
ENDBRANCH   5  18
BRANCH   3  22
ATOM     22  C   LIG d   1      -6.361  91.528 116.591  0.00  0.00     0.382 C 
ATOM     23  O   LIG d   1      -6.564  90.356 116.191  0.00  0.00    -0.241 OA
ATOM     24  O   LIG d   1      -7.077  92.454 116.166  0.00  0.00    -0.241 OA
ENDBRANCH   3  22
TORSDOF 7
ENDMDL
MODEL 7
REMARK VINA RESULT:      -4.8     12.063     14.179
REMARK  7 active torsions:
REMARK  status: ('A' for Active; 'I' for Inactive)
REMARK    1  A    between atoms: C_2  and  C_3 
REMARK    2  A    between atoms: C_3  and  O_6 
REMARK    3  A    between atoms: C_3  and  C_4 
REMARK    4  A    between atoms: C_7  and  O_6 
REMARK    5  A    between atoms: C_9  and  C_10 
REMARK    6  A    between atoms: N_15  and  C_14 
REMARK    7  A    between atoms: N_20  and  C_19 
REMARK       I    between atoms: C_22  and  N_20 
ROOT
ATOM      1  C   LIG d   1      -3.512  92.891 119.214  0.00  0.00     0.161 C 
ATOM      2  C   LIG d   1      -4.652  93.702 119.334  0.00  0.00     0.016 C 
ATOM      3  C   LIG d   1      -5.811  93.536 118.541  0.00  0.00     0.038 C 
ATOM      4  C   LIG d   1      -5.966  92.445 117.673  0.00  0.00     0.028 C 
ATOM      5  C   LIG d   1      -4.644  91.892 117.153  0.00  0.00    -0.047 C 
ATOM      6  C   LIG d   1      -3.704  91.627 118.351  0.00  0.00     0.091 C 
ENDROOT
BRANCH   1   7
ATOM      7  O   LIG d   1      -3.026  92.534 120.524  0.00  0.00    -0.368 OA
BRANCH   7   8
ATOM      8  C   LIG d   1      -1.809  93.191 120.953  0.00  0.00     0.119 C 
BRANCH   8   9
ATOM      9  C   LIG d   1      -2.201  94.262 121.989  0.00  0.00     0.028 C 
ATOM     10  C   LIG d   1      -2.146  95.686 121.411  0.00  0.00     0.006 C 
ENDBRANCH   8   9
BRANCH   8  11
ATOM     11  C   LIG d   1      -1.155  93.962 119.802  0.00  0.00     0.028 C 
ATOM     12  C   LIG d   1       0.221  93.398 119.412  0.00  0.00     0.006 C 
ENDBRANCH   8  11
ENDBRANCH   7   8
ENDBRANCH   1   7
BRANCH   6  13
ATOM     13  N   LIG d   1      -2.358  91.164 117.924  0.00  0.00    -0.311 N 
ATOM     14  C   LIG d   1      -2.007  89.880 117.871  0.00  0.00     0.210 C 
ATOM     15  C   LIG d   1      -0.565  89.622 117.424  0.00  0.00     0.109 C 
ATOM     16  O   LIG d   1      -2.763  88.929 118.121  0.00  0.00    -0.276 OA
ATOM     17  H   LIG d   1      -1.692  91.868 117.674  0.00  0.00     0.149 HD
ENDBRANCH   6  13
BRANCH   5  18
ATOM     18  N   LIG d   1      -4.945  90.677 116.373  0.00  0.00     0.381 N 
ATOM     19  H   LIG d   1      -5.862  90.348 116.599  0.00  0.00    -0.090 HD
ATOM     20  H   LIG d   1      -4.283  89.961 116.619  0.00  0.00    -0.090 HD
ATOM     21  H   LIG d   1      -4.885  90.874 115.398  0.00  0.00    -0.090 HD
ENDBRANCH   5  18
BRANCH   3  22
ATOM     22  C   LIG d   1      -6.815  94.492 118.583  0.00  0.00     0.382 C 
ATOM     23  O   LIG d   1      -7.877  94.314 117.939  0.00  0.00    -0.241 OA
ATOM     24  O   LIG d   1      -6.654  95.550 119.221  0.00  0.00    -0.241 OA
ENDBRANCH   3  22
TORSDOF 7
ENDMDL
MODEL 8
REMARK VINA RESULT:      -4.6      3.719      6.226
REMARK  7 active torsions:
REMARK  status: ('A' for Active; 'I' for Inactive)
REMARK    1  A    between atoms: C_2  and  C_3 
REMARK    2  A    between atoms: C_3  and  O_6 
REMARK    3  A    between atoms: C_3  and  C_4 
REMARK    4  A    between atoms: C_7  and  O_6 
REMARK    5  A    between atoms: C_9  and  C_10 
REMARK    6  A    between atoms: N_15  and  C_14 
REMARK    7  A    between atoms: N_20  and  C_19 
REMARK       I    between atoms: C_22  and  N_20 
ROOT
ATOM      1  C   LIG d   1      -8.161  81.487 120.718  0.00  0.00     0.161 C 
ATOM      2  C   LIG d   1      -7.386  80.682 119.867  0.00  0.00     0.016 C 
ATOM      3  C   LIG d   1      -7.571  80.626 118.466  0.00  0.00     0.038 C 
ATOM      4  C   LIG d   1      -8.450  81.492 117.800  0.00  0.00     0.028 C 
ATOM      5  C   LIG d   1      -9.611  81.964 118.669  0.00  0.00    -0.047 C 
ATOM      6  C   LIG d   1      -9.050  82.522 119.997  0.00  0.00     0.091 C 
ENDROOT
BRANCH   1   7
ATOM      7  O   LIG d   1      -7.310  82.141 121.680  0.00  0.00    -0.368 OA
BRANCH   7   8
ATOM      8  C   LIG d   1      -6.329  83.061 121.141  0.00  0.00     0.119 C 
BRANCH   8   9
ATOM      9  C   LIG d   1      -4.938  82.563 121.578  0.00  0.00     0.028 C 
ATOM     10  C   LIG d   1      -4.108  82.031 120.397  0.00  0.00     0.006 C 
ENDBRANCH   8   9
BRANCH   8  11
ATOM     11  C   LIG d   1      -6.473  84.455 121.760  0.00  0.00     0.028 C 
ATOM     12  C   LIG d   1      -5.190  85.293 121.646  0.00  0.00     0.006 C 
ENDBRANCH   8  11
ENDBRANCH   7   8
ENDBRANCH   1   7
BRANCH   6  13
ATOM     13  N   LIG d   1     -10.124  82.927 120.940  0.00  0.00    -0.311 N 
ATOM     14  C   LIG d   1     -10.304  84.181 121.351  0.00  0.00     0.210 C 
ATOM     15  C   LIG d   1     -11.457  84.378 122.340  0.00  0.00     0.109 C 
ATOM     16  O   LIG d   1      -9.638  85.154 120.966  0.00  0.00    -0.276 OA
ATOM     17  H   LIG d   1     -10.730  82.206 121.279  0.00  0.00     0.149 HD
ENDBRANCH   6  13
BRANCH   5  18
ATOM     18  N   LIG d   1     -10.369  82.965 117.895  0.00  0.00     0.381 N 
ATOM     19  H   LIG d   1     -11.105  82.515 117.388  0.00  0.00    -0.090 HD
ATOM     20  H   LIG d   1      -9.751  83.401 117.234  0.00  0.00    -0.090 HD
ATOM     21  H   LIG d   1     -10.751  83.652 118.508  0.00  0.00    -0.090 HD
ENDBRANCH   5  18
BRANCH   3  22
ATOM     22  C   LIG d   1      -6.900  79.668 117.722  0.00  0.00     0.382 C 
ATOM     23  O   LIG d   1      -5.709  79.861 117.379  0.00  0.00    -0.241 OA
ATOM     24  O   LIG d   1      -7.485  78.632 117.351  0.00  0.00    -0.241 OA
ENDBRANCH   3  22
TORSDOF 7
ENDMDL
MODEL 9
REMARK VINA RESULT:      -4.5      3.412      4.791
REMARK  7 active torsions:
REMARK  status: ('A' for Active; 'I' for Inactive)
REMARK    1  A    between atoms: C_2  and  C_3 
REMARK    2  A    between atoms: C_3  and  O_6 
REMARK    3  A    between atoms: C_3  and  C_4 
REMARK    4  A    between atoms: C_7  and  O_6 
REMARK    5  A    between atoms: C_9  and  C_10 
REMARK    6  A    between atoms: N_15  and  C_14 
REMARK    7  A    between atoms: N_20  and  C_19 
REMARK       I    between atoms: C_22  and  N_20 
ROOT
ATOM      1  C   LIG d   1      -7.798  81.441 120.716  0.00  0.00     0.161 C 
ATOM      2  C   LIG d   1      -8.641  82.370 121.348  0.00  0.00     0.016 C 
ATOM      3  C   LIG d   1      -9.435  83.305 120.644  0.00  0.00     0.038 C 
ATOM      4  C   LIG d   1      -9.554  83.273 119.246  0.00  0.00     0.028 C 
ATOM      5  C   LIG d   1      -8.334  82.682 118.548  0.00  0.00    -0.047 C 
ATOM      6  C   LIG d   1      -8.000  81.317 119.191  0.00  0.00     0.091 C 
ENDROOT
BRANCH   1   7
ATOM      7  O   LIG d   1      -7.934  80.152 121.346  0.00  0.00    -0.368 OA
BRANCH   7   8
ATOM      8  C   LIG d   1      -8.946  79.275 120.793  0.00  0.00     0.119 C 
BRANCH   8   9
ATOM      9  C   LIG d   1     -10.116  79.229 121.794  0.00  0.00     0.028 C 
ATOM     10  C   LIG d   1     -11.379  79.923 121.255  0.00  0.00     0.006 C 
ENDBRANCH   8   9
BRANCH   8  11
ATOM     11  C   LIG d   1      -8.441  77.833 120.693  0.00  0.00     0.028 C 
ATOM     12  C   LIG d   1      -6.938  77.706 120.990  0.00  0.00     0.006 C 
ENDBRANCH   8  11
ENDBRANCH   7   8
ENDBRANCH   1   7
BRANCH   6  13
ATOM     13  N   LIG d   1      -6.768  80.709 118.623  0.00  0.00    -0.311 N 
ATOM     14  C   LIG d   1      -6.778  79.640 117.829  0.00  0.00     0.210 C 
ATOM     15  C   LIG d   1      -5.396  79.163 117.370  0.00  0.00     0.109 C 
ATOM     16  O   LIG d   1      -7.801  79.060 117.436  0.00  0.00    -0.276 OA
ATOM     17  H   LIG d   1      -5.895  81.135 118.866  0.00  0.00     0.149 HD
ENDBRANCH   6  13
BRANCH   5  18
ATOM     18  N   LIG d   1      -8.649  82.582 117.110  0.00  0.00     0.381 N 
ATOM     19  H   LIG d   1      -8.844  83.492 116.742  0.00  0.00    -0.090 HD
ATOM     20  H   LIG d   1      -9.469  82.013 116.996  0.00  0.00    -0.090 HD
ATOM     21  H   LIG d   1      -7.882  82.175 116.621  0.00  0.00    -0.090 HD
ENDBRANCH   5  18
BRANCH   3  22
ATOM     22  C   LIG d   1     -10.089  84.312 121.338  0.00  0.00     0.382 C 
ATOM     23  O   LIG d   1      -9.562  85.446 121.442  0.00  0.00    -0.241 OA
ATOM     24  O   LIG d   1     -11.179  84.088 121.898  0.00  0.00    -0.241 OA
ENDBRANCH   3  22
TORSDOF 7
ENDMDL
