MODEL 1
REMARK VINA RESULT:      -5.0      0.000      0.000
REMARK  7 active torsions:
REMARK  status: ('A' for Active; 'I' for Inactive)
REMARK    1  A    between atoms: C_2  and  C_3 
REMARK    2  A    between atoms: C_3  and  O_6 
REMARK    3  A    between atoms: C_3  and  C_4 
REMARK    4  A    between atoms: C_7  and  O_6 
REMARK    5  A    between atoms: C_9  and  C_10 
REMARK    6  A    between atoms: N_15  and  C_14 
REMARK    7  A    between atoms: N_20  and  C_19 
REMARK       I    between atoms: C_22  and  N_20 
ROOT
ATOM      1  C   LIG d   1      -4.020  74.881 116.749  0.00  0.00     0.161 C 
ATOM      2  C   LIG d   1      -3.098  73.822 116.715  0.00  0.00     0.016 C 
ATOM      3  C   LIG d   1      -1.780  73.921 117.216  0.00  0.00     0.038 C 
ATOM      4  C   LIG d   1      -1.340  75.047 117.927  0.00  0.00     0.028 C 
ATOM      5  C   LIG d   1      -2.070  76.330 117.543  0.00  0.00    -0.047 C 
ATOM      6  C   LIG d   1      -3.594  76.081 117.621  0.00  0.00     0.091 C 
ENDROOT
BRANCH   1   7
ATOM      7  O   LIG d   1      -5.311  74.393 117.165  0.00  0.00    -0.368 OA
BRANCH   7   8
ATOM      8  C   LIG d   1      -6.248  74.084 116.105  0.00  0.00     0.119 C 
BRANCH   8   9
ATOM      9  C   LIG d   1      -7.659  74.424 116.621  0.00  0.00     0.028 C 
ATOM     10  C   LIG d   1      -7.929  75.938 116.641  0.00  0.00     0.006 C 
ENDBRANCH   8   9
BRANCH   8  11
ATOM     11  C   LIG d   1      -6.276  72.583 115.805  0.00  0.00     0.028 C 
ATOM     12  C   LIG d   1      -6.815  71.751 116.980  0.00  0.00     0.006 C 
ENDBRANCH   8  11
ENDBRANCH   7   8
ENDBRANCH   1   7
BRANCH   6  13
ATOM     13  N   LIG d   1      -4.383  77.261 117.179  0.00  0.00    -0.311 N 
ATOM     14  C   LIG d   1      -5.257  77.893 117.961  0.00  0.00     0.210 C 
ATOM     15  C   LIG d   1      -5.979  79.073 117.303  0.00  0.00     0.109 C 
ATOM     16  O   LIG d   1      -5.478  77.609 119.148  0.00  0.00    -0.276 OA
ATOM     17  H   LIG d   1      -4.243  77.578 116.240  0.00  0.00     0.149 HD
ENDBRANCH   6  13
BRANCH   5  18
ATOM     18  N   LIG d   1      -1.611  77.394 118.455  0.00  0.00     0.381 N 
ATOM     19  H   LIG d   1      -1.740  78.288 118.024  0.00  0.00    -0.090 HD
ATOM     20  H   LIG d   1      -0.630  77.269 118.632  0.00  0.00    -0.090 HD
ATOM     21  H   LIG d   1      -2.119  77.353 119.311  0.00  0.00    -0.090 HD
ENDBRANCH   5  18
BRANCH   3  22
ATOM     22  C   LIG d   1      -0.874  72.900 116.973  0.00  0.00     0.382 C 
ATOM     23  O   LIG d   1      -0.310  72.320 117.932  0.00  0.00    -0.241 OA
ATOM     24  O   LIG d   1      -0.579  72.582 115.805  0.00  0.00    -0.241 OA
ENDBRANCH   3  22
TORSDOF 7
ENDMDL
MODEL 2
REMARK VINA RESULT:      -4.8     14.737     17.522
REMARK  7 active torsions:
REMARK  status: ('A' for Active; 'I' for Inactive)
REMARK    1  A    between atoms: C_2  and  C_3 
REMARK    2  A    between atoms: C_3  and  O_6 
REMARK    3  A    between atoms: C_3  and  C_4 
REMARK    4  A    between atoms: C_7  and  O_6 
REMARK    5  A    between atoms: C_9  and  C_10 
REMARK    6  A    between atoms: N_15  and  C_14 
REMARK    7  A    between atoms: N_20  and  C_19 
REMARK       I    between atoms: C_22  and  N_20 
ROOT
ATOM      1  C   LIG d   1      -1.562  91.933 117.653  0.00  0.00     0.161 C 
ATOM      2  C   LIG d   1      -0.257  91.574 117.278  0.00  0.00     0.016 C 
ATOM      3  C   LIG d   1       0.820  92.488 117.237  0.00  0.00     0.038 C 
ATOM      4  C   LIG d   1       0.697  93.801 117.716  0.00  0.00     0.028 C 
ATOM      5  C   LIG d   1      -0.724  94.347 117.630  0.00  0.00    -0.047 C 
ATOM      6  C   LIG d   1      -1.691  93.334 118.286  0.00  0.00     0.091 C 
ENDROOT
BRANCH   1   7
ATOM      7  O   LIG d   1      -2.110  90.933 118.535  0.00  0.00    -0.368 OA
BRANCH   7   8
ATOM      8  C   LIG d   1      -3.077  90.027 117.948  0.00  0.00     0.119 C 
BRANCH   8   9
ATOM      9  C   LIG d   1      -2.328  88.737 117.561  0.00  0.00     0.028 C 
ATOM     10  C   LIG d   1      -1.940  87.893 118.787  0.00  0.00     0.006 C 
ENDBRANCH   8   9
BRANCH   8  11
ATOM     11  C   LIG d   1      -3.635  90.582 116.635  0.00  0.00     0.028 C 
ATOM     12  C   LIG d   1      -5.092  91.056 116.759  0.00  0.00     0.006 C 
ENDBRANCH   8  11
ENDBRANCH   7   8
ENDBRANCH   1   7
BRANCH   6  13
ATOM     13  N   LIG d   1      -3.113  93.751 118.170  0.00  0.00    -0.311 N 
ATOM     14  C   LIG d   1      -3.972  93.715 119.187  0.00  0.00     0.210 C 
ATOM     15  C   LIG d   1      -5.395  94.170 118.847  0.00  0.00     0.109 C 
ATOM     16  O   LIG d   1      -3.684  93.379 120.345  0.00  0.00    -0.276 OA
ATOM     17  H   LIG d   1      -3.424  94.067 117.273  0.00  0.00     0.149 HD
ENDBRANCH   6  13
BRANCH   5  18
ATOM     18  N   LIG d   1      -0.735  95.667 118.289  0.00  0.00     0.381 N 
ATOM     19  H   LIG d   1      -1.651  96.066 118.231  0.00  0.00    -0.090 HD
ATOM     20  H   LIG d   1      -0.095  96.274 117.809  0.00  0.00    -0.090 HD
ATOM     21  H   LIG d   1      -0.465  95.574 119.243  0.00  0.00    -0.090 HD
ENDBRANCH   5  18
BRANCH   3  22
ATOM     22  C   LIG d   1       2.027  92.103 116.673  0.00  0.00     0.382 C 
ATOM     23  O   LIG d   1       2.165  90.943 116.218  0.00  0.00    -0.241 OA
ATOM     24  O   LIG d   1       2.995  92.888 116.656  0.00  0.00    -0.241 OA
ENDBRANCH   3  22
TORSDOF 7
ENDMDL
MODEL 3
REMARK VINA RESULT:      -4.7     14.379     17.311
REMARK  7 active torsions:
REMARK  status: ('A' for Active; 'I' for Inactive)
REMARK    1  A    between atoms: C_2  and  C_3 
REMARK    2  A    between atoms: C_3  and  O_6 
REMARK    3  A    between atoms: C_3  and  C_4 
REMARK    4  A    between atoms: C_7  and  O_6 
REMARK    5  A    between atoms: C_9  and  C_10 
REMARK    6  A    between atoms: N_15  and  C_14 
REMARK    7  A    between atoms: N_20  and  C_19 
REMARK       I    between atoms: C_22  and  N_20 
ROOT
ATOM      1  C   LIG d   1      -1.126  91.451 117.433  0.00  0.00     0.161 C 
ATOM      2  C   LIG d   1       0.257  91.645 117.584  0.00  0.00     0.016 C 
ATOM      3  C   LIG d   1       0.850  92.916 117.760  0.00  0.00     0.038 C 
ATOM      4  C   LIG d   1       0.081  94.074 117.949  0.00  0.00     0.028 C 
ATOM      5  C   LIG d   1      -1.297  93.997 117.300  0.00  0.00    -0.047 C 
ATOM      6  C   LIG d   1      -1.991  92.690 117.747  0.00  0.00     0.091 C 
ENDROOT
BRANCH   1   7
ATOM      7  O   LIG d   1      -1.552  90.328 118.229  0.00  0.00    -0.368 OA
BRANCH   7   8
ATOM      8  C   LIG d   1      -0.632  89.211 118.299  0.00  0.00     0.119 C 
BRANCH   8   9
ATOM      9  C   LIG d   1      -1.001  88.234 117.166  0.00  0.00     0.028 C 
ATOM     10  C   LIG d   1       0.220  87.820 116.328  0.00  0.00     0.006 C 
ENDBRANCH   8   9
BRANCH   8  11
ATOM     11  C   LIG d   1      -0.817  88.417 119.596  0.00  0.00     0.028 C 
ATOM     12  C   LIG d   1      -2.129  87.618 119.622  0.00  0.00     0.006 C 
ENDBRANCH   8  11
ENDBRANCH   7   8
ENDBRANCH   1   7
BRANCH   6  13
ATOM     13  N   LIG d   1      -3.310  92.496 117.092  0.00  0.00    -0.311 N 
ATOM     14  C   LIG d   1      -4.465  92.861 117.646  0.00  0.00     0.210 C 
ATOM     15  C   LIG d   1      -5.711  92.551 116.810  0.00  0.00     0.109 C 
ATOM     16  O   LIG d   1      -4.574  93.442 118.737  0.00  0.00    -0.276 OA
ATOM     17  H   LIG d   1      -3.312  92.060 116.191  0.00  0.00     0.149 HD
ENDBRANCH   6  13
BRANCH   5  18
ATOM     18  N   LIG d   1      -2.042  95.210 117.691  0.00  0.00     0.381 N 
ATOM     19  H   LIG d   1      -2.967  94.961 117.980  0.00  0.00    -0.090 HD
ATOM     20  H   LIG d   1      -2.113  95.818 116.895  0.00  0.00    -0.090 HD
ATOM     21  H   LIG d   1      -1.568  95.676 118.433  0.00  0.00    -0.090 HD
ENDBRANCH   5  18
BRANCH   3  22
ATOM     22  C   LIG d   1       2.230  93.044 117.708  0.00  0.00     0.382 C 
ATOM     23  O   LIG d   1       2.866  93.392 118.732  0.00  0.00    -0.241 OA
ATOM     24  O   LIG d   1       2.842  92.859 116.639  0.00  0.00    -0.241 OA
ENDBRANCH   3  22
TORSDOF 7
ENDMDL
MODEL 4
REMARK VINA RESULT:      -4.6      2.315      5.070
REMARK  7 active torsions:
REMARK  status: ('A' for Active; 'I' for Inactive)
REMARK    1  A    between atoms: C_2  and  C_3 
REMARK    2  A    between atoms: C_3  and  O_6 
REMARK    3  A    between atoms: C_3  and  C_4 
REMARK    4  A    between atoms: C_7  and  O_6 
REMARK    5  A    between atoms: C_9  and  C_10 
REMARK    6  A    between atoms: N_15  and  C_14 
REMARK    7  A    between atoms: N_20  and  C_19 
REMARK       I    between atoms: C_22  and  N_20 
ROOT
ATOM      1  C   LIG d   1      -5.111  75.628 117.001  0.00  0.00     0.161 C 
ATOM      2  C   LIG d   1      -5.650  74.393 116.605  0.00  0.00     0.016 C 
ATOM      3  C   LIG d   1      -7.038  74.133 116.542  0.00  0.00     0.038 C 
ATOM      4  C   LIG d   1      -7.991  75.146 116.727  0.00  0.00     0.028 C 
ATOM      5  C   LIG d   1      -7.502  76.281 117.621  0.00  0.00    -0.047 C 
ATOM      6  C   LIG d   1      -6.135  76.778 117.099  0.00  0.00     0.091 C 
ENDROOT
BRANCH   1   7
ATOM      7  O   LIG d   1      -4.030  75.995 116.121  0.00  0.00    -0.368 OA
BRANCH   7   8
ATOM      8  C   LIG d   1      -2.715  76.072 116.725  0.00  0.00     0.119 C 
BRANCH   8   9
ATOM      9  C   LIG d   1      -1.786  75.131 115.934  0.00  0.00     0.028 C 
ATOM     10  C   LIG d   1      -2.059  73.648 116.234  0.00  0.00     0.006 C 
ENDBRANCH   8   9
BRANCH   8  11
ATOM     11  C   LIG d   1      -2.726  75.523 118.155  0.00  0.00     0.028 C 
ATOM     12  C   LIG d   1      -2.365  76.587 119.204  0.00  0.00     0.006 C 
ENDBRANCH   8  11
ENDBRANCH   7   8
ENDBRANCH   1   7
BRANCH   6  13
ATOM     13  N   LIG d   1      -5.547  77.832 117.967  0.00  0.00    -0.311 N 
ATOM     14  C   LIG d   1      -5.722  79.136 117.759  0.00  0.00     0.210 C 
ATOM     15  C   LIG d   1      -5.011  80.052 118.760  0.00  0.00     0.109 C 
ATOM     16  O   LIG d   1      -6.425  79.620 116.859  0.00  0.00    -0.276 OA
ATOM     17  H   LIG d   1      -4.987  77.527 118.739  0.00  0.00     0.149 HD
ENDBRANCH   6  13
BRANCH   5  18
ATOM     18  N   LIG d   1      -8.540  77.330 117.617  0.00  0.00     0.381 N 
ATOM     19  H   LIG d   1      -9.129  77.219 116.816  0.00  0.00    -0.090 HD
ATOM     20  H   LIG d   1      -8.093  78.228 117.558  0.00  0.00    -0.090 HD
ATOM     21  H   LIG d   1      -9.084  77.275 118.449  0.00  0.00    -0.090 HD
ENDBRANCH   5  18
BRANCH   3  22
ATOM     22  C   LIG d   1      -7.486  72.838 116.330  0.00  0.00     0.382 C 
ATOM     23  O   LIG d   1      -6.709  71.976 115.854  0.00  0.00    -0.241 OA
ATOM     24  O   LIG d   1      -8.670  72.533 116.567  0.00  0.00    -0.241 OA
ENDBRANCH   3  22
TORSDOF 7
ENDMDL
MODEL 5
REMARK VINA RESULT:      -4.6     13.754     16.745
REMARK  7 active torsions:
REMARK  status: ('A' for Active; 'I' for Inactive)
REMARK    1  A    between atoms: C_2  and  C_3 
REMARK    2  A    between atoms: C_3  and  O_6 
REMARK    3  A    between atoms: C_3  and  C_4 
REMARK    4  A    between atoms: C_7  and  O_6 
REMARK    5  A    between atoms: C_9  and  C_10 
REMARK    6  A    between atoms: N_15  and  C_14 
REMARK    7  A    between atoms: N_20  and  C_19 
REMARK       I    between atoms: C_22  and  N_20 
ROOT
ATOM      1  C   LIG d   1      -2.673  90.502 117.634  0.00  0.00     0.161 C 
ATOM      2  C   LIG d   1      -3.868  90.307 116.921  0.00  0.00     0.016 C 
ATOM      3  C   LIG d   1      -4.788  91.344 116.645  0.00  0.00     0.038 C 
ATOM      4  C   LIG d   1      -4.500  92.687 116.934  0.00  0.00     0.028 C 
ATOM      5  C   LIG d   1      -3.536  92.861 118.102  0.00  0.00    -0.047 C 
ATOM      6  C   LIG d   1      -2.290  91.980 117.860  0.00  0.00     0.091 C 
ENDROOT
BRANCH   1   7
ATOM      7  O   LIG d   1      -1.596  89.799 116.984  0.00  0.00    -0.368 OA
BRANCH   7   8
ATOM      8  C   LIG d   1      -1.480  88.388 117.289  0.00  0.00     0.119 C 
BRANCH   8   9
ATOM      9  C   LIG d   1      -1.546  88.238 118.821  0.00  0.00     0.028 C 
ATOM     10  C   LIG d   1      -1.277  86.796 119.282  0.00  0.00     0.006 C 
ENDBRANCH   8   9
BRANCH   8  11
ATOM     11  C   LIG d   1      -0.108  87.841 116.886  0.00  0.00     0.028 C 
ATOM     12  C   LIG d   1       0.871  88.945 116.456  0.00  0.00     0.006 C 
ENDBRANCH   8  11
ENDBRANCH   7   8
ENDBRANCH   1   7
BRANCH   6  13
ATOM     13  N   LIG d   1      -1.333  92.027 118.997  0.00  0.00    -0.311 N 
ATOM     14  C   LIG d   1      -0.286  92.849 119.039  0.00  0.00     0.210 C 
ATOM     15  C   LIG d   1       0.585  92.722 120.293  0.00  0.00     0.109 C 
ATOM     16  O   LIG d   1      -0.013  93.694 118.173  0.00  0.00    -0.276 OA
ATOM     17  H   LIG d   1      -1.496  91.397 119.757  0.00  0.00     0.149 HD
ENDBRANCH   6  13
BRANCH   5  18
ATOM     18  N   LIG d   1      -3.217  94.298 118.206  0.00  0.00     0.381 N 
ATOM     19  H   LIG d   1      -2.258  94.450 117.965  0.00  0.00    -0.090 HD
ATOM     20  H   LIG d   1      -3.354  94.594 119.156  0.00  0.00    -0.090 HD
ATOM     21  H   LIG d   1      -3.807  94.823 117.598  0.00  0.00    -0.090 HD
ENDBRANCH   5  18
BRANCH   3  22
ATOM     22  C   LIG d   1      -6.029  91.037 116.108  0.00  0.00     0.382 C 
ATOM     23  O   LIG d   1      -6.336  89.842 115.883  0.00  0.00    -0.241 OA
ATOM     24  O   LIG d   1      -6.828  91.943 115.805  0.00  0.00    -0.241 OA
ENDBRANCH   3  22
TORSDOF 7
ENDMDL
MODEL 6
REMARK VINA RESULT:      -4.6     14.389     17.343
REMARK  7 active torsions:
REMARK  status: ('A' for Active; 'I' for Inactive)
REMARK    1  A    between atoms: C_2  and  C_3 
REMARK    2  A    between atoms: C_3  and  O_6 
REMARK    3  A    between atoms: C_3  and  C_4 
REMARK    4  A    between atoms: C_7  and  O_6 
REMARK    5  A    between atoms: C_9  and  C_10 
REMARK    6  A    between atoms: N_15  and  C_14 
REMARK    7  A    between atoms: N_20  and  C_19 
REMARK       I    between atoms: C_22  and  N_20 
ROOT
ATOM      1  C   LIG d   1      -1.814  91.468 119.172  0.00  0.00     0.161 C 
ATOM      2  C   LIG d   1      -3.216  91.390 119.136  0.00  0.00     0.016 C 
ATOM      3  C   LIG d   1      -4.022  92.232 118.335  0.00  0.00     0.038 C 
ATOM      4  C   LIG d   1      -3.467  93.114 117.396  0.00  0.00     0.028 C 
ATOM      5  C   LIG d   1      -2.063  93.583 117.760  0.00  0.00    -0.047 C 
ATOM      6  C   LIG d   1      -1.187  92.348 118.071  0.00  0.00     0.091 C 
ENDROOT
BRANCH   1   7
ATOM      7  O   LIG d   1      -1.250  90.142 119.136  0.00  0.00    -0.368 OA
BRANCH   7   8
ATOM      8  C   LIG d   1      -1.184  89.513 117.832  0.00  0.00     0.119 C 
BRANCH   8   9
ATOM      9  C   LIG d   1      -2.083  88.263 117.874  0.00  0.00     0.028 C 
ATOM     10  C   LIG d   1      -2.187  87.662 119.286  0.00  0.00     0.006 C 
ENDBRANCH   8   9
BRANCH   8  11
ATOM     11  C   LIG d   1       0.225  88.990 117.537  0.00  0.00     0.028 C 
ATOM     12  C   LIG d   1       0.250  87.948 116.408  0.00  0.00     0.006 C 
ENDBRANCH   8  11
ENDBRANCH   7   8
ENDBRANCH   1   7
BRANCH   6  13
ATOM     13  N   LIG d   1       0.181  92.721 118.518  0.00  0.00    -0.311 N 
ATOM     14  C   LIG d   1       1.252  92.663 117.729  0.00  0.00     0.210 C 
ATOM     15  C   LIG d   1       2.569  93.073 118.394  0.00  0.00     0.109 C 
ATOM     16  O   LIG d   1       1.231  92.341 116.531  0.00  0.00    -0.276 OA
ATOM     17  H   LIG d   1       0.284  93.024 119.467  0.00  0.00     0.149 HD
ENDBRANCH   6  13
BRANCH   5  18
ATOM     18  N   LIG d   1      -1.553  94.384 116.631  0.00  0.00     0.381 N 
ATOM     19  H   LIG d   1      -0.899  95.062 116.965  0.00  0.00    -0.090 HD
ATOM     20  H   LIG d   1      -2.322  94.870 116.204  0.00  0.00    -0.090 HD
ATOM     21  H   LIG d   1      -1.115  93.790 115.962  0.00  0.00    -0.090 HD
ENDBRANCH   5  18
BRANCH   3  22
ATOM     22  C   LIG d   1      -5.399  92.225 118.500  0.00  0.00     0.382 C 
ATOM     23  O   LIG d   1      -6.146  92.002 117.517  0.00  0.00    -0.241 OA
ATOM     24  O   LIG d   1      -5.904  92.482 119.609  0.00  0.00    -0.241 OA
ENDBRANCH   3  22
TORSDOF 7
ENDMDL
MODEL 7
REMARK VINA RESULT:      -4.5     16.148     18.795
REMARK  7 active torsions:
REMARK  status: ('A' for Active; 'I' for Inactive)
REMARK    1  A    between atoms: C_2  and  C_3 
REMARK    2  A    between atoms: C_3  and  O_6 
REMARK    3  A    between atoms: C_3  and  C_4 
REMARK    4  A    between atoms: C_7  and  O_6 
REMARK    5  A    between atoms: C_9  and  C_10 
REMARK    6  A    between atoms: N_15  and  C_14 
REMARK    7  A    between atoms: N_20  and  C_19 
REMARK       I    between atoms: C_22  and  N_20 
ROOT
ATOM      1  C   LIG d   1      -3.593  92.560 119.011  0.00  0.00     0.161 C 
ATOM      2  C   LIG d   1      -3.823  91.583 118.029  0.00  0.00     0.016 C 
ATOM      3  C   LIG d   1      -4.921  91.618 117.139  0.00  0.00     0.038 C 
ATOM      4  C   LIG d   1      -5.785  92.721 117.071  0.00  0.00     0.028 C 
ATOM      5  C   LIG d   1      -5.887  93.492 118.382  0.00  0.00    -0.047 C 
ATOM      6  C   LIG d   1      -4.462  93.828 118.879  0.00  0.00     0.091 C 
ENDROOT
BRANCH   1   7
ATOM      7  O   LIG d   1      -2.195  92.911 119.033  0.00  0.00    -0.368 OA
BRANCH   7   8
ATOM      8  C   LIG d   1      -1.534  92.974 117.745  0.00  0.00     0.119 C 
BRANCH   8   9
ATOM      9  C   LIG d   1      -0.188  92.235 117.879  0.00  0.00     0.028 C 
ATOM     10  C   LIG d   1      -0.049  91.081 116.872  0.00  0.00     0.006 C 
ENDBRANCH   8   9
BRANCH   8  11
ATOM     11  C   LIG d   1      -1.170  94.415 117.375  0.00  0.00     0.028 C 
ATOM     12  C   LIG d   1      -1.045  95.332 118.602  0.00  0.00     0.006 C 
ENDBRANCH   8  11
ENDBRANCH   7   8
ENDBRANCH   1   7
BRANCH   6  13
ATOM     13  N   LIG d   1      -4.468  94.509 120.200  0.00  0.00    -0.311 N 
ATOM     14  C   LIG d   1      -4.422  95.833 120.342  0.00  0.00     0.210 C 
ATOM     15  C   LIG d   1      -4.417  96.327 121.792  0.00  0.00     0.109 C 
ATOM     16  O   LIG d   1      -4.416  96.645 119.405  0.00  0.00    -0.276 OA
ATOM     17  H   LIG d   1      -4.503  93.927 121.013  0.00  0.00     0.149 HD
ENDBRANCH   6  13
BRANCH   5  18
ATOM     18  N   LIG d   1      -6.709  94.691 118.131  0.00  0.00     0.381 N 
ATOM     19  H   LIG d   1      -6.900  95.158 118.995  0.00  0.00    -0.090 HD
ATOM     20  H   LIG d   1      -7.584  94.407 117.726  0.00  0.00    -0.090 HD
ATOM     21  H   LIG d   1      -6.232  95.308 117.510  0.00  0.00    -0.090 HD
ENDBRANCH   5  18
BRANCH   3  22
ATOM     22  C   LIG d   1      -5.186  90.523 116.331  0.00  0.00     0.382 C 
ATOM     23  O   LIG d   1      -4.239  89.863 115.839  0.00  0.00    -0.241 OA
ATOM     24  O   LIG d   1      -6.360  90.213 116.052  0.00  0.00    -0.241 OA
ENDBRANCH   3  22
TORSDOF 7
ENDMDL
MODEL 8
REMARK VINA RESULT:      -4.5      4.822      6.234
REMARK  7 active torsions:
REMARK  status: ('A' for Active; 'I' for Inactive)
REMARK    1  A    between atoms: C_2  and  C_3 
REMARK    2  A    between atoms: C_3  and  O_6 
REMARK    3  A    between atoms: C_3  and  C_4 
REMARK    4  A    between atoms: C_7  and  O_6 
REMARK    5  A    between atoms: C_9  and  C_10 
REMARK    6  A    between atoms: N_15  and  C_14 
REMARK    7  A    between atoms: N_20  and  C_19 
REMARK       I    between atoms: C_22  and  N_20 
ROOT
ATOM      1  C   LIG d   1      -6.114  79.918 117.562  0.00  0.00     0.161 C 
ATOM      2  C   LIG d   1      -4.820  79.736 118.078  0.00  0.00     0.016 C 
ATOM      3  C   LIG d   1      -4.349  80.383 119.243  0.00  0.00     0.038 C 
ATOM      4  C   LIG d   1      -5.196  81.145 120.062  0.00  0.00     0.028 C 
ATOM      5  C   LIG d   1      -6.369  81.764 119.311  0.00  0.00    -0.047 C 
ATOM      6  C   LIG d   1      -7.087  80.659 118.503  0.00  0.00     0.091 C 
ENDROOT
BRANCH   1   7
ATOM      7  O   LIG d   1      -6.667  78.646 117.169  0.00  0.00    -0.368 OA
BRANCH   7   8
ATOM      8  C   LIG d   1      -7.372  77.912 118.200  0.00  0.00     0.119 C 
BRANCH   8   9
ATOM      9  C   LIG d   1      -6.513  76.685 118.564  0.00  0.00     0.028 C 
ATOM     10  C   LIG d   1      -6.090  76.683 120.042  0.00  0.00     0.006 C 
ENDBRANCH   8   9
BRANCH   8  11
ATOM     11  C   LIG d   1      -8.692  77.341 117.675  0.00  0.00     0.028 C 
ATOM     12  C   LIG d   1      -8.493  76.120 116.763  0.00  0.00     0.006 C 
ENDBRANCH   8  11
ENDBRANCH   7   8
ENDBRANCH   1   7
BRANCH   6  13
ATOM     13  N   LIG d   1      -8.197  81.194 117.672  0.00  0.00    -0.311 N 
ATOM     14  C   LIG d   1      -9.472  81.188 118.059  0.00  0.00     0.210 C 
ATOM     15  C   LIG d   1     -10.459  81.770 117.042  0.00  0.00     0.109 C 
ATOM     16  O   LIG d   1      -9.875  80.785 119.160  0.00  0.00    -0.276 OA
ATOM     17  H   LIG d   1      -7.956  81.569 116.775  0.00  0.00     0.149 HD
ENDBRANCH   6  13
BRANCH   5  18
ATOM     18  N   LIG d   1      -7.243  82.414 120.306  0.00  0.00     0.381 N 
ATOM     19  H   LIG d   1      -8.201  82.301 120.040  0.00  0.00    -0.090 HD
ATOM     20  H   LIG d   1      -7.035  83.396 120.328  0.00  0.00    -0.090 HD
ATOM     21  H   LIG d   1      -7.091  82.014 121.205  0.00  0.00    -0.090 HD
ENDBRANCH   5  18
BRANCH   3  22
ATOM     22  C   LIG d   1      -3.006  80.303 119.578  0.00  0.00     0.382 C 
ATOM     23  O   LIG d   1      -2.443  79.183 119.650  0.00  0.00    -0.241 OA
ATOM     24  O   LIG d   1      -2.361  81.332 119.853  0.00  0.00    -0.241 OA
ENDBRANCH   3  22
TORSDOF 7
ENDMDL
MODEL 9
REMARK VINA RESULT:      -4.5     15.535     18.403
REMARK  7 active torsions:
REMARK  status: ('A' for Active; 'I' for Inactive)
REMARK    1  A    between atoms: C_2  and  C_3 
REMARK    2  A    between atoms: C_3  and  O_6 
REMARK    3  A    between atoms: C_3  and  C_4 
REMARK    4  A    between atoms: C_7  and  O_6 
REMARK    5  A    between atoms: C_9  and  C_10 
REMARK    6  A    between atoms: N_15  and  C_14 
REMARK    7  A    between atoms: N_20  and  C_19 
REMARK       I    between atoms: C_22  and  N_20 
ROOT
ATOM      1  C   LIG d   1      -2.725  92.831 117.781  0.00  0.00     0.161 C 
ATOM      2  C   LIG d   1      -4.066  92.723 117.377  0.00  0.00     0.016 C 
ATOM      3  C   LIG d   1      -4.638  91.526 116.889  0.00  0.00     0.038 C 
ATOM      4  C   LIG d   1      -3.942  90.308 116.914  0.00  0.00     0.028 C 
ATOM      5  C   LIG d   1      -2.428  90.473 116.841  0.00  0.00    -0.047 C 
ATOM      6  C   LIG d   1      -1.981  91.486 117.920  0.00  0.00     0.091 C 
ENDROOT
BRANCH   1   7
ATOM      7  O   LIG d   1      -2.644  93.578 119.011  0.00  0.00    -0.368 OA
BRANCH   7   8
ATOM      8  C   LIG d   1      -1.829  94.775 118.977  0.00  0.00     0.119 C 
BRANCH   8   9
ATOM      9  C   LIG d   1      -2.674  95.926 119.557  0.00  0.00     0.028 C 
ATOM     10  C   LIG d   1      -4.108  95.488 119.897  0.00  0.00     0.006 C 
ENDBRANCH   8   9
BRANCH   8  11
ATOM     11  C   LIG d   1      -1.509  95.191 117.538  0.00  0.00     0.028 C 
ATOM     12  C   LIG d   1      -1.345  96.711 117.380  0.00  0.00     0.006 C 
ENDBRANCH   8  11
ENDBRANCH   7   8
ENDBRANCH   1   7
BRANCH   6  13
ATOM     13  N   LIG d   1      -0.524  91.770 117.862  0.00  0.00    -0.311 N 
ATOM     14  C   LIG d   1       0.378  91.129 118.604  0.00  0.00     0.210 C 
ATOM     15  C   LIG d   1       1.825  91.590 118.404  0.00  0.00     0.109 C 
ATOM     16  O   LIG d   1       0.121  90.200 119.384  0.00  0.00    -0.276 OA
ATOM     17  H   LIG d   1      -0.224  92.488 117.232  0.00  0.00     0.149 HD
ENDBRANCH   6  13
BRANCH   5  18
ATOM     18  N   LIG d   1      -1.825  89.139 117.015  0.00  0.00     0.381 N 
ATOM     19  H   LIG d   1      -0.937  89.225 117.468  0.00  0.00    -0.090 HD
ATOM     20  H   LIG d   1      -1.679  88.727 116.110  0.00  0.00    -0.090 HD
ATOM     21  H   LIG d   1      -2.427  88.560 117.558  0.00  0.00    -0.090 HD
ENDBRANCH   5  18
BRANCH   3  22
ATOM     22  C   LIG d   1      -5.907  91.548 116.331  0.00  0.00     0.382 C 
ATOM     23  O   LIG d   1      -6.552  90.480 116.199  0.00  0.00    -0.241 OA
ATOM     24  O   LIG d   1      -6.398  92.616 115.919  0.00  0.00    -0.241 OA
ENDBRANCH   3  22
TORSDOF 7
ENDMDL
