MODEL 1
REMARK VINA RESULT:      -5.6      0.000      0.000
REMARK  7 active torsions:
REMARK  status: ('A' for Active; 'I' for Inactive)
REMARK    1  A    between atoms: C_2  and  C_3 
REMARK    2  A    between atoms: C_3  and  O_6 
REMARK    3  A    between atoms: C_3  and  C_4 
REMARK    4  A    between atoms: C_7  and  O_6 
REMARK    5  A    between atoms: C_9  and  C_10 
REMARK    6  A    between atoms: N_15  and  C_14 
REMARK    7  A    between atoms: N_20  and  C_19 
REMARK       I    between atoms: C_22  and  N_20 
ROOT
ATOM      1  C   LIG d   1      -5.804  76.292 117.002  0.00  0.00     0.161 C 
ATOM      2  C   LIG d   1      -6.215  75.044 116.505  0.00  0.00     0.016 C 
ATOM      3  C   LIG d   1      -7.560  74.609 116.510  0.00  0.00     0.038 C 
ATOM      4  C   LIG d   1      -8.613  75.461 116.876  0.00  0.00     0.028 C 
ATOM      5  C   LIG d   1      -8.197  76.550 117.859  0.00  0.00    -0.047 C 
ATOM      6  C   LIG d   1      -6.952  77.278 117.303  0.00  0.00     0.091 C 
ENDROOT
BRANCH   1   7
ATOM      7  O   LIG d   1      -4.854  76.890 116.097  0.00  0.00    -0.368 OA
BRANCH   7   8
ATOM      8  C   LIG d   1      -3.519  77.097 116.619  0.00  0.00     0.119 C 
BRANCH   8   9
ATOM      9  C   LIG d   1      -2.982  78.407 116.011  0.00  0.00     0.028 C 
ATOM     10  C   LIG d   1      -3.208  79.618 116.932  0.00  0.00     0.006 C 
ENDBRANCH   8   9
BRANCH   8  11
ATOM     11  C   LIG d   1      -2.558  76.004 116.141  0.00  0.00     0.028 C 
ATOM     12  C   LIG d   1      -1.994  75.161 117.296  0.00  0.00     0.006 C 
ENDBRANCH   8  11
ENDBRANCH   7   8
ENDBRANCH   1   7
BRANCH   6  13
ATOM     13  N   LIG d   1      -6.429  78.304 118.243  0.00  0.00    -0.311 N 
ATOM     14  C   LIG d   1      -6.743  79.596 118.167  0.00  0.00     0.210 C 
ATOM     15  C   LIG d   1      -6.078  80.486 119.221  0.00  0.00     0.109 C 
ATOM     16  O   LIG d   1      -7.534  80.084 117.347  0.00  0.00    -0.276 OA
ATOM     17  H   LIG d   1      -5.804  77.990 118.959  0.00  0.00     0.149 HD
ENDBRANCH   6  13
BRANCH   5  18
ATOM     18  N   LIG d   1      -9.354  77.446 118.047  0.00  0.00     0.381 N 
ATOM     19  H   LIG d   1      -9.916  77.118 118.807  0.00  0.00    -0.090 HD
ATOM     20  H   LIG d   1      -9.914  77.434 117.213  0.00  0.00    -0.090 HD
ATOM     21  H   LIG d   1      -9.041  78.373 118.232  0.00  0.00    -0.090 HD
ENDBRANCH   5  18
BRANCH   3  22
ATOM     22  C   LIG d   1      -7.859  73.295 116.182  0.00  0.00     0.382 C 
ATOM     23  O   LIG d   1      -9.032  72.869 116.308  0.00  0.00    -0.241 OA
ATOM     24  O   LIG d   1      -6.961  72.519 115.805  0.00  0.00    -0.241 OA
ENDBRANCH   3  22
TORSDOF 7
ENDMDL
MODEL 2
REMARK VINA RESULT:      -5.4     17.110     19.036
REMARK  7 active torsions:
REMARK  status: ('A' for Active; 'I' for Inactive)
REMARK    1  A    between atoms: C_2  and  C_3 
REMARK    2  A    between atoms: C_3  and  O_6 
REMARK    3  A    between atoms: C_3  and  C_4 
REMARK    4  A    between atoms: C_7  and  O_6 
REMARK    5  A    between atoms: C_9  and  C_10 
REMARK    6  A    between atoms: N_15  and  C_14 
REMARK    7  A    between atoms: N_20  and  C_19 
REMARK       I    between atoms: C_22  and  N_20 
ROOT
ATOM      1  C   LIG d   1      -1.056  59.763 119.921  0.00  0.00     0.161 C 
ATOM      2  C   LIG d   1      -2.278  59.632 119.241  0.00  0.00     0.016 C 
ATOM      3  C   LIG d   1      -2.411  59.791 117.842  0.00  0.00     0.038 C 
ATOM      4  C   LIG d   1      -1.297  59.945 117.004  0.00  0.00     0.028 C 
ATOM      5  C   LIG d   1      -0.100  60.587 117.699  0.00  0.00    -0.047 C 
ATOM      6  C   LIG d   1       0.188  59.821 119.010  0.00  0.00     0.091 C 
ENDROOT
BRANCH   1   7
ATOM      7  O   LIG d   1      -0.920  58.704 120.889  0.00  0.00    -0.368 OA
BRANCH   7   8
ATOM      8  C   LIG d   1      -1.480  57.422 120.514  0.00  0.00     0.119 C 
BRANCH   8   9
ATOM      9  C   LIG d   1      -2.230  56.868 121.741  0.00  0.00     0.028 C 
ATOM     10  C   LIG d   1      -3.756  56.991 121.601  0.00  0.00     0.006 C 
ENDBRANCH   8   9
BRANCH   8  11
ATOM     11  C   LIG d   1      -0.379  56.399 120.216  0.00  0.00     0.028 C 
ATOM     12  C   LIG d   1      -0.170  56.171 118.710  0.00  0.00     0.006 C 
ENDBRANCH   8  11
ENDBRANCH   7   8
ENDBRANCH   1   7
BRANCH   6  13
ATOM     13  N   LIG d   1       1.291  60.435 119.794  0.00  0.00    -0.311 N 
ATOM     14  C   LIG d   1       2.338  59.748 120.249  0.00  0.00     0.210 C 
ATOM     15  C   LIG d   1       3.351  60.571 121.052  0.00  0.00     0.109 C 
ATOM     16  O   LIG d   1       2.540  58.543 120.036  0.00  0.00    -0.276 OA
ATOM     17  H   LIG d   1       1.224  61.415 119.986  0.00  0.00     0.149 HD
ENDBRANCH   6  13
BRANCH   5  18
ATOM     18  N   LIG d   1       1.031  60.560 116.753  0.00  0.00     0.381 N 
ATOM     19  H   LIG d   1       0.998  61.367 116.163  0.00  0.00    -0.090 HD
ATOM     20  H   LIG d   1       0.952  59.743 116.174  0.00  0.00    -0.090 HD
ATOM     21  H   LIG d   1       1.893  60.540 117.252  0.00  0.00    -0.090 HD
ENDBRANCH   5  18
BRANCH   3  22
ATOM     22  C   LIG d   1      -3.675  59.837 117.273  0.00  0.00     0.382 C 
ATOM     23  O   LIG d   1      -3.949  60.722 116.426  0.00  0.00    -0.241 OA
ATOM     24  O   LIG d   1      -4.558  59.034 117.628  0.00  0.00    -0.241 OA
ENDBRANCH   3  22
TORSDOF 7
ENDMDL
MODEL 3
REMARK VINA RESULT:      -5.4     17.443     19.681
REMARK  7 active torsions:
REMARK  status: ('A' for Active; 'I' for Inactive)
REMARK    1  A    between atoms: C_2  and  C_3 
REMARK    2  A    between atoms: C_3  and  O_6 
REMARK    3  A    between atoms: C_3  and  C_4 
REMARK    4  A    between atoms: C_7  and  O_6 
REMARK    5  A    between atoms: C_9  and  C_10 
REMARK    6  A    between atoms: N_15  and  C_14 
REMARK    7  A    between atoms: N_20  and  C_19 
REMARK       I    between atoms: C_22  and  N_20 
ROOT
ATOM      1  C   LIG d   1      -1.212  58.609 119.143  0.00  0.00     0.161 C 
ATOM      2  C   LIG d   1      -2.253  59.393 118.619  0.00  0.00     0.016 C 
ATOM      3  C   LIG d   1      -3.047  58.997 117.519  0.00  0.00     0.038 C 
ATOM      4  C   LIG d   1      -2.953  57.714 116.960  0.00  0.00     0.028 C 
ATOM      5  C   LIG d   1      -1.576  57.080 117.129  0.00  0.00    -0.047 C 
ATOM      6  C   LIG d   1      -1.166  57.159 118.617  0.00  0.00     0.091 C 
ENDROOT
BRANCH   1   7
ATOM      7  O   LIG d   1      -1.271  58.618 120.583  0.00  0.00    -0.368 OA
BRANCH   7   8
ATOM      8  C   LIG d   1      -0.091  59.108 121.266  0.00  0.00     0.119 C 
BRANCH   8   9
ATOM      9  C   LIG d   1      -0.565  60.035 122.402  0.00  0.00     0.028 C 
ATOM     10  C   LIG d   1      -0.182  61.505 122.159  0.00  0.00     0.006 C 
ENDBRANCH   8   9
BRANCH   8  11
ATOM     11  C   LIG d   1       0.758  59.993 120.348  0.00  0.00     0.028 C 
ATOM     12  C   LIG d   1       2.188  59.461 120.164  0.00  0.00     0.006 C 
ENDBRANCH   8  11
ENDBRANCH   7   8
ENDBRANCH   1   7
BRANCH   6  13
ATOM     13  N   LIG d   1       0.204  56.636 118.856  0.00  0.00    -0.311 N 
ATOM     14  C   LIG d   1       0.454  55.390 119.255  0.00  0.00     0.210 C 
ATOM     15  C   LIG d   1       1.937  55.063 119.462  0.00  0.00     0.109 C 
ATOM     16  O   LIG d   1      -0.408  54.516 119.427  0.00  0.00    -0.276 OA
ATOM     17  H   LIG d   1       0.966  57.270 118.711  0.00  0.00     0.149 HD
ENDBRANCH   6  13
BRANCH   5  18
ATOM     18  N   LIG d   1      -1.658  55.696 116.624  0.00  0.00     0.381 N 
ATOM     19  H   LIG d   1      -1.711  55.058 117.393  0.00  0.00    -0.090 HD
ATOM     20  H   LIG d   1      -0.825  55.491 116.101  0.00  0.00    -0.090 HD
ATOM     21  H   LIG d   1      -2.459  55.592 116.041  0.00  0.00    -0.090 HD
ENDBRANCH   5  18
BRANCH   3  22
ATOM     22  C   LIG d   1      -3.922  59.904 116.941  0.00  0.00     0.382 C 
ATOM     23  O   LIG d   1      -5.055  60.093 117.448  0.00  0.00    -0.241 OA
ATOM     24  O   LIG d   1      -3.611  60.503 115.894  0.00  0.00    -0.241 OA
ENDBRANCH   3  22
TORSDOF 7
ENDMDL
MODEL 4
REMARK VINA RESULT:      -5.3     17.317     19.257
REMARK  7 active torsions:
REMARK  status: ('A' for Active; 'I' for Inactive)
REMARK    1  A    between atoms: C_2  and  C_3 
REMARK    2  A    between atoms: C_3  and  O_6 
REMARK    3  A    between atoms: C_3  and  C_4 
REMARK    4  A    between atoms: C_7  and  O_6 
REMARK    5  A    between atoms: C_9  and  C_10 
REMARK    6  A    between atoms: N_15  and  C_14 
REMARK    7  A    between atoms: N_20  and  C_19 
REMARK       I    between atoms: C_22  and  N_20 
ROOT
ATOM      1  C   LIG d   1      -0.942  57.947 118.504  0.00  0.00     0.161 C 
ATOM      2  C   LIG d   1      -1.685  58.878 117.758  0.00  0.00     0.016 C 
ATOM      3  C   LIG d   1      -3.068  59.102 117.948  0.00  0.00     0.038 C 
ATOM      4  C   LIG d   1      -3.775  58.513 119.007  0.00  0.00     0.028 C 
ATOM      5  C   LIG d   1      -3.183  57.185 119.467  0.00  0.00    -0.047 C 
ATOM      6  C   LIG d   1      -1.673  57.376 119.737  0.00  0.00     0.091 C 
ENDROOT
BRANCH   1   7
ATOM      7  O   LIG d   1       0.319  58.527 118.892  0.00  0.00    -0.368 OA
BRANCH   7   8
ATOM      8  C   LIG d   1       0.400  59.972 118.838  0.00  0.00     0.119 C 
BRANCH   8   9
ATOM      9  C   LIG d   1       1.696  60.336 118.087  0.00  0.00     0.028 C 
ATOM     10  C   LIG d   1       1.420  61.032 116.744  0.00  0.00     0.006 C 
ENDBRANCH   8   9
BRANCH   8  11
ATOM     11  C   LIG d   1       0.559  60.575 120.237  0.00  0.00     0.028 C 
ATOM     12  C   LIG d   1      -0.781  60.994 120.862  0.00  0.00     0.006 C 
ENDBRANCH   8  11
ENDBRANCH   7   8
ENDBRANCH   1   7
BRANCH   6  13
ATOM     13  N   LIG d   1      -0.999  56.106 120.111  0.00  0.00    -0.311 N 
ATOM     14  C   LIG d   1      -0.293  55.952 121.230  0.00  0.00     0.210 C 
ATOM     15  C   LIG d   1       0.336  54.567 121.413  0.00  0.00     0.109 C 
ATOM     16  O   LIG d   1      -0.155  56.821 122.104  0.00  0.00    -0.276 OA
ATOM     17  H   LIG d   1      -1.085  55.339 119.473  0.00  0.00     0.149 HD
ENDBRANCH   6  13
BRANCH   5  18
ATOM     18  N   LIG d   1      -3.933  56.752 120.661  0.00  0.00     0.381 N 
ATOM     19  H   LIG d   1      -4.078  55.763 120.630  0.00  0.00    -0.090 HD
ATOM     20  H   LIG d   1      -4.832  57.202 120.661  0.00  0.00    -0.090 HD
ATOM     21  H   LIG d   1      -3.431  56.996 121.486  0.00  0.00    -0.090 HD
ENDBRANCH   5  18
BRANCH   3  22
ATOM     22  C   LIG d   1      -3.766  59.892 117.048  0.00  0.00     0.382 C 
ATOM     23  O   LIG d   1      -4.980  60.141 117.243  0.00  0.00    -0.241 OA
ATOM     24  O   LIG d   1      -3.209  60.323 116.021  0.00  0.00    -0.241 OA
ENDBRANCH   3  22
TORSDOF 7
ENDMDL
MODEL 5
REMARK VINA RESULT:      -5.2      2.254      4.347
REMARK  7 active torsions:
REMARK  status: ('A' for Active; 'I' for Inactive)
REMARK    1  A    between atoms: C_2  and  C_3 
REMARK    2  A    between atoms: C_3  and  O_6 
REMARK    3  A    between atoms: C_3  and  C_4 
REMARK    4  A    between atoms: C_7  and  O_6 
REMARK    5  A    between atoms: C_9  and  C_10 
REMARK    6  A    between atoms: N_15  and  C_14 
REMARK    7  A    between atoms: N_20  and  C_19 
REMARK       I    between atoms: C_22  and  N_20 
ROOT
ATOM      1  C   LIG d   1      -7.451  77.820 117.841  0.00  0.00     0.161 C 
ATOM      2  C   LIG d   1      -8.426  76.823 117.672  0.00  0.00     0.016 C 
ATOM      3  C   LIG d   1      -8.148  75.546 117.133  0.00  0.00     0.038 C 
ATOM      4  C   LIG d   1      -6.837  75.124 116.865  0.00  0.00     0.028 C 
ATOM      5  C   LIG d   1      -5.885  76.272 116.546  0.00  0.00    -0.047 C 
ATOM      6  C   LIG d   1      -5.996  77.340 117.658  0.00  0.00     0.091 C 
ENDROOT
BRANCH   1   7
ATOM      7  O   LIG d   1      -7.613  78.448 119.128  0.00  0.00    -0.368 OA
BRANCH   7   8
ATOM      8  C   LIG d   1      -8.489  79.602 119.169  0.00  0.00     0.119 C 
BRANCH   8   9
ATOM      9  C   LIG d   1      -8.252  80.409 117.877  0.00  0.00     0.028 C 
ATOM     10  C   LIG d   1      -9.447  81.307 117.518  0.00  0.00     0.006 C 
ENDBRANCH   8   9
BRANCH   8  11
ATOM     11  C   LIG d   1      -8.111  80.548 120.312  0.00  0.00     0.028 C 
ATOM     12  C   LIG d   1      -6.648  81.012 120.243  0.00  0.00     0.006 C 
ENDBRANCH   8  11
ENDBRANCH   7   8
ENDBRANCH   1   7
BRANCH   6  13
ATOM     13  N   LIG d   1      -5.160  78.536 117.380  0.00  0.00    -0.311 N 
ATOM     14  C   LIG d   1      -4.268  79.023 118.242  0.00  0.00     0.210 C 
ATOM     15  C   LIG d   1      -3.526  80.276 117.766  0.00  0.00     0.109 C 
ATOM     16  O   LIG d   1      -3.999  78.518 119.342  0.00  0.00    -0.276 OA
ATOM     17  H   LIG d   1      -5.291  78.990 116.498  0.00  0.00     0.149 HD
ENDBRANCH   6  13
BRANCH   5  18
ATOM     18  N   LIG d   1      -4.528  75.704 116.424  0.00  0.00     0.381 N 
ATOM     19  H   LIG d   1      -4.035  75.816 117.287  0.00  0.00    -0.090 HD
ATOM     20  H   LIG d   1      -4.030  76.205 115.709  0.00  0.00    -0.090 HD
ATOM     21  H   LIG d   1      -4.583  74.738 116.186  0.00  0.00    -0.090 HD
ENDBRANCH   5  18
BRANCH   3  22
ATOM     22  C   LIG d   1      -9.192  74.690 116.819  0.00  0.00     0.382 C 
ATOM     23  O   LIG d   1     -10.379  75.077 116.943  0.00  0.00    -0.241 OA
ATOM     24  O   LIG d   1      -8.963  73.520 116.457  0.00  0.00    -0.241 OA
ENDBRANCH   3  22
TORSDOF 7
ENDMDL
MODEL 6
REMARK VINA RESULT:      -5.0     12.476     14.627
REMARK  7 active torsions:
REMARK  status: ('A' for Active; 'I' for Inactive)
REMARK    1  A    between atoms: C_2  and  C_3 
REMARK    2  A    between atoms: C_3  and  O_6 
REMARK    3  A    between atoms: C_3  and  C_4 
REMARK    4  A    between atoms: C_7  and  O_6 
REMARK    5  A    between atoms: C_9  and  C_10 
REMARK    6  A    between atoms: N_15  and  C_14 
REMARK    7  A    between atoms: N_20  and  C_19 
REMARK       I    between atoms: C_22  and  N_20 
ROOT
ATOM      1  C   LIG d   1      -2.767  90.217 118.184  0.00  0.00     0.161 C 
ATOM      2  C   LIG d   1      -3.716  89.608 117.347  0.00  0.00     0.016 C 
ATOM      3  C   LIG d   1      -4.969  90.187 117.041  0.00  0.00     0.038 C 
ATOM      4  C   LIG d   1      -5.298  91.493 117.434  0.00  0.00     0.028 C 
ATOM      5  C   LIG d   1      -4.578  91.944 118.700  0.00  0.00    -0.047 C 
ATOM      6  C   LIG d   1      -3.062  91.691 118.532  0.00  0.00     0.091 C 
ENDROOT
BRANCH   1   7
ATOM      7  O   LIG d   1      -1.453  90.092 117.605  0.00  0.00    -0.368 OA
BRANCH   7   8
ATOM      8  C   LIG d   1      -0.609  89.053 118.157  0.00  0.00     0.119 C 
BRANCH   8   9
ATOM      9  C   LIG d   1       0.499  89.743 118.977  0.00  0.00     0.028 C 
ATOM     10  C   LIG d   1       1.249  90.812 118.165  0.00  0.00     0.006 C 
ENDBRANCH   8   9
BRANCH   8  11
ATOM     11  C   LIG d   1       0.123  88.284 117.053  0.00  0.00     0.028 C 
ATOM     12  C   LIG d   1      -0.445  86.873 116.832  0.00  0.00     0.006 C 
ENDBRANCH   8  11
ENDBRANCH   7   8
ENDBRANCH   1   7
BRANCH   6  13
ATOM     13  N   LIG d   1      -2.292  92.027 119.758  0.00  0.00    -0.311 N 
ATOM     14  C   LIG d   1      -1.371  92.988 119.806  0.00  0.00     0.210 C 
ATOM     15  C   LIG d   1      -0.681  93.156 121.163  0.00  0.00     0.109 C 
ATOM     16  O   LIG d   1      -1.084  93.739 118.861  0.00  0.00    -0.276 OA
ATOM     17  H   LIG d   1      -2.484  91.487 120.580  0.00  0.00     0.149 HD
ENDBRANCH   6  13
BRANCH   5  18
ATOM     18  N   LIG d   1      -4.906  93.366 118.917  0.00  0.00     0.381 N 
ATOM     19  H   LIG d   1      -5.632  93.646 118.288  0.00  0.00    -0.090 HD
ATOM     20  H   LIG d   1      -4.090  93.921 118.724  0.00  0.00    -0.090 HD
ATOM     21  H   LIG d   1      -5.198  93.509 119.859  0.00  0.00    -0.090 HD
ENDBRANCH   5  18
BRANCH   3  22
ATOM     22  C   LIG d   1      -5.925  89.442 116.368  0.00  0.00     0.382 C 
ATOM     23  O   LIG d   1      -7.095  89.880 116.253  0.00  0.00    -0.241 OA
ATOM     24  O   LIG d   1      -5.644  88.317 115.912  0.00  0.00    -0.241 OA
ENDBRANCH   3  22
TORSDOF 7
ENDMDL
MODEL 7
REMARK VINA RESULT:      -4.8     12.866     15.427
REMARK  7 active torsions:
REMARK  status: ('A' for Active; 'I' for Inactive)
REMARK    1  A    between atoms: C_2  and  C_3 
REMARK    2  A    between atoms: C_3  and  O_6 
REMARK    3  A    between atoms: C_3  and  C_4 
REMARK    4  A    between atoms: C_7  and  O_6 
REMARK    5  A    between atoms: C_9  and  C_10 
REMARK    6  A    between atoms: N_15  and  C_14 
REMARK    7  A    between atoms: N_20  and  C_19 
REMARK       I    between atoms: C_22  and  N_20 
ROOT
ATOM      1  C   LIG d   1      -3.191  91.839 118.016  0.00  0.00     0.161 C 
ATOM      2  C   LIG d   1      -4.340  91.220 117.498  0.00  0.00     0.016 C 
ATOM      3  C   LIG d   1      -4.392  89.855 117.133  0.00  0.00     0.038 C 
ATOM      4  C   LIG d   1      -3.334  88.974 117.405  0.00  0.00     0.028 C 
ATOM      5  C   LIG d   1      -1.974  89.661 117.462  0.00  0.00    -0.047 C 
ATOM      6  C   LIG d   1      -2.062  90.869 118.423  0.00  0.00     0.091 C 
ENDROOT
BRANCH   1   7
ATOM      7  O   LIG d   1      -3.550  92.685 119.126  0.00  0.00    -0.368 OA
BRANCH   7   8
ATOM      8  C   LIG d   1      -4.861  92.461 119.700  0.00  0.00     0.119 C 
BRANCH   8   9
ATOM      9  C   LIG d   1      -5.555  93.832 119.818  0.00  0.00     0.028 C 
ATOM     10  C   LIG d   1      -6.785  93.948 118.901  0.00  0.00     0.006 C 
ENDBRANCH   8   9
BRANCH   8  11
ATOM     11  C   LIG d   1      -4.759  91.934 121.134  0.00  0.00     0.028 C 
ATOM     12  C   LIG d   1      -3.343  92.062 121.717  0.00  0.00     0.006 C 
ENDBRANCH   8  11
ENDBRANCH   7   8
ENDBRANCH   1   7
BRANCH   6  13
ATOM     13  N   LIG d   1      -0.796  91.647 118.473  0.00  0.00    -0.311 N 
ATOM     14  C   LIG d   1       0.151  91.448 119.388  0.00  0.00     0.210 C 
ATOM     15  C   LIG d   1       1.366  92.373 119.272  0.00  0.00     0.109 C 
ATOM     16  O   LIG d   1       0.114  90.573 120.266  0.00  0.00    -0.276 OA
ATOM     17  H   LIG d   1      -0.670  92.357 117.779  0.00  0.00     0.149 HD
ENDBRANCH   6  13
BRANCH   5  18
ATOM     18  N   LIG d   1      -0.984  88.654 117.889  0.00  0.00     0.381 N 
ATOM     19  H   LIG d   1      -0.376  88.432 117.125  0.00  0.00    -0.090 HD
ATOM     20  H   LIG d   1      -1.468  87.817 118.160  0.00  0.00    -0.090 HD
ATOM     21  H   LIG d   1      -0.452  89.002 118.656  0.00  0.00    -0.090 HD
ENDBRANCH   5  18
BRANCH   3  22
ATOM     22  C   LIG d   1      -5.497  89.367 116.452  0.00  0.00     0.382 C 
ATOM     23  O   LIG d   1      -5.413  88.291 115.812  0.00  0.00    -0.241 OA
ATOM     24  O   LIG d   1      -6.562  90.011 116.433  0.00  0.00    -0.241 OA
ENDBRANCH   3  22
TORSDOF 7
ENDMDL
MODEL 8
REMARK VINA RESULT:      -4.8     17.444     19.634
REMARK  7 active torsions:
REMARK  status: ('A' for Active; 'I' for Inactive)
REMARK    1  A    between atoms: C_2  and  C_3 
REMARK    2  A    between atoms: C_3  and  O_6 
REMARK    3  A    between atoms: C_3  and  C_4 
REMARK    4  A    between atoms: C_7  and  O_6 
REMARK    5  A    between atoms: C_9  and  C_10 
REMARK    6  A    between atoms: N_15  and  C_14 
REMARK    7  A    between atoms: N_20  and  C_19 
REMARK       I    between atoms: C_22  and  N_20 
ROOT
ATOM      1  C   LIG d   1      -0.824  58.264 120.516  0.00  0.00     0.161 C 
ATOM      2  C   LIG d   1      -1.951  57.849 119.788  0.00  0.00     0.016 C 
ATOM      3  C   LIG d   1      -2.472  58.564 118.685  0.00  0.00     0.038 C 
ATOM      4  C   LIG d   1      -1.805  59.670 118.137  0.00  0.00     0.028 C 
ATOM      5  C   LIG d   1      -0.942  60.418 119.148  0.00  0.00    -0.047 C 
ATOM      6  C   LIG d   1      -0.018  59.408 119.865  0.00  0.00     0.091 C 
ENDROOT
BRANCH   1   7
ATOM      7  O   LIG d   1       0.033  57.134 120.777  0.00  0.00    -0.368 OA
BRANCH   7   8
ATOM      8  C   LIG d   1       0.889  56.718 119.685  0.00  0.00     0.119 C 
BRANCH   8   9
ATOM      9  C   LIG d   1       0.435  55.312 119.249  0.00  0.00     0.028 C 
ATOM     10  C   LIG d   1       1.584  54.480 118.656  0.00  0.00     0.006 C 
ENDBRANCH   8   9
BRANCH   8  11
ATOM     11  C   LIG d   1       2.340  56.550 120.148  0.00  0.00     0.028 C 
ATOM     12  C   LIG d   1       2.530  56.870 121.639  0.00  0.00     0.006 C 
ENDBRANCH   8  11
ENDBRANCH   7   8
ENDBRANCH   1   7
BRANCH   6  13
ATOM     13  N   LIG d   1       0.800  60.044 120.929  0.00  0.00    -0.311 N 
ATOM     14  C   LIG d   1       2.055  60.451 120.745  0.00  0.00     0.210 C 
ATOM     15  C   LIG d   1       2.725  61.063 121.979  0.00  0.00     0.109 C 
ATOM     16  O   LIG d   1       2.666  60.393 119.667  0.00  0.00    -0.276 OA
ATOM     17  H   LIG d   1       0.372  60.159 121.827  0.00  0.00     0.149 HD
ENDBRANCH   6  13
BRANCH   5  18
ATOM     18  N   LIG d   1      -0.200  61.461 118.414  0.00  0.00     0.381 N 
ATOM     19  H   LIG d   1       0.434  61.034 117.769  0.00  0.00    -0.090 HD
ATOM     20  H   LIG d   1       0.334  62.002 119.071  0.00  0.00    -0.090 HD
ATOM     21  H   LIG d   1      -0.836  62.052 117.925  0.00  0.00    -0.090 HD
ENDBRANCH   5  18
BRANCH   3  22
ATOM     22  C   LIG d   1      -3.694  58.196 118.143  0.00  0.00     0.382 C 
ATOM     23  O   LIG d   1      -4.006  56.984 118.064  0.00  0.00    -0.241 OA
ATOM     24  O   LIG d   1      -4.469  59.060 117.690  0.00  0.00    -0.241 OA
ENDBRANCH   3  22
TORSDOF 7
ENDMDL
MODEL 9
REMARK VINA RESULT:      -4.8     18.094     20.472
REMARK  7 active torsions:
REMARK  status: ('A' for Active; 'I' for Inactive)
REMARK    1  A    between atoms: C_2  and  C_3 
REMARK    2  A    between atoms: C_3  and  O_6 
REMARK    3  A    between atoms: C_3  and  C_4 
REMARK    4  A    between atoms: C_7  and  O_6 
REMARK    5  A    between atoms: C_9  and  C_10 
REMARK    6  A    between atoms: N_15  and  C_14 
REMARK    7  A    between atoms: N_20  and  C_19 
REMARK       I    between atoms: C_22  and  N_20 
ROOT
ATOM      1  C   LIG d   1      -0.116  57.682 119.969  0.00  0.00     0.161 C 
ATOM      2  C   LIG d   1       0.943  56.882 120.429  0.00  0.00     0.016 C 
ATOM      3  C   LIG d   1       1.394  55.725 119.754  0.00  0.00     0.038 C 
ATOM      4  C   LIG d   1       0.912  55.372 118.485  0.00  0.00     0.028 C 
ATOM      5  C   LIG d   1      -0.507  55.864 118.217  0.00  0.00    -0.047 C 
ATOM      6  C   LIG d   1      -0.581  57.376 118.530  0.00  0.00     0.091 C 
ENDROOT
BRANCH   1   7
ATOM      7  O   LIG d   1       0.233  59.075 120.097  0.00  0.00    -0.368 OA
BRANCH   7   8
ATOM      8  C   LIG d   1       1.029  59.634 119.024  0.00  0.00     0.119 C 
BRANCH   8   9
ATOM      9  C   LIG d   1       2.324  60.188 119.649  0.00  0.00     0.028 C 
ATOM     10  C   LIG d   1       2.142  60.580 121.125  0.00  0.00     0.006 C 
ENDBRANCH   8   9
BRANCH   8  11
ATOM     11  C   LIG d   1       0.337  60.842 118.386  0.00  0.00     0.028 C 
ATOM     12  C   LIG d   1      -0.920  61.281 119.153  0.00  0.00     0.006 C 
ENDBRANCH   8  11
ENDBRANCH   7   8
ENDBRANCH   1   7
BRANCH   6  13
ATOM     13  N   LIG d   1      -1.955  57.920 118.376  0.00  0.00    -0.311 N 
ATOM     14  C   LIG d   1      -2.387  58.515 117.265  0.00  0.00     0.210 C 
ATOM     15  C   LIG d   1      -3.832  59.022 117.324  0.00  0.00     0.109 C 
ATOM     16  O   LIG d   1      -1.723  58.641 116.226  0.00  0.00    -0.276 OA
ATOM     17  H   LIG d   1      -2.571  57.832 119.160  0.00  0.00     0.149 HD
ENDBRANCH   6  13
BRANCH   5  18
ATOM     18  N   LIG d   1      -0.831  55.547 116.814  0.00  0.00     0.381 N 
ATOM     19  H   LIG d   1       0.012  55.445 116.286  0.00  0.00    -0.090 HD
ATOM     20  H   LIG d   1      -1.358  56.308 116.422  0.00  0.00    -0.090 HD
ATOM     21  H   LIG d   1      -1.364  54.706 116.768  0.00  0.00    -0.090 HD
ENDBRANCH   5  18
BRANCH   3  22
ATOM     22  C   LIG d   1       2.311  54.884 120.367  0.00  0.00     0.382 C 
ATOM     23  O   LIG d   1       2.925  55.268 121.391  0.00  0.00    -0.241 OA
ATOM     24  O   LIG d   1       2.563  53.764 119.884  0.00  0.00    -0.241 OA
ENDBRANCH   3  22
TORSDOF 7
ENDMDL
