MODEL 1
REMARK VINA RESULT:      -5.2      0.000      0.000
REMARK  7 active torsions:
REMARK  status: ('A' for Active; 'I' for Inactive)
REMARK    1  A    between atoms: C_2  and  C_3 
REMARK    2  A    between atoms: C_3  and  O_6 
REMARK    3  A    between atoms: C_3  and  C_4 
REMARK    4  A    between atoms: C_7  and  O_6 
REMARK    5  A    between atoms: C_9  and  C_10 
REMARK    6  A    between atoms: N_15  and  C_14 
REMARK    7  A    between atoms: N_20  and  C_19 
REMARK       I    between atoms: C_22  and  N_20 
ROOT
ATOM      1  C   LIG d   1      -8.058  74.494 119.370  0.00  0.00     0.161 C 
ATOM      2  C   LIG d   1      -7.540  73.422 118.624  0.00  0.00     0.016 C 
ATOM      3  C   LIG d   1      -8.109  72.972 117.410  0.00  0.00     0.038 C 
ATOM      4  C   LIG d   1      -9.152  73.665 116.779  0.00  0.00     0.028 C 
ATOM      5  C   LIG d   1     -10.030  74.451 117.746  0.00  0.00    -0.047 C 
ATOM      6  C   LIG d   1      -9.128  75.332 118.640  0.00  0.00     0.091 C 
ENDROOT
BRANCH   1   7
ATOM      7  O   LIG d   1      -6.982  75.339 119.822  0.00  0.00    -0.368 OA
BRANCH   7   8
ATOM      8  C   LIG d   1      -6.323  76.132 118.804  0.00  0.00     0.119 C 
BRANCH   8   9
ATOM      9  C   LIG d   1      -4.821  75.794 118.853  0.00  0.00     0.028 C 
ATOM     10  C   LIG d   1      -4.367  74.957 117.644  0.00  0.00     0.006 C 
ENDBRANCH   8   9
BRANCH   8  11
ATOM     11  C   LIG d   1      -6.412  77.628 119.118  0.00  0.00     0.028 C 
ATOM     12  C   LIG d   1      -7.067  78.437 117.987  0.00  0.00     0.006 C 
ENDBRANCH   8  11
ENDBRANCH   7   8
ENDBRANCH   1   7
BRANCH   6  13
ATOM     13  N   LIG d   1      -9.901  76.071 119.672  0.00  0.00    -0.311 N 
ATOM     14  C   LIG d   1     -10.499  77.239 119.444  0.00  0.00     0.210 C 
ATOM     15  C   LIG d   1     -11.226  77.840 120.651  0.00  0.00     0.109 C 
ATOM     16  O   LIG d   1     -10.523  77.819 118.348  0.00  0.00    -0.276 OA
ATOM     17  H   LIG d   1      -9.960  75.657 120.582  0.00  0.00     0.149 HD
ENDBRANCH   6  13
BRANCH   5  18
ATOM     18  N   LIG d   1     -10.989  75.233 116.943  0.00  0.00     0.381 N 
ATOM     19  H   LIG d   1     -11.786  75.467 117.501  0.00  0.00    -0.090 HD
ATOM     20  H   LIG d   1     -11.299  74.671 116.170  0.00  0.00    -0.090 HD
ATOM     21  H   LIG d   1     -10.554  76.064 116.607  0.00  0.00    -0.090 HD
ENDBRANCH   5  18
BRANCH   3  22
ATOM     22  C   LIG d   1      -7.659  71.793 116.836  0.00  0.00     0.382 C 
ATOM     23  O   LIG d   1      -8.007  70.688 117.318  0.00  0.00    -0.241 OA
ATOM     24  O   LIG d   1      -6.874  71.820 115.870  0.00  0.00    -0.241 OA
ENDBRANCH   3  22
TORSDOF 7
ENDMDL
MODEL 2
REMARK VINA RESULT:      -5.2     16.397     18.523
REMARK  7 active torsions:
REMARK  status: ('A' for Active; 'I' for Inactive)
REMARK    1  A    between atoms: C_2  and  C_3 
REMARK    2  A    between atoms: C_3  and  O_6 
REMARK    3  A    between atoms: C_3  and  C_4 
REMARK    4  A    between atoms: C_7  and  O_6 
REMARK    5  A    between atoms: C_9  and  C_10 
REMARK    6  A    between atoms: N_15  and  C_14 
REMARK    7  A    between atoms: N_20  and  C_19 
REMARK       I    between atoms: C_22  and  N_20 
ROOT
ATOM      1  C   LIG d   1      -5.365  91.885 120.218  0.00  0.00     0.161 C 
ATOM      2  C   LIG d   1      -6.765  91.934 120.109  0.00  0.00     0.016 C 
ATOM      3  C   LIG d   1      -7.491  93.137 119.949  0.00  0.00     0.038 C 
ATOM      4  C   LIG d   1      -6.851  94.366 119.734  0.00  0.00     0.028 C 
ATOM      5  C   LIG d   1      -5.453  94.436 120.340  0.00  0.00    -0.047 C 
ATOM      6  C   LIG d   1      -4.643  93.205 119.874  0.00  0.00     0.091 C 
ENDROOT
BRANCH   1   7
ATOM      7  O   LIG d   1      -4.850  90.807 119.411  0.00  0.00    -0.368 OA
BRANCH   7   8
ATOM      8  C   LIG d   1      -4.500  91.144 118.046  0.00  0.00     0.119 C 
BRANCH   8   9
ATOM      9  C   LIG d   1      -5.497  90.420 117.121  0.00  0.00     0.028 C 
ATOM     10  C   LIG d   1      -6.290  91.395 116.235  0.00  0.00     0.006 C 
ENDBRANCH   8   9
BRANCH   8  11
ATOM     11  C   LIG d   1      -3.122  90.590 117.671  0.00  0.00     0.028 C 
ATOM     12  C   LIG d   1      -2.376  89.986 118.871  0.00  0.00     0.006 C 
ENDBRANCH   8  11
ENDBRANCH   7   8
ENDBRANCH   1   7
BRANCH   6  13
ATOM     13  N   LIG d   1      -3.291  93.150 120.489  0.00  0.00    -0.311 N 
ATOM     14  C   LIG d   1      -2.190  93.590 119.880  0.00  0.00     0.210 C 
ATOM     15  C   LIG d   1      -0.896  93.422 120.682  0.00  0.00     0.109 C 
ATOM     16  O   LIG d   1      -2.168  94.131 118.764  0.00  0.00    -0.276 OA
ATOM     17  H   LIG d   1      -3.222  92.754 121.406  0.00  0.00     0.149 HD
ENDBRANCH   6  13
BRANCH   5  18
ATOM     18  N   LIG d   1      -4.850  95.716 119.924  0.00  0.00     0.381 N 
ATOM     19  H   LIG d   1      -4.153  95.551 119.226  0.00  0.00    -0.090 HD
ATOM     20  H   LIG d   1      -4.406  96.140 120.720  0.00  0.00    -0.090 HD
ATOM     21  H   LIG d   1      -5.553  96.323 119.565  0.00  0.00    -0.090 HD
ENDBRANCH   5  18
BRANCH   3  22
ATOM     22  C   LIG d   1      -8.874  93.122 120.043  0.00  0.00     0.382 C 
ATOM     23  O   LIG d   1      -9.432  92.510 120.986  0.00  0.00    -0.241 OA
ATOM     24  O   LIG d   1      -9.573  93.675 119.173  0.00  0.00    -0.241 OA
ENDBRANCH   3  22
TORSDOF 7
ENDMDL
MODEL 3
REMARK VINA RESULT:      -5.1     16.438     18.496
REMARK  7 active torsions:
REMARK  status: ('A' for Active; 'I' for Inactive)
REMARK    1  A    between atoms: C_2  and  C_3 
REMARK    2  A    between atoms: C_3  and  O_6 
REMARK    3  A    between atoms: C_3  and  C_4 
REMARK    4  A    between atoms: C_7  and  O_6 
REMARK    5  A    between atoms: C_9  and  C_10 
REMARK    6  A    between atoms: N_15  and  C_14 
REMARK    7  A    between atoms: N_20  and  C_19 
REMARK       I    between atoms: C_22  and  N_20 
ROOT
ATOM      1  C   LIG d   1      -5.345  92.210 119.434  0.00  0.00     0.161 C 
ATOM      2  C   LIG d   1      -6.727  92.301 119.194  0.00  0.00     0.016 C 
ATOM      3  C   LIG d   1      -7.522  93.387 119.628  0.00  0.00     0.038 C 
ATOM      4  C   LIG d   1      -6.958  94.536 120.203  0.00  0.00     0.028 C 
ATOM      5  C   LIG d   1      -5.638  94.269 120.919  0.00  0.00    -0.047 C 
ATOM      6  C   LIG d   1      -4.694  93.505 119.962  0.00  0.00     0.091 C 
ENDROOT
BRANCH   1   7
ATOM      7  O   LIG d   1      -4.671  91.760 118.242  0.00  0.00    -0.368 OA
BRANCH   7   8
ATOM      8  C   LIG d   1      -4.539  90.326 118.088  0.00  0.00     0.119 C 
BRANCH   8   9
ATOM      9  C   LIG d   1      -3.150  89.928 118.624  0.00  0.00     0.028 C 
ATOM     10  C   LIG d   1      -2.007  90.445 117.734  0.00  0.00     0.006 C 
ENDBRANCH   8   9
BRANCH   8  11
ATOM     11  C   LIG d   1      -4.534  89.923 116.610  0.00  0.00     0.028 C 
ATOM     12  C   LIG d   1      -5.663  90.587 115.807  0.00  0.00     0.006 C 
ENDBRANCH   8  11
ENDBRANCH   7   8
ENDBRANCH   1   7
BRANCH   6  13
ATOM     13  N   LIG d   1      -3.411  93.131 120.612  0.00  0.00    -0.311 N 
ATOM     14  C   LIG d   1      -2.219  93.346 120.058  0.00  0.00     0.210 C 
ATOM     15  C   LIG d   1      -1.024  92.865 120.888  0.00  0.00     0.109 C 
ATOM     16  O   LIG d   1      -2.035  93.918 118.973  0.00  0.00    -0.276 OA
ATOM     17  H   LIG d   1      -3.466  92.690 121.509  0.00  0.00     0.149 HD
ENDBRANCH   6  13
BRANCH   5  18
ATOM     18  N   LIG d   1      -5.095  95.571 121.350  0.00  0.00     0.381 N 
ATOM     19  H   LIG d   1      -5.809  96.102 121.806  0.00  0.00    -0.090 HD
ATOM     20  H   LIG d   1      -4.791  96.081 120.540  0.00  0.00    -0.090 HD
ATOM     21  H   LIG d   1      -4.328  95.431 121.971  0.00  0.00    -0.090 HD
ENDBRANCH   5  18
BRANCH   3  22
ATOM     22  C   LIG d   1      -8.902  93.312 119.523  0.00  0.00     0.382 C 
ATOM     23  O   LIG d   1      -9.512  94.062 118.722  0.00  0.00    -0.241 OA
ATOM     24  O   LIG d   1      -9.550  92.537 120.251  0.00  0.00    -0.241 OA
ENDBRANCH   3  22
TORSDOF 7
ENDMDL
MODEL 4
REMARK VINA RESULT:      -5.0      2.013      4.308
REMARK  7 active torsions:
REMARK  status: ('A' for Active; 'I' for Inactive)
REMARK    1  A    between atoms: C_2  and  C_3 
REMARK    2  A    between atoms: C_3  and  O_6 
REMARK    3  A    between atoms: C_3  and  C_4 
REMARK    4  A    between atoms: C_7  and  O_6 
REMARK    5  A    between atoms: C_9  and  C_10 
REMARK    6  A    between atoms: N_15  and  C_14 
REMARK    7  A    between atoms: N_20  and  C_19 
REMARK       I    between atoms: C_22  and  N_20 
ROOT
ATOM      1  C   LIG d   1      -9.075  75.895 117.361  0.00  0.00     0.161 C 
ATOM      2  C   LIG d   1      -9.151  74.499 117.228  0.00  0.00     0.016 C 
ATOM      3  C   LIG d   1      -8.175  73.614 117.741  0.00  0.00     0.038 C 
ATOM      4  C   LIG d   1      -7.126  74.060 118.558  0.00  0.00     0.028 C 
ATOM      5  C   LIG d   1      -6.729  75.509 118.297  0.00  0.00    -0.047 C 
ATOM      6  C   LIG d   1      -7.996  76.393 118.346  0.00  0.00     0.091 C 
ENDROOT
BRANCH   1   7
ATOM      7  O   LIG d   1     -10.366  76.422 117.724  0.00  0.00    -0.368 OA
BRANCH   7   8
ATOM      8  C   LIG d   1     -11.035  75.765 118.829  0.00  0.00     0.119 C 
BRANCH   8   9
ATOM      9  C   LIG d   1     -12.486  75.486 118.390  0.00  0.00     0.028 C 
ATOM     10  C   LIG d   1     -13.430  75.277 119.586  0.00  0.00     0.006 C 
ENDBRANCH   8   9
BRANCH   8  11
ATOM     11  C   LIG d   1     -11.149  76.692 120.042  0.00  0.00     0.028 C 
ATOM     12  C   LIG d   1     -11.000  78.177 119.674  0.00  0.00     0.006 C 
ENDBRANCH   8  11
ENDBRANCH   7   8
ENDBRANCH   1   7
BRANCH   6  13
ATOM     13  N   LIG d   1      -7.709  77.814 118.018  0.00  0.00    -0.311 N 
ATOM     14  C   LIG d   1      -7.453  78.741 118.938  0.00  0.00     0.210 C 
ATOM     15  C   LIG d   1      -7.203  80.148 118.386  0.00  0.00     0.109 C 
ATOM     16  O   LIG d   1      -7.378  78.526 120.157  0.00  0.00    -0.276 OA
ATOM     17  H   LIG d   1      -7.718  78.069 117.050  0.00  0.00     0.149 HD
ENDBRANCH   6  13
BRANCH   5  18
ATOM     18  N   LIG d   1      -5.723  75.884 119.309  0.00  0.00     0.381 N 
ATOM     19  H   LIG d   1      -5.008  75.186 119.351  0.00  0.00    -0.090 HD
ATOM     20  H   LIG d   1      -6.168  75.933 120.208  0.00  0.00    -0.090 HD
ATOM     21  H   LIG d   1      -5.322  76.767 119.080  0.00  0.00    -0.090 HD
ENDBRANCH   5  18
BRANCH   3  22
ATOM     22  C   LIG d   1      -8.221  72.270 117.403  0.00  0.00     0.382 C 
ATOM     23  O   LIG d   1      -7.943  71.907 116.234  0.00  0.00    -0.241 OA
ATOM     24  O   LIG d   1      -8.579  71.420 118.239  0.00  0.00    -0.241 OA
ENDBRANCH   3  22
TORSDOF 7
ENDMDL
MODEL 5
REMARK VINA RESULT:      -4.8      2.515      5.119
REMARK  7 active torsions:
REMARK  status: ('A' for Active; 'I' for Inactive)
REMARK    1  A    between atoms: C_2  and  C_3 
REMARK    2  A    between atoms: C_3  and  O_6 
REMARK    3  A    between atoms: C_3  and  C_4 
REMARK    4  A    between atoms: C_7  and  O_6 
REMARK    5  A    between atoms: C_9  and  C_10 
REMARK    6  A    between atoms: N_15  and  C_14 
REMARK    7  A    between atoms: N_20  and  C_19 
REMARK       I    between atoms: C_22  and  N_20 
ROOT
ATOM      1  C   LIG d   1      -8.923  76.738 117.618  0.00  0.00     0.161 C 
ATOM      2  C   LIG d   1     -10.265  76.678 118.027  0.00  0.00     0.016 C 
ATOM      3  C   LIG d   1     -10.966  75.465 118.222  0.00  0.00     0.038 C 
ATOM      4  C   LIG d   1     -10.322  74.220 118.167  0.00  0.00     0.028 C 
ATOM      5  C   LIG d   1      -9.093  74.213 117.264  0.00  0.00    -0.047 C 
ATOM      6  C   LIG d   1      -8.173  75.390 117.660  0.00  0.00     0.091 C 
ENDROOT
BRANCH   1   7
ATOM      7  O   LIG d   1      -8.219  77.727 118.394  0.00  0.00    -0.368 OA
BRANCH   7   8
ATOM      8  C   LIG d   1      -9.042  78.628 119.175  0.00  0.00     0.119 C 
BRANCH   8   9
ATOM      9  C   LIG d   1      -8.898  80.035 118.563  0.00  0.00     0.028 C 
ATOM     10  C   LIG d   1     -10.241  80.780 118.482  0.00  0.00     0.006 C 
ENDBRANCH   8   9
BRANCH   8  11
ATOM     11  C   LIG d   1      -8.523  78.755 120.610  0.00  0.00     0.028 C 
ATOM     12  C   LIG d   1      -9.129  77.709 121.559  0.00  0.00     0.006 C 
ENDBRANCH   8  11
ENDBRANCH   7   8
ENDBRANCH   1   7
BRANCH   6  13
ATOM     13  N   LIG d   1      -6.987  75.507 116.772  0.00  0.00    -0.311 N 
ATOM     14  C   LIG d   1      -5.826  74.902 117.015  0.00  0.00     0.210 C 
ATOM     15  C   LIG d   1      -4.727  75.171 115.982  0.00  0.00     0.109 C 
ATOM     16  O   LIG d   1      -5.611  74.142 117.972  0.00  0.00    -0.276 OA
ATOM     17  H   LIG d   1      -7.083  76.079 115.956  0.00  0.00     0.149 HD
ENDBRANCH   6  13
BRANCH   5  18
ATOM     18  N   LIG d   1      -8.443  72.897 117.407  0.00  0.00     0.381 N 
ATOM     19  H   LIG d   1      -8.736  72.465 118.261  0.00  0.00    -0.090 HD
ATOM     20  H   LIG d   1      -7.447  73.029 117.447  0.00  0.00    -0.090 HD
ATOM     21  H   LIG d   1      -8.677  72.314 116.634  0.00  0.00    -0.090 HD
ENDBRANCH   5  18
BRANCH   3  22
ATOM     22  C   LIG d   1     -12.335  75.490 118.437  0.00  0.00     0.382 C 
ATOM     23  O   LIG d   1     -13.060  76.272 117.775  0.00  0.00    -0.241 OA
ATOM     24  O   LIG d   1     -12.850  74.772 119.315  0.00  0.00    -0.241 OA
ENDBRANCH   3  22
TORSDOF 7
ENDMDL
MODEL 6
REMARK VINA RESULT:      -4.8      1.703      4.846
REMARK  7 active torsions:
REMARK  status: ('A' for Active; 'I' for Inactive)
REMARK    1  A    between atoms: C_2  and  C_3 
REMARK    2  A    between atoms: C_3  and  O_6 
REMARK    3  A    between atoms: C_3  and  C_4 
REMARK    4  A    between atoms: C_7  and  O_6 
REMARK    5  A    between atoms: C_9  and  C_10 
REMARK    6  A    between atoms: N_15  and  C_14 
REMARK    7  A    between atoms: N_20  and  C_19 
REMARK       I    between atoms: C_22  and  N_20 
ROOT
ATOM      1  C   LIG d   1      -7.660  76.145 117.799  0.00  0.00     0.161 C 
ATOM      2  C   LIG d   1      -7.958  77.477 118.131  0.00  0.00     0.016 C 
ATOM      3  C   LIG d   1      -9.276  77.980 118.219  0.00  0.00     0.038 C 
ATOM      4  C   LIG d   1     -10.398  77.142 118.130  0.00  0.00     0.028 C 
ATOM      5  C   LIG d   1     -10.152  75.889 117.297  0.00  0.00    -0.047 C 
ATOM      6  C   LIG d   1      -8.871  75.189 117.807  0.00  0.00     0.091 C 
ENDROOT
BRANCH   1   7
ATOM      7  O   LIG d   1      -6.623  75.646 118.667  0.00  0.00    -0.368 OA
BRANCH   7   8
ATOM      8  C   LIG d   1      -5.265  75.778 118.179  0.00  0.00     0.119 C 
BRANCH   8   9
ATOM      9  C   LIG d   1      -4.847  74.414 117.598  0.00  0.00     0.028 C 
ATOM     10  C   LIG d   1      -3.400  74.416 117.078  0.00  0.00     0.006 C 
ENDBRANCH   8   9
BRANCH   8  11
ATOM     11  C   LIG d   1      -4.285  76.049 119.325  0.00  0.00     0.028 C 
ATOM     12  C   LIG d   1      -3.742  77.486 119.318  0.00  0.00     0.006 C 
ENDBRANCH   8  11
ENDBRANCH   7   8
ENDBRANCH   1   7
BRANCH   6  13
ATOM     13  N   LIG d   1      -8.511  74.000 116.993  0.00  0.00    -0.311 N 
ATOM     14  C   LIG d   1      -8.185  72.821 117.520  0.00  0.00     0.210 C 
ATOM     15  C   LIG d   1      -7.829  71.733 116.502  0.00  0.00     0.109 C 
ATOM     16  O   LIG d   1      -8.188  72.564 118.734  0.00  0.00    -0.276 OA
ATOM     17  H   LIG d   1      -8.514  74.111 115.998  0.00  0.00     0.149 HD
ENDBRANCH   6  13
BRANCH   5  18
ATOM     18  N   LIG d   1     -11.354  75.041 117.401  0.00  0.00     0.381 N 
ATOM     19  H   LIG d   1     -11.284  74.452 118.207  0.00  0.00    -0.090 HD
ATOM     20  H   LIG d   1     -11.412  74.456 116.586  0.00  0.00    -0.090 HD
ATOM     21  H   LIG d   1     -12.169  75.611 117.468  0.00  0.00    -0.090 HD
ENDBRANCH   5  18
BRANCH   3  22
ATOM     22  C   LIG d   1      -9.483  79.344 118.360  0.00  0.00     0.382 C 
ATOM     23  O   LIG d   1     -10.613  79.776 118.693  0.00  0.00    -0.241 OA
ATOM     24  O   LIG d   1      -8.566  80.151 118.115  0.00  0.00    -0.241 OA
ENDBRANCH   3  22
TORSDOF 7
ENDMDL
MODEL 7
REMARK VINA RESULT:      -4.8      2.305      4.244
REMARK  7 active torsions:
REMARK  status: ('A' for Active; 'I' for Inactive)
REMARK    1  A    between atoms: C_2  and  C_3 
REMARK    2  A    between atoms: C_3  and  O_6 
REMARK    3  A    between atoms: C_3  and  C_4 
REMARK    4  A    between atoms: C_7  and  O_6 
REMARK    5  A    between atoms: C_9  and  C_10 
REMARK    6  A    between atoms: N_15  and  C_14 
REMARK    7  A    between atoms: N_20  and  C_19 
REMARK       I    between atoms: C_22  and  N_20 
ROOT
ATOM      1  C   LIG d   1      -7.957  75.605 117.578  0.00  0.00     0.161 C 
ATOM      2  C   LIG d   1      -8.066  74.226 117.329  0.00  0.00     0.016 C 
ATOM      3  C   LIG d   1      -6.963  73.405 117.000  0.00  0.00     0.038 C 
ATOM      4  C   LIG d   1      -5.644  73.882 117.046  0.00  0.00     0.028 C 
ATOM      5  C   LIG d   1      -5.533  75.382 116.800  0.00  0.00    -0.047 C 
ATOM      6  C   LIG d   1      -6.511  76.120 117.743  0.00  0.00     0.091 C 
ENDROOT
BRANCH   1   7
ATOM      7  O   LIG d   1      -8.748  75.957 118.730  0.00  0.00    -0.368 OA
BRANCH   7   8
ATOM      8  C   LIG d   1      -9.883  76.823 118.484  0.00  0.00     0.119 C 
BRANCH   8   9
ATOM      9  C   LIG d   1      -9.756  78.033 119.428  0.00  0.00     0.028 C 
ATOM     10  C   LIG d   1     -10.028  79.367 118.713  0.00  0.00     0.006 C 
ENDBRANCH   8   9
BRANCH   8  11
ATOM     11  C   LIG d   1     -11.199  76.142 118.872  0.00  0.00     0.028 C 
ATOM     12  C   LIG d   1     -11.714  75.180 117.790  0.00  0.00     0.006 C 
ENDBRANCH   8  11
ENDBRANCH   7   8
ENDBRANCH   1   7
BRANCH   6  13
ATOM     13  N   LIG d   1      -6.527  77.587 117.508  0.00  0.00    -0.311 N 
ATOM     14  C   LIG d   1      -6.239  78.483 118.450  0.00  0.00     0.210 C 
ATOM     15  C   LIG d   1      -6.335  79.945 118.003  0.00  0.00     0.109 C 
ATOM     16  O   LIG d   1      -5.881  78.206 119.604  0.00  0.00    -0.276 OA
ATOM     17  H   LIG d   1      -6.777  77.899 116.590  0.00  0.00     0.149 HD
ENDBRANCH   6  13
BRANCH   5  18
ATOM     18  N   LIG d   1      -4.125  75.766 117.013  0.00  0.00     0.381 N 
ATOM     19  H   LIG d   1      -3.594  75.580 116.186  0.00  0.00    -0.090 HD
ATOM     20  H   LIG d   1      -3.747  75.213 117.762  0.00  0.00    -0.090 HD
ATOM     21  H   LIG d   1      -4.066  76.734 117.243  0.00  0.00    -0.090 HD
ENDBRANCH   5  18
BRANCH   3  22
ATOM     22  C   LIG d   1      -7.178  72.101 116.580  0.00  0.00     0.382 C 
ATOM     23  O   LIG d   1      -6.266  71.247 116.697  0.00  0.00    -0.241 OA
ATOM     24  O   LIG d   1      -8.256  71.779 116.046  0.00  0.00    -0.241 OA
ENDBRANCH   3  22
TORSDOF 7
ENDMDL
MODEL 8
REMARK VINA RESULT:      -4.8      2.872      5.890
REMARK  7 active torsions:
REMARK  status: ('A' for Active; 'I' for Inactive)
REMARK    1  A    between atoms: C_2  and  C_3 
REMARK    2  A    between atoms: C_3  and  O_6 
REMARK    3  A    between atoms: C_3  and  C_4 
REMARK    4  A    between atoms: C_7  and  O_6 
REMARK    5  A    between atoms: C_9  and  C_10 
REMARK    6  A    between atoms: N_15  and  C_14 
REMARK    7  A    between atoms: N_20  and  C_19 
REMARK       I    between atoms: C_22  and  N_20 
ROOT
ATOM      1  C   LIG d   1      -9.606  77.718 118.699  0.00  0.00     0.161 C 
ATOM      2  C   LIG d   1      -8.729  78.704 118.216  0.00  0.00     0.016 C 
ATOM      3  C   LIG d   1      -8.764  80.052 118.642  0.00  0.00     0.038 C 
ATOM      4  C   LIG d   1      -9.584  80.475 119.698  0.00  0.00     0.028 C 
ATOM      5  C   LIG d   1     -10.840  79.627 119.867  0.00  0.00    -0.047 C 
ATOM      6  C   LIG d   1     -10.433  78.137 119.933  0.00  0.00     0.091 C 
ENDROOT
BRANCH   1   7
ATOM      7  O   LIG d   1      -8.875  76.507 118.974  0.00  0.00    -0.368 OA
BRANCH   7   8
ATOM      8  C   LIG d   1      -8.692  75.605 117.855  0.00  0.00     0.119 C 
BRANCH   8   9
ATOM      9  C   LIG d   1     -10.070  75.399 117.197  0.00  0.00     0.028 C 
ATOM     10  C   LIG d   1     -10.976  74.461 118.012  0.00  0.00     0.006 C 
ENDBRANCH   8   9
BRANCH   8  11
ATOM     11  C   LIG d   1      -8.257  74.214 118.326  0.00  0.00     0.028 C 
ATOM     12  C   LIG d   1      -7.638  74.228 119.733  0.00  0.00     0.006 C 
ENDBRANCH   8  11
ENDBRANCH   7   8
ENDBRANCH   1   7
BRANCH   6  13
ATOM     13  N   LIG d   1     -11.609  77.231 120.013  0.00  0.00    -0.311 N 
ATOM     14  C   LIG d   1     -12.081  76.743 121.159  0.00  0.00     0.210 C 
ATOM     15  C   LIG d   1     -13.289  75.812 121.017  0.00  0.00     0.109 C 
ATOM     16  O   LIG d   1     -11.633  77.017 122.283  0.00  0.00    -0.276 OA
ATOM     17  H   LIG d   1     -12.053  76.982 119.151  0.00  0.00     0.149 HD
ENDBRANCH   6  13
BRANCH   5  18
ATOM     18  N   LIG d   1     -11.531  80.091 121.085  0.00  0.00     0.381 N 
ATOM     19  H   LIG d   1     -10.910  80.653 121.633  0.00  0.00    -0.090 HD
ATOM     20  H   LIG d   1     -11.798  79.292 121.632  0.00  0.00    -0.090 HD
ATOM     21  H   LIG d   1     -12.338  80.620 120.838  0.00  0.00    -0.090 HD
ENDBRANCH   5  18
BRANCH   3  22
ATOM     22  C   LIG d   1      -7.999  81.001 117.980  0.00  0.00     0.382 C 
ATOM     23  O   LIG d   1      -8.553  81.992 117.448  0.00  0.00    -0.241 OA
ATOM     24  O   LIG d   1      -6.767  80.855 117.871  0.00  0.00    -0.241 OA
ENDBRANCH   3  22
TORSDOF 7
ENDMDL
MODEL 9
REMARK VINA RESULT:      -4.8      2.955      6.510
REMARK  7 active torsions:
REMARK  status: ('A' for Active; 'I' for Inactive)
REMARK    1  A    between atoms: C_2  and  C_3 
REMARK    2  A    between atoms: C_3  and  O_6 
REMARK    3  A    between atoms: C_3  and  C_4 
REMARK    4  A    between atoms: C_7  and  O_6 
REMARK    5  A    between atoms: C_9  and  C_10 
REMARK    6  A    between atoms: N_15  and  C_14 
REMARK    7  A    between atoms: N_20  and  C_19 
REMARK       I    between atoms: C_22  and  N_20 
ROOT
ATOM      1  C   LIG d   1      -8.051  77.581 118.178  0.00  0.00     0.161 C 
ATOM      2  C   LIG d   1      -9.096  78.471 118.474  0.00  0.00     0.016 C 
ATOM      3  C   LIG d   1      -8.926  79.872 118.556  0.00  0.00     0.038 C 
ATOM      4  C   LIG d   1      -7.722  80.495 118.195  0.00  0.00     0.028 C 
ATOM      5  C   LIG d   1      -6.500  79.601 118.378  0.00  0.00    -0.047 C 
ATOM      6  C   LIG d   1      -6.755  78.250 117.673  0.00  0.00     0.091 C 
ENDROOT
BRANCH   1   7
ATOM      7  O   LIG d   1      -8.504  76.591 117.234  0.00  0.00    -0.368 OA
BRANCH   7   8
ATOM      8  C   LIG d   1      -8.877  75.305 117.788  0.00  0.00     0.119 C 
BRANCH   8   9
ATOM      9  C   LIG d   1      -7.739  74.316 117.469  0.00  0.00     0.028 C 
ATOM     10  C   LIG d   1      -8.264  72.934 117.046  0.00  0.00     0.006 C 
ENDBRANCH   8   9
BRANCH   8  11
ATOM     11  C   LIG d   1     -10.116  74.735 117.091  0.00  0.00     0.028 C 
ATOM     12  C   LIG d   1     -11.429  75.306 117.650  0.00  0.00     0.006 C 
ENDBRANCH   8  11
ENDBRANCH   7   8
ENDBRANCH   1   7
BRANCH   6  13
ATOM     13  N   LIG d   1      -5.643  77.286 117.875  0.00  0.00    -0.311 N 
ATOM     14  C   LIG d   1      -4.665  77.099 116.990  0.00  0.00     0.210 C 
ATOM     15  C   LIG d   1      -3.628  76.043 117.385  0.00  0.00     0.109 C 
ATOM     16  O   LIG d   1      -4.539  77.731 115.930  0.00  0.00    -0.276 OA
ATOM     17  H   LIG d   1      -5.649  76.753 118.722  0.00  0.00     0.149 HD
ENDBRANCH   6  13
BRANCH   5  18
ATOM     18  N   LIG d   1      -5.334  80.325 117.836  0.00  0.00     0.381 N 
ATOM     19  H   LIG d   1      -5.359  80.307 116.836  0.00  0.00    -0.090 HD
ATOM     20  H   LIG d   1      -4.495  79.862 118.139  0.00  0.00    -0.090 HD
ATOM     21  H   LIG d   1      -5.337  81.267 118.159  0.00  0.00    -0.090 HD
ENDBRANCH   5  18
BRANCH   3  22
ATOM     22  C   LIG d   1      -9.957  80.663 119.040  0.00  0.00     0.382 C 
ATOM     23  O   LIG d   1     -10.184  80.710 120.273  0.00  0.00    -0.241 OA
ATOM     24  O   LIG d   1     -10.690  81.295 118.257  0.00  0.00    -0.241 OA
ENDBRANCH   3  22
TORSDOF 7
ENDMDL
