MODEL 1
REMARK VINA RESULT:      -5.3      0.000      0.000
REMARK  7 active torsions:
REMARK  status: ('A' for Active; 'I' for Inactive)
REMARK    1  A    between atoms: C_2  and  C_3 
REMARK    2  A    between atoms: C_3  and  O_6 
REMARK    3  A    between atoms: C_3  and  C_4 
REMARK    4  A    between atoms: C_7  and  O_6 
REMARK    5  A    between atoms: C_9  and  C_10 
REMARK    6  A    between atoms: N_15  and  C_14 
REMARK    7  A    between atoms: N_20  and  C_19 
REMARK       I    between atoms: C_22  and  N_20 
ROOT
ATOM      1  C   LIG d   1      -1.515  57.680 119.729  0.00  0.00     0.161 C 
ATOM      2  C   LIG d   1      -1.706  58.925 120.352  0.00  0.00     0.016 C 
ATOM      3  C   LIG d   1      -0.680  59.623 121.029  0.00  0.00     0.038 C 
ATOM      4  C   LIG d   1       0.654  59.191 121.000  0.00  0.00     0.028 C 
ATOM      5  C   LIG d   1       0.799  57.684 120.814  0.00  0.00    -0.047 C 
ATOM      6  C   LIG d   1      -0.040  57.246 119.592  0.00  0.00     0.091 C 
ENDROOT
BRANCH   1   7
ATOM      7  O   LIG d   1      -2.161  57.673 118.441  0.00  0.00    -0.368 OA
BRANCH   7   8
ATOM      8  C   LIG d   1      -2.842  58.895 118.063  0.00  0.00     0.119 C 
BRANCH   8   9
ATOM      9  C   LIG d   1      -4.217  58.501 117.490  0.00  0.00     0.028 C 
ATOM     10  C   LIG d   1      -4.574  59.295 116.223  0.00  0.00     0.006 C 
ENDBRANCH   8   9
BRANCH   8  11
ATOM     11  C   LIG d   1      -2.115  59.607 116.918  0.00  0.00     0.028 C 
ATOM     12  C   LIG d   1      -0.964  58.773 116.334  0.00  0.00     0.006 C 
ENDBRANCH   8  11
ENDBRANCH   7   8
ENDBRANCH   1   7
BRANCH   6  13
ATOM     13  N   LIG d   1      -0.022  55.774 119.389  0.00  0.00    -0.311 N 
ATOM     14  C   LIG d   1       0.493  55.189 118.309  0.00  0.00     0.210 C 
ATOM     15  C   LIG d   1       0.391  53.661 118.291  0.00  0.00     0.109 C 
ATOM     16  O   LIG d   1       1.052  55.789 117.378  0.00  0.00    -0.276 OA
ATOM     17  H   LIG d   1      -0.427  55.209 120.110  0.00  0.00     0.149 HD
ENDBRANCH   6  13
BRANCH   5  18
ATOM     18  N   LIG d   1       2.237  57.390 120.663  0.00  0.00     0.381 N 
ATOM     19  H   LIG d   1       2.669  57.343 121.564  0.00  0.00    -0.090 HD
ATOM     20  H   LIG d   1       2.668  58.134 120.145  0.00  0.00    -0.090 HD
ATOM     21  H   LIG d   1       2.359  56.526 120.183  0.00  0.00    -0.090 HD
ENDBRANCH   5  18
BRANCH   3  22
ATOM     22  C   LIG d   1      -0.992  60.746 121.780  0.00  0.00     0.382 C 
ATOM     23  O   LIG d   1      -2.048  60.774 122.458  0.00  0.00    -0.241 OA
ATOM     24  O   LIG d   1      -0.254  61.749 121.752  0.00  0.00    -0.241 OA
ENDBRANCH   3  22
TORSDOF 7
ENDMDL
MODEL 2
REMARK VINA RESULT:      -5.0     32.791     34.934
REMARK  7 active torsions:
REMARK  status: ('A' for Active; 'I' for Inactive)
REMARK    1  A    between atoms: C_2  and  C_3 
REMARK    2  A    between atoms: C_3  and  O_6 
REMARK    3  A    between atoms: C_3  and  C_4 
REMARK    4  A    between atoms: C_7  and  O_6 
REMARK    5  A    between atoms: C_9  and  C_10 
REMARK    6  A    between atoms: N_15  and  C_14 
REMARK    7  A    between atoms: N_20  and  C_19 
REMARK       I    between atoms: C_22  and  N_20 
ROOT
ATOM      1  C   LIG d   1      -5.578  91.992 119.030  0.00  0.00     0.161 C 
ATOM      2  C   LIG d   1      -6.881  92.509 119.128  0.00  0.00     0.016 C 
ATOM      3  C   LIG d   1      -7.162  93.882 119.315  0.00  0.00     0.038 C 
ATOM      4  C   LIG d   1      -6.155  94.858 119.265  0.00  0.00     0.028 C 
ATOM      5  C   LIG d   1      -4.782  94.334 119.672  0.00  0.00    -0.047 C 
ATOM      6  C   LIG d   1      -4.472  93.055 118.861  0.00  0.00     0.091 C 
ENDROOT
BRANCH   1   7
ATOM      7  O   LIG d   1      -5.514  91.028 117.960  0.00  0.00    -0.368 OA
BRANCH   7   8
ATOM      8  C   LIG d   1      -5.185  91.551 116.650  0.00  0.00     0.119 C 
BRANCH   8   9
ATOM      9  C   LIG d   1      -6.478  91.548 115.811  0.00  0.00     0.028 C 
ATOM     10  C   LIG d   1      -7.259  90.229 115.944  0.00  0.00     0.006 C 
ENDBRANCH   8   9
BRANCH   8  11
ATOM     11  C   LIG d   1      -4.217  90.625 115.907  0.00  0.00     0.028 C 
ATOM     12  C   LIG d   1      -3.504  89.635 116.842  0.00  0.00     0.006 C 
ENDBRANCH   8  11
ENDBRANCH   7   8
ENDBRANCH   1   7
BRANCH   6  13
ATOM     13  N   LIG d   1      -3.184  92.430 119.259  0.00  0.00    -0.311 N 
ATOM     14  C   LIG d   1      -2.052  92.582 118.573  0.00  0.00     0.210 C 
ATOM     15  C   LIG d   1      -0.843  91.836 119.145  0.00  0.00     0.109 C 
ATOM     16  O   LIG d   1      -1.928  93.290 117.562  0.00  0.00    -0.276 OA
ATOM     17  H   LIG d   1      -3.187  91.864 120.085  0.00  0.00     0.149 HD
ENDBRANCH   6  13
BRANCH   5  18
ATOM     18  N   LIG d   1      -3.806  95.415 119.442  0.00  0.00     0.381 N 
ATOM     19  H   LIG d   1      -4.285  96.256 119.187  0.00  0.00    -0.090 HD
ATOM     20  H   LIG d   1      -3.204  95.153 118.682  0.00  0.00    -0.090 HD
ATOM     21  H   LIG d   1      -3.267  95.569 120.265  0.00  0.00    -0.090 HD
ENDBRANCH   5  18
BRANCH   3  22
ATOM     22  C   LIG d   1      -8.458  94.286 119.595  0.00  0.00     0.382 C 
ATOM     23  O   LIG d   1      -8.659  95.327 120.265  0.00  0.00    -0.241 OA
ATOM     24  O   LIG d   1      -9.428  93.599 119.224  0.00  0.00    -0.241 OA
ENDBRANCH   3  22
TORSDOF 7
ENDMDL
MODEL 3
REMARK VINA RESULT:      -5.0     17.550     19.484
REMARK  7 active torsions:
REMARK  status: ('A' for Active; 'I' for Inactive)
REMARK    1  A    between atoms: C_2  and  C_3 
REMARK    2  A    between atoms: C_3  and  O_6 
REMARK    3  A    between atoms: C_3  and  C_4 
REMARK    4  A    between atoms: C_7  and  O_6 
REMARK    5  A    between atoms: C_9  and  C_10 
REMARK    6  A    between atoms: N_15  and  C_14 
REMARK    7  A    between atoms: N_20  and  C_19 
REMARK       I    between atoms: C_22  and  N_20 
ROOT
ATOM      1  C   LIG d   1      -7.021  75.747 117.332  0.00  0.00     0.161 C 
ATOM      2  C   LIG d   1      -8.406  75.759 117.569  0.00  0.00     0.016 C 
ATOM      3  C   LIG d   1      -9.120  76.919 117.947  0.00  0.00     0.038 C 
ATOM      4  C   LIG d   1      -8.519  78.186 117.966  0.00  0.00     0.028 C 
ATOM      5  C   LIG d   1      -7.017  78.141 118.225  0.00  0.00    -0.047 C 
ATOM      6  C   LIG d   1      -6.368  77.142 117.240  0.00  0.00     0.091 C 
ENDROOT
BRANCH   1   7
ATOM      7  O   LIG d   1      -6.736  74.980 116.145  0.00  0.00    -0.368 OA
BRANCH   7   8
ATOM      8  C   LIG d   1      -5.940  73.785 116.334  0.00  0.00     0.119 C 
BRANCH   8   9
ATOM      9  C   LIG d   1      -6.761  72.593 115.805  0.00  0.00     0.028 C 
ATOM     10  C   LIG d   1      -7.717  72.022 116.866  0.00  0.00     0.006 C 
ENDBRANCH   8   9
BRANCH   8  11
ATOM     11  C   LIG d   1      -5.716  73.494 117.821  0.00  0.00     0.028 C 
ATOM     12  C   LIG d   1      -4.228  73.375 118.187  0.00  0.00     0.006 C 
ENDBRANCH   8  11
ENDBRANCH   7   8
ENDBRANCH   1   7
BRANCH   6  13
ATOM     13  N   LIG d   1      -4.912  76.973 117.480  0.00  0.00    -0.311 N 
ATOM     14  C   LIG d   1      -3.976  77.661 116.828  0.00  0.00     0.210 C 
ATOM     15  C   LIG d   1      -2.534  77.319 117.214  0.00  0.00     0.109 C 
ATOM     16  O   LIG d   1      -4.205  78.545 115.988  0.00  0.00    -0.276 OA
ATOM     17  H   LIG d   1      -4.638  76.299 118.168  0.00  0.00     0.149 HD
ENDBRANCH   6  13
BRANCH   5  18
ATOM     18  N   LIG d   1      -6.498  79.514 118.081  0.00  0.00     0.381 N 
ATOM     19  H   LIG d   1      -7.246  80.136 117.848  0.00  0.00    -0.090 HD
ATOM     20  H   LIG d   1      -5.828  79.531 117.333  0.00  0.00    -0.090 HD
ATOM     21  H   LIG d   1      -6.067  79.806 118.931  0.00  0.00    -0.090 HD
ENDBRANCH   5  18
BRANCH   3  22
ATOM     22  C   LIG d   1     -10.443  76.811 118.350  0.00  0.00     0.382 C 
ATOM     23  O   LIG d   1     -11.112  75.796 118.039  0.00  0.00    -0.241 OA
ATOM     24  O   LIG d   1     -10.988  77.735 118.981  0.00  0.00    -0.241 OA
ENDBRANCH   3  22
TORSDOF 7
ENDMDL
MODEL 4
REMARK VINA RESULT:      -4.9     16.751     18.868
REMARK  7 active torsions:
REMARK  status: ('A' for Active; 'I' for Inactive)
REMARK    1  A    between atoms: C_2  and  C_3 
REMARK    2  A    between atoms: C_3  and  O_6 
REMARK    3  A    between atoms: C_3  and  C_4 
REMARK    4  A    between atoms: C_7  and  O_6 
REMARK    5  A    between atoms: C_9  and  C_10 
REMARK    6  A    between atoms: N_15  and  C_14 
REMARK    7  A    between atoms: N_20  and  C_19 
REMARK       I    between atoms: C_22  and  N_20 
ROOT
ATOM      1  C   LIG d   1      -7.448  75.391 117.667  0.00  0.00     0.161 C 
ATOM      2  C   LIG d   1      -8.400  74.389 117.415  0.00  0.00     0.016 C 
ATOM      3  C   LIG d   1      -8.084  73.011 117.362  0.00  0.00     0.038 C 
ATOM      4  C   LIG d   1      -6.813  72.528 117.709  0.00  0.00     0.028 C 
ATOM      5  C   LIG d   1      -5.696  73.540 117.477  0.00  0.00    -0.047 C 
ATOM      6  C   LIG d   1      -6.079  74.875 118.157  0.00  0.00     0.091 C 
ENDROOT
BRANCH   1   7
ATOM      7  O   LIG d   1      -7.985  76.351 118.598  0.00  0.00    -0.368 OA
BRANCH   7   8
ATOM      8  C   LIG d   1      -8.996  77.248 118.077  0.00  0.00     0.119 C 
BRANCH   8   9
ATOM      9  C   LIG d   1      -8.429  78.679 118.151  0.00  0.00     0.028 C 
ATOM     10  C   LIG d   1      -9.516  79.727 118.441  0.00  0.00     0.006 C 
ENDBRANCH   8   9
BRANCH   8  11
ATOM     11  C   LIG d   1     -10.243  77.260 118.967  0.00  0.00     0.028 C 
ATOM     12  C   LIG d   1     -11.399  76.433 118.383  0.00  0.00     0.006 C 
ENDBRANCH   8  11
ENDBRANCH   7   8
ENDBRANCH   1   7
BRANCH   6  13
ATOM     13  N   LIG d   1      -5.079  75.945 117.908  0.00  0.00    -0.311 N 
ATOM     14  C   LIG d   1      -4.375  76.531 118.876  0.00  0.00     0.210 C 
ATOM     15  C   LIG d   1      -3.413  77.625 118.404  0.00  0.00     0.109 C 
ATOM     16  O   LIG d   1      -4.433  76.225 120.076  0.00  0.00    -0.276 OA
ATOM     17  H   LIG d   1      -4.946  76.233 116.958  0.00  0.00     0.149 HD
ENDBRANCH   6  13
BRANCH   5  18
ATOM     18  N   LIG d   1      -4.450  72.958 118.009  0.00  0.00     0.381 N 
ATOM     19  H   LIG d   1      -4.170  72.182 117.442  0.00  0.00    -0.090 HD
ATOM     20  H   LIG d   1      -4.619  72.623 118.941  0.00  0.00    -0.090 HD
ATOM     21  H   LIG d   1      -3.730  73.646 118.021  0.00  0.00    -0.090 HD
ENDBRANCH   5  18
BRANCH   3  22
ATOM     22  C   LIG d   1      -9.035  72.105 116.919  0.00  0.00     0.382 C 
ATOM     23  O   LIG d   1      -8.736  71.264 116.037  0.00  0.00    -0.241 OA
ATOM     24  O   LIG d   1     -10.200  72.146 117.358  0.00  0.00    -0.241 OA
ENDBRANCH   3  22
TORSDOF 7
ENDMDL
MODEL 5
REMARK VINA RESULT:      -4.9     33.084     35.535
REMARK  7 active torsions:
REMARK  status: ('A' for Active; 'I' for Inactive)
REMARK    1  A    between atoms: C_2  and  C_3 
REMARK    2  A    between atoms: C_3  and  O_6 
REMARK    3  A    between atoms: C_3  and  C_4 
REMARK    4  A    between atoms: C_7  and  O_6 
REMARK    5  A    between atoms: C_9  and  C_10 
REMARK    6  A    between atoms: N_15  and  C_14 
REMARK    7  A    between atoms: N_20  and  C_19 
REMARK       I    between atoms: C_22  and  N_20 
ROOT
ATOM      1  C   LIG d   1      -5.231  92.136 119.492  0.00  0.00     0.161 C 
ATOM      2  C   LIG d   1      -5.370  91.160 118.492  0.00  0.00     0.016 C 
ATOM      3  C   LIG d   1      -6.203  91.318 117.361  0.00  0.00     0.038 C 
ATOM      4  C   LIG d   1      -6.843  92.534 117.075  0.00  0.00     0.028 C 
ATOM      5  C   LIG d   1      -7.133  93.371 118.316  0.00  0.00    -0.047 C 
ATOM      6  C   LIG d   1      -5.834  93.512 119.141  0.00  0.00     0.091 C 
ENDROOT
BRANCH   1   7
ATOM      7  O   LIG d   1      -3.842  92.275 119.851  0.00  0.00    -0.368 OA
BRANCH   7   8
ATOM      8  C   LIG d   1      -3.045  93.132 118.996  0.00  0.00     0.119 C 
BRANCH   8   9
ATOM      9  C   LIG d   1      -2.014  92.240 118.277  0.00  0.00     0.028 C 
ATOM     10  C   LIG d   1      -2.294  92.117 116.770  0.00  0.00     0.006 C 
ENDBRANCH   8   9
BRANCH   8  11
ATOM     11  C   LIG d   1      -2.219  94.126 119.817  0.00  0.00     0.028 C 
ATOM     12  C   LIG d   1      -2.078  95.494 119.131  0.00  0.00     0.006 C 
ENDBRANCH   8  11
ENDBRANCH   7   8
ENDBRANCH   1   7
BRANCH   6  13
ATOM     13  N   LIG d   1      -6.049  94.247 120.415  0.00  0.00    -0.311 N 
ATOM     14  C   LIG d   1      -5.851  95.558 120.548  0.00  0.00     0.210 C 
ATOM     15  C   LIG d   1      -6.112  96.112 121.952  0.00  0.00     0.109 C 
ATOM     16  O   LIG d   1      -5.514  96.319 119.629  0.00  0.00    -0.276 OA
ATOM     17  H   LIG d   1      -6.353  93.712 121.205  0.00  0.00     0.149 HD
ENDBRANCH   6  13
BRANCH   5  18
ATOM     18  N   LIG d   1      -7.674  94.667 117.862  0.00  0.00     0.381 N 
ATOM     19  H   LIG d   1      -6.929  95.328 117.761  0.00  0.00    -0.090 HD
ATOM     20  H   LIG d   1      -8.311  95.014 118.557  0.00  0.00    -0.090 HD
ATOM     21  H   LIG d   1      -8.147  94.553 116.993  0.00  0.00    -0.090 HD
ENDBRANCH   5  18
BRANCH   3  22
ATOM     22  C   LIG d   1      -6.435  90.239 116.522  0.00  0.00     0.382 C 
ATOM     23  O   LIG d   1      -7.567  89.699 116.494  0.00  0.00    -0.241 OA
ATOM     24  O   LIG d   1      -5.515  89.770 115.826  0.00  0.00    -0.241 OA
ENDBRANCH   3  22
TORSDOF 7
ENDMDL
MODEL 6
REMARK VINA RESULT:      -4.9     19.849     22.070
REMARK  7 active torsions:
REMARK  status: ('A' for Active; 'I' for Inactive)
REMARK    1  A    between atoms: C_2  and  C_3 
REMARK    2  A    between atoms: C_3  and  O_6 
REMARK    3  A    between atoms: C_3  and  C_4 
REMARK    4  A    between atoms: C_7  and  O_6 
REMARK    5  A    between atoms: C_9  and  C_10 
REMARK    6  A    between atoms: N_15  and  C_14 
REMARK    7  A    between atoms: N_20  and  C_19 
REMARK       I    between atoms: C_22  and  N_20 
ROOT
ATOM      1  C   LIG d   1      -7.721  78.105 118.043  0.00  0.00     0.161 C 
ATOM      2  C   LIG d   1      -7.258  76.932 117.424  0.00  0.00     0.016 C 
ATOM      3  C   LIG d   1      -8.055  75.777 117.251  0.00  0.00     0.038 C 
ATOM      4  C   LIG d   1      -9.425  75.770 117.552  0.00  0.00     0.028 C 
ATOM      5  C   LIG d   1      -9.811  76.763 118.644  0.00  0.00    -0.047 C 
ATOM      6  C   LIG d   1      -9.245  78.154 118.279  0.00  0.00     0.091 C 
ENDROOT
BRANCH   1   7
ATOM      7  O   LIG d   1      -7.292  79.256 117.290  0.00  0.00    -0.368 OA
BRANCH   7   8
ATOM      8  C   LIG d   1      -6.386  80.161 117.969  0.00  0.00     0.119 C 
BRANCH   8   9
ATOM      9  C   LIG d   1      -6.866  81.597 117.685  0.00  0.00     0.028 C 
ATOM     10  C   LIG d   1      -6.952  82.450 118.961  0.00  0.00     0.006 C 
ENDBRANCH   8   9
BRANCH   8  11
ATOM     11  C   LIG d   1      -4.975  80.081 117.379  0.00  0.00     0.028 C 
ATOM     12  C   LIG d   1      -4.082  79.062 118.105  0.00  0.00     0.006 C 
ENDBRANCH   8  11
ENDBRANCH   7   8
ENDBRANCH   1   7
BRANCH   6  13
ATOM     13  N   LIG d   1      -9.504  79.167 119.335  0.00  0.00    -0.311 N 
ATOM     14  C   LIG d   1     -10.068  80.349 119.095  0.00  0.00     0.210 C 
ATOM     15  C   LIG d   1     -10.226  81.252 120.322  0.00  0.00     0.109 C 
ATOM     16  O   LIG d   1     -10.481  80.724 117.987  0.00  0.00    -0.276 OA
ATOM     17  H   LIG d   1      -9.229  78.932 120.269  0.00  0.00     0.149 HD
ENDBRANCH   6  13
BRANCH   5  18
ATOM     18  N   LIG d   1     -11.281  76.749 118.760  0.00  0.00     0.381 N 
ATOM     19  H   LIG d   1     -11.544  76.665 119.722  0.00  0.00    -0.090 HD
ATOM     20  H   LIG d   1     -11.639  75.951 118.265  0.00  0.00    -0.090 HD
ATOM     21  H   LIG d   1     -11.661  77.585 118.376  0.00  0.00    -0.090 HD
ENDBRANCH   5  18
BRANCH   3  22
ATOM     22  C   LIG d   1      -7.472  74.599 116.808  0.00  0.00     0.382 C 
ATOM     23  O   LIG d   1      -7.875  73.496 117.248  0.00  0.00    -0.241 OA
ATOM     24  O   LIG d   1      -6.519  74.629 116.006  0.00  0.00    -0.241 OA
ENDBRANCH   3  22
TORSDOF 7
ENDMDL
MODEL 7
REMARK VINA RESULT:      -4.9     32.508     34.979
REMARK  7 active torsions:
REMARK  status: ('A' for Active; 'I' for Inactive)
REMARK    1  A    between atoms: C_2  and  C_3 
REMARK    2  A    between atoms: C_3  and  O_6 
REMARK    3  A    between atoms: C_3  and  C_4 
REMARK    4  A    between atoms: C_7  and  O_6 
REMARK    5  A    between atoms: C_9  and  C_10 
REMARK    6  A    between atoms: N_15  and  C_14 
REMARK    7  A    between atoms: N_20  and  C_19 
REMARK       I    between atoms: C_22  and  N_20 
ROOT
ATOM      1  C   LIG d   1      -5.421  91.681 119.223  0.00  0.00     0.161 C 
ATOM      2  C   LIG d   1      -4.484  90.880 118.550  0.00  0.00     0.016 C 
ATOM      3  C   LIG d   1      -4.540  90.617 117.162  0.00  0.00     0.038 C 
ATOM      4  C   LIG d   1      -5.458  91.264 116.321  0.00  0.00     0.028 C 
ATOM      5  C   LIG d   1      -6.737  91.688 117.033  0.00  0.00    -0.047 C 
ATOM      6  C   LIG d   1      -6.364  92.485 118.304  0.00  0.00     0.091 C 
ENDROOT
BRANCH   1   7
ATOM      7  O   LIG d   1      -4.741  92.563 120.139  0.00  0.00    -0.368 OA
BRANCH   7   8
ATOM      8  C   LIG d   1      -4.074  93.705 119.547  0.00  0.00     0.119 C 
BRANCH   8   9
ATOM      9  C   LIG d   1      -2.601  93.666 119.998  0.00  0.00     0.028 C 
ATOM     10  C   LIG d   1      -2.362  92.655 121.133  0.00  0.00     0.006 C 
ENDBRANCH   8   9
BRANCH   8  11
ATOM     11  C   LIG d   1      -4.632  95.022 120.095  0.00  0.00     0.028 C 
ATOM     12  C   LIG d   1      -5.437  94.835 121.391  0.00  0.00     0.006 C 
ENDBRANCH   8  11
ENDBRANCH   7   8
ENDBRANCH   1   7
BRANCH   6  13
ATOM     13  N   LIG d   1      -7.556  92.866 119.105  0.00  0.00    -0.311 N 
ATOM     14  C   LIG d   1      -8.175  94.039 118.986  0.00  0.00     0.210 C 
ATOM     15  C   LIG d   1      -9.373  94.236 119.921  0.00  0.00     0.109 C 
ATOM     16  O   LIG d   1      -7.866  94.922 118.172  0.00  0.00    -0.276 OA
ATOM     17  H   LIG d   1      -7.893  92.196 119.768  0.00  0.00     0.149 HD
ENDBRANCH   6  13
BRANCH   5  18
ATOM     18  N   LIG d   1      -7.542  92.470 116.076  0.00  0.00     0.381 N 
ATOM     19  H   LIG d   1      -8.279  92.944 116.560  0.00  0.00    -0.090 HD
ATOM     20  H   LIG d   1      -7.956  91.842 115.410  0.00  0.00    -0.090 HD
ATOM     21  H   LIG d   1      -6.965  93.132 115.605  0.00  0.00    -0.090 HD
ENDBRANCH   5  18
BRANCH   3  22
ATOM     22  C   LIG d   1      -3.696  89.666 116.608  0.00  0.00     0.382 C 
ATOM     23  O   LIG d   1      -4.151  88.815 115.805  0.00  0.00    -0.241 OA
ATOM     24  O   LIG d   1      -2.495  89.620 116.935  0.00  0.00    -0.241 OA
ENDBRANCH   3  22
TORSDOF 7
ENDMDL
MODEL 8
REMARK VINA RESULT:      -4.5     32.908     34.724
REMARK  7 active torsions:
REMARK  status: ('A' for Active; 'I' for Inactive)
REMARK    1  A    between atoms: C_2  and  C_3 
REMARK    2  A    between atoms: C_3  and  O_6 
REMARK    3  A    between atoms: C_3  and  C_4 
REMARK    4  A    between atoms: C_7  and  O_6 
REMARK    5  A    between atoms: C_9  and  C_10 
REMARK    6  A    between atoms: N_15  and  C_14 
REMARK    7  A    between atoms: N_20  and  C_19 
REMARK       I    between atoms: C_22  and  N_20 
ROOT
ATOM      1  C   LIG d   1      -4.353  92.577 118.777  0.00  0.00     0.161 C 
ATOM      2  C   LIG d   1      -5.538  92.083 118.205  0.00  0.00     0.016 C 
ATOM      3  C   LIG d   1      -5.564  91.267 117.051  0.00  0.00     0.038 C 
ATOM      4  C   LIG d   1      -4.389  90.761 116.474  0.00  0.00     0.028 C 
ATOM      5  C   LIG d   1      -3.168  91.642 116.715  0.00  0.00    -0.047 C 
ATOM      6  C   LIG d   1      -3.057  91.944 118.227  0.00  0.00     0.091 C 
ENDROOT
BRANCH   1   7
ATOM      7  O   LIG d   1      -4.408  92.439 120.210  0.00  0.00    -0.368 OA
BRANCH   7   8
ATOM      8  C   LIG d   1      -4.658  93.655 120.958  0.00  0.00     0.119 C 
BRANCH   8   9
ATOM      9  C   LIG d   1      -6.138  93.638 121.388  0.00  0.00     0.028 C 
ATOM     10  C   LIG d   1      -6.985  94.665 120.618  0.00  0.00     0.006 C 
ENDBRANCH   8   9
BRANCH   8  11
ATOM     11  C   LIG d   1      -4.508  94.895 120.072  0.00  0.00     0.028 C 
ATOM     12  C   LIG d   1      -3.248  95.712 120.401  0.00  0.00     0.006 C 
ENDBRANCH   8  11
ENDBRANCH   7   8
ENDBRANCH   1   7
BRANCH   6  13
ATOM     13  N   LIG d   1      -1.937  92.870 118.539  0.00  0.00    -0.311 N 
ATOM     14  C   LIG d   1      -0.725  92.456 118.904  0.00  0.00     0.210 C 
ATOM     15  C   LIG d   1       0.278  93.576 119.200  0.00  0.00     0.109 C 
ATOM     16  O   LIG d   1      -0.376  91.269 118.980  0.00  0.00    -0.276 OA
ATOM     17  H   LIG d   1      -2.125  93.851 118.473  0.00  0.00     0.149 HD
ENDBRANCH   6  13
BRANCH   5  18
ATOM     18  N   LIG d   1      -1.992  90.930 116.180  0.00  0.00     0.381 N 
ATOM     19  H   LIG d   1      -1.292  90.852 116.890  0.00  0.00    -0.090 HD
ATOM     20  H   LIG d   1      -1.610  91.460 115.417  0.00  0.00    -0.090 HD
ATOM     21  H   LIG d   1      -2.258  90.023 115.864  0.00  0.00    -0.090 HD
ENDBRANCH   5  18
BRANCH   3  22
ATOM     22  C   LIG d   1      -6.774  90.982 116.438  0.00  0.00     0.382 C 
ATOM     23  O   LIG d   1      -7.580  91.908 116.180  0.00  0.00    -0.241 OA
ATOM     24  O   LIG d   1      -7.090  89.805 116.180  0.00  0.00    -0.241 OA
ENDBRANCH   3  22
TORSDOF 7
ENDMDL
MODEL 9
REMARK VINA RESULT:      -4.5     16.682     18.699
REMARK  7 active torsions:
REMARK  status: ('A' for Active; 'I' for Inactive)
REMARK    1  A    between atoms: C_2  and  C_3 
REMARK    2  A    between atoms: C_3  and  O_6 
REMARK    3  A    between atoms: C_3  and  C_4 
REMARK    4  A    between atoms: C_7  and  O_6 
REMARK    5  A    between atoms: C_9  and  C_10 
REMARK    6  A    between atoms: N_15  and  C_14 
REMARK    7  A    between atoms: N_20  and  C_19 
REMARK       I    between atoms: C_22  and  N_20 
ROOT
ATOM      1  C   LIG d   1      -5.896  75.164 116.918  0.00  0.00     0.161 C 
ATOM      2  C   LIG d   1      -5.495  76.503 117.059  0.00  0.00     0.016 C 
ATOM      3  C   LIG d   1      -6.392  77.557 117.348  0.00  0.00     0.038 C 
ATOM      4  C   LIG d   1      -7.737  77.320 117.667  0.00  0.00     0.028 C 
ATOM      5  C   LIG d   1      -8.292  76.044 117.043  0.00  0.00    -0.047 C 
ATOM      6  C   LIG d   1      -7.342  74.870 117.372  0.00  0.00     0.091 C 
ENDROOT
BRANCH   1   7
ATOM      7  O   LIG d   1      -4.970  74.301 117.607  0.00  0.00    -0.368 OA
BRANCH   7   8
ATOM      8  C   LIG d   1      -3.878  74.959 118.296  0.00  0.00     0.119 C 
BRANCH   8   9
ATOM      9  C   LIG d   1      -2.563  74.388 117.730  0.00  0.00     0.028 C 
ATOM     10  C   LIG d   1      -1.787  75.420 116.895  0.00  0.00     0.006 C 
ENDBRANCH   8   9
BRANCH   8  11
ATOM     11  C   LIG d   1      -3.866  74.605 119.786  0.00  0.00     0.028 C 
ATOM     12  C   LIG d   1      -5.084  75.162 120.540  0.00  0.00     0.006 C 
ENDBRANCH   8  11
ENDBRANCH   7   8
ENDBRANCH   1   7
BRANCH   6  13
ATOM     13  N   LIG d   1      -7.766  73.600 116.728  0.00  0.00    -0.311 N 
ATOM     14  C   LIG d   1      -8.125  72.515 117.412  0.00  0.00     0.210 C 
ATOM     15  C   LIG d   1      -8.508  71.306 116.553  0.00  0.00     0.109 C 
ATOM     16  O   LIG d   1      -8.193  72.450 118.649  0.00  0.00    -0.276 OA
ATOM     17  H   LIG d   1      -7.770  73.575 115.727  0.00  0.00     0.149 HD
ENDBRANCH   6  13
BRANCH   5  18
ATOM     18  N   LIG d   1      -9.656  75.848 117.568  0.00  0.00     0.381 N 
ATOM     19  H   LIG d   1      -9.900  76.609 118.170  0.00  0.00    -0.090 HD
ATOM     20  H   LIG d   1      -9.679  75.000 118.107  0.00  0.00    -0.090 HD
ATOM     21  H   LIG d   1     -10.306  75.789 116.815  0.00  0.00    -0.090 HD
ENDBRANCH   5  18
BRANCH   3  22
ATOM     22  C   LIG d   1      -5.952  78.871 117.281  0.00  0.00     0.382 C 
ATOM     23  O   LIG d   1      -6.774  79.813 117.383  0.00  0.00    -0.241 OA
ATOM     24  O   LIG d   1      -4.750  79.125 117.076  0.00  0.00    -0.241 OA
ENDBRANCH   3  22
TORSDOF 7
ENDMDL
