MODEL 1
REMARK VINA RESULT:      -5.9      0.000      0.000
REMARK  7 active torsions:
REMARK  status: ('A' for Active; 'I' for Inactive)
REMARK    1  A    between atoms: C_2  and  C_3 
REMARK    2  A    between atoms: C_3  and  O_6 
REMARK    3  A    between atoms: C_3  and  C_4 
REMARK    4  A    between atoms: C_7  and  O_6 
REMARK    5  A    between atoms: C_9  and  C_10 
REMARK    6  A    between atoms: N_15  and  C_14 
REMARK    7  A    between atoms: N_20  and  C_19 
REMARK       I    between atoms: C_22  and  N_20 
ROOT
ATOM      1  C   LIG d   1      -7.955  76.523 117.939  0.00  0.00     0.161 C 
ATOM      2  C   LIG d   1      -9.191  77.111 118.258  0.00  0.00     0.016 C 
ATOM      3  C   LIG d   1      -9.377  78.506 118.396  0.00  0.00     0.038 C 
ATOM      4  C   LIG d   1      -8.366  79.424 118.072  0.00  0.00     0.028 C 
ATOM      5  C   LIG d   1      -6.959  78.858 118.234  0.00  0.00    -0.047 C 
ATOM      6  C   LIG d   1      -6.869  77.515 117.474  0.00  0.00     0.091 C 
ENDROOT
BRANCH   1   7
ATOM      7  O   LIG d   1      -8.146  75.490 116.952  0.00  0.00    -0.368 OA
BRANCH   7   8
ATOM      8  C   LIG d   1      -8.587  74.204 117.453  0.00  0.00     0.119 C 
BRANCH   8   9
ATOM      9  C   LIG d   1      -7.594  73.142 116.940  0.00  0.00     0.028 C 
ATOM     10  C   LIG d   1      -6.458  73.756 116.105  0.00  0.00     0.006 C 
ENDBRANCH   8   9
BRANCH   8  11
ATOM     11  C   LIG d   1      -9.943  73.810 116.861  0.00  0.00     0.028 C 
ATOM     12  C   LIG d   1     -10.331  72.357 117.175  0.00  0.00     0.006 C 
ENDBRANCH   8  11
ENDBRANCH   7   8
ENDBRANCH   1   7
BRANCH   6  13
ATOM     13  N   LIG d   1      -5.550  76.852 117.649  0.00  0.00    -0.311 N 
ATOM     14  C   LIG d   1      -4.534  77.004 116.802  0.00  0.00     0.210 C 
ATOM     15  C   LIG d   1      -3.270  76.216 117.159  0.00  0.00     0.109 C 
ATOM     16  O   LIG d   1      -4.549  77.742 115.805  0.00  0.00    -0.276 OA
ATOM     17  H   LIG d   1      -5.440  76.259 118.449  0.00  0.00     0.149 HD
ENDBRANCH   6  13
BRANCH   5  18
ATOM     18  N   LIG d   1      -6.012  79.871 117.733  0.00  0.00     0.381 N 
ATOM     19  H   LIG d   1      -5.115  79.452 117.586  0.00  0.00    -0.090 HD
ATOM     20  H   LIG d   1      -5.913  80.594 118.424  0.00  0.00    -0.090 HD
ATOM     21  H   LIG d   1      -6.348  80.261 116.880  0.00  0.00    -0.090 HD
ENDBRANCH   5  18
BRANCH   3  22
ATOM     22  C   LIG d   1     -10.573  78.993 118.900  0.00  0.00     0.382 C 
ATOM     23  O   LIG d   1     -11.154  78.386 119.832  0.00  0.00    -0.241 OA
ATOM     24  O   LIG d   1     -11.100  80.007 118.405  0.00  0.00    -0.241 OA
ENDBRANCH   3  22
TORSDOF 7
ENDMDL
MODEL 2
REMARK VINA RESULT:      -5.6      1.857      2.600
REMARK  7 active torsions:
REMARK  status: ('A' for Active; 'I' for Inactive)
REMARK    1  A    between atoms: C_2  and  C_3 
REMARK    2  A    between atoms: C_3  and  O_6 
REMARK    3  A    between atoms: C_3  and  C_4 
REMARK    4  A    between atoms: C_7  and  O_6 
REMARK    5  A    between atoms: C_9  and  C_10 
REMARK    6  A    between atoms: N_15  and  C_14 
REMARK    7  A    between atoms: N_20  and  C_19 
REMARK       I    between atoms: C_22  and  N_20 
ROOT
ATOM      1  C   LIG d   1      -6.957  78.504 117.953  0.00  0.00     0.161 C 
ATOM      2  C   LIG d   1      -8.337  78.342 118.162  0.00  0.00     0.016 C 
ATOM      3  C   LIG d   1      -9.199  79.403 118.521  0.00  0.00     0.038 C 
ATOM      4  C   LIG d   1      -8.763  80.736 118.547  0.00  0.00     0.028 C 
ATOM      5  C   LIG d   1      -7.272  80.880 118.836  0.00  0.00    -0.047 C 
ATOM      6  C   LIG d   1      -6.483  79.970 117.868  0.00  0.00     0.091 C 
ENDROOT
BRANCH   1   7
ATOM      7  O   LIG d   1      -6.553  77.778 116.774  0.00  0.00    -0.368 OA
BRANCH   7   8
ATOM      8  C   LIG d   1      -6.408  76.345 116.927  0.00  0.00     0.119 C 
BRANCH   8   9
ATOM      9  C   LIG d   1      -4.942  75.992 116.609  0.00  0.00     0.028 C 
ATOM     10  C   LIG d   1      -4.657  74.487 116.748  0.00  0.00     0.006 C 
ENDBRANCH   8   9
BRANCH   8  11
ATOM     11  C   LIG d   1      -7.242  75.586 115.891  0.00  0.00     0.028 C 
ATOM     12  C   LIG d   1      -8.636  75.205 116.412  0.00  0.00     0.006 C 
ENDBRANCH   8  11
ENDBRANCH   7   8
ENDBRANCH   1   7
BRANCH   6  13
ATOM     13  N   LIG d   1      -5.022  79.987 118.139  0.00  0.00    -0.311 N 
ATOM     14  C   LIG d   1      -4.099  80.027 117.179  0.00  0.00     0.210 C 
ATOM     15  C   LIG d   1      -2.650  80.017 117.675  0.00  0.00     0.109 C 
ATOM     16  O   LIG d   1      -4.344  80.101 115.965  0.00  0.00    -0.276 OA
ATOM     17  H   LIG d   1      -4.735  79.960 119.098  0.00  0.00     0.149 HD
ENDBRANCH   6  13
BRANCH   5  18
ATOM     18  N   LIG d   1      -6.928  82.308 118.698  0.00  0.00     0.381 N 
ATOM     19  H   LIG d   1      -6.128  82.407 118.105  0.00  0.00    -0.090 HD
ATOM     20  H   LIG d   1      -6.696  82.676 119.604  0.00  0.00    -0.090 HD
ATOM     21  H   LIG d   1      -7.699  82.809 118.315  0.00  0.00    -0.090 HD
ENDBRANCH   5  18
BRANCH   3  22
ATOM     22  C   LIG d   1     -10.505  79.130 118.897  0.00  0.00     0.382 C 
ATOM     23  O   LIG d   1     -11.117  79.919 119.658  0.00  0.00    -0.241 OA
ATOM     24  O   LIG d   1     -11.065  78.083 118.521  0.00  0.00    -0.241 OA
ENDBRANCH   3  22
TORSDOF 7
ENDMDL
MODEL 3
REMARK VINA RESULT:      -5.4     13.490     16.172
REMARK  7 active torsions:
REMARK  status: ('A' for Active; 'I' for Inactive)
REMARK    1  A    between atoms: C_2  and  C_3 
REMARK    2  A    between atoms: C_3  and  O_6 
REMARK    3  A    between atoms: C_3  and  C_4 
REMARK    4  A    between atoms: C_7  and  O_6 
REMARK    5  A    between atoms: C_9  and  C_10 
REMARK    6  A    between atoms: N_15  and  C_14 
REMARK    7  A    between atoms: N_20  and  C_19 
REMARK       I    between atoms: C_22  and  N_20 
ROOT
ATOM      1  C   LIG d   1      -5.037  91.384 119.289  0.00  0.00     0.161 C 
ATOM      2  C   LIG d   1      -5.440  90.395 118.375  0.00  0.00     0.016 C 
ATOM      3  C   LIG d   1      -6.361  90.631 117.329  0.00  0.00     0.038 C 
ATOM      4  C   LIG d   1      -6.829  91.920 117.030  0.00  0.00     0.028 C 
ATOM      5  C   LIG d   1      -6.842  92.854 118.236  0.00  0.00    -0.047 C 
ATOM      6  C   LIG d   1      -5.452  92.821 118.911  0.00  0.00     0.091 C 
ENDROOT
BRANCH   1   7
ATOM      7  O   LIG d   1      -3.612  91.310 119.490  0.00  0.00    -0.368 OA
BRANCH   7   8
ATOM      8  C   LIG d   1      -2.794  91.378 118.296  0.00  0.00     0.119 C 
BRANCH   8   9
ATOM      9  C   LIG d   1      -1.707  90.293 118.417  0.00  0.00     0.028 C 
ATOM     10  C   LIG d   1      -2.180  88.927 117.892  0.00  0.00     0.006 C 
ENDBRANCH   8   9
BRANCH   8  11
ATOM     11  C   LIG d   1      -2.035  92.706 118.215  0.00  0.00     0.028 C 
ATOM     12  C   LIG d   1      -1.636  93.249 119.596  0.00  0.00     0.006 C 
ENDBRANCH   8  11
ENDBRANCH   7   8
ENDBRANCH   1   7
BRANCH   6  13
ATOM     13  N   LIG d   1      -5.403  93.643 120.148  0.00  0.00    -0.311 N 
ATOM     14  C   LIG d   1      -4.946  94.894 120.179  0.00  0.00     0.210 C 
ATOM     15  C   LIG d   1      -4.965  95.555 121.561  0.00  0.00     0.109 C 
ATOM     16  O   LIG d   1      -4.558  95.530 119.188  0.00  0.00    -0.276 OA
ATOM     17  H   LIG d   1      -5.728  93.216 120.993  0.00  0.00     0.149 HD
ENDBRANCH   6  13
BRANCH   5  18
ATOM     18  N   LIG d   1      -7.220  94.196 117.755  0.00  0.00     0.381 N 
ATOM     19  H   LIG d   1      -6.695  94.892 118.246  0.00  0.00    -0.090 HD
ATOM     20  H   LIG d   1      -8.195  94.347 117.943  0.00  0.00    -0.090 HD
ATOM     21  H   LIG d   1      -7.047  94.269 116.776  0.00  0.00    -0.090 HD
ENDBRANCH   5  18
BRANCH   3  22
ATOM     22  C   LIG d   1      -6.854  89.564 116.593  0.00  0.00     0.382 C 
ATOM     23  O   LIG d   1      -8.046  89.201 116.737  0.00  0.00    -0.241 OA
ATOM     24  O   LIG d   1      -6.109  88.933 115.820  0.00  0.00    -0.241 OA
ENDBRANCH   3  22
TORSDOF 7
ENDMDL
MODEL 4
REMARK VINA RESULT:      -5.3     13.794     16.749
REMARK  7 active torsions:
REMARK  status: ('A' for Active; 'I' for Inactive)
REMARK    1  A    between atoms: C_2  and  C_3 
REMARK    2  A    between atoms: C_3  and  O_6 
REMARK    3  A    between atoms: C_3  and  C_4 
REMARK    4  A    between atoms: C_7  and  O_6 
REMARK    5  A    between atoms: C_9  and  C_10 
REMARK    6  A    between atoms: N_15  and  C_14 
REMARK    7  A    between atoms: N_20  and  C_19 
REMARK       I    between atoms: C_22  and  N_20 
ROOT
ATOM      1  C   LIG d   1      -6.225  92.941 118.367  0.00  0.00     0.161 C 
ATOM      2  C   LIG d   1      -6.809  91.866 117.677  0.00  0.00     0.016 C 
ATOM      3  C   LIG d   1      -6.123  90.665 117.385  0.00  0.00     0.038 C 
ATOM      4  C   LIG d   1      -4.845  90.396 117.898  0.00  0.00     0.028 C 
ATOM      5  C   LIG d   1      -4.027  91.653 118.172  0.00  0.00    -0.047 C 
ATOM      6  C   LIG d   1      -4.869  92.623 119.032  0.00  0.00     0.091 C 
ENDROOT
BRANCH   1   7
ATOM      7  O   LIG d   1      -7.152  93.457 119.343  0.00  0.00    -0.368 OA
BRANCH   7   8
ATOM      8  C   LIG d   1      -8.394  93.991 118.821  0.00  0.00     0.119 C 
BRANCH   8   9
ATOM      9  C   LIG d   1      -8.119  95.433 118.354  0.00  0.00     0.028 C 
ATOM     10  C   LIG d   1      -7.429  96.280 119.437  0.00  0.00     0.006 C 
ENDBRANCH   8   9
BRANCH   8  11
ATOM     11  C   LIG d   1      -9.452  94.116 119.922  0.00  0.00     0.028 C 
ATOM     12  C   LIG d   1      -9.182  93.188 121.116  0.00  0.00     0.006 C 
ENDBRANCH   8  11
ENDBRANCH   7   8
ENDBRANCH   1   7
BRANCH   6  13
ATOM     13  N   LIG d   1      -4.174  93.914 119.275  0.00  0.00    -0.311 N 
ATOM     14  C   LIG d   1      -3.426  94.152 120.351  0.00  0.00     0.210 C 
ATOM     15  C   LIG d   1      -2.816  95.556 120.417  0.00  0.00     0.109 C 
ATOM     16  O   LIG d   1      -3.184  93.324 121.242  0.00  0.00    -0.276 OA
ATOM     17  H   LIG d   1      -4.291  94.632 118.587  0.00  0.00     0.149 HD
ENDBRANCH   6  13
BRANCH   5  18
ATOM     18  N   LIG d   1      -2.775  91.235 118.831  0.00  0.00     0.381 N 
ATOM     19  H   LIG d   1      -2.313  92.033 119.219  0.00  0.00    -0.090 HD
ATOM     20  H   LIG d   1      -2.168  90.822 118.145  0.00  0.00    -0.090 HD
ATOM     21  H   LIG d   1      -2.973  90.574 119.550  0.00  0.00    -0.090 HD
ENDBRANCH   5  18
BRANCH   3  22
ATOM     22  C   LIG d   1      -6.701  89.733 116.536  0.00  0.00     0.382 C 
ATOM     23  O   LIG d   1      -5.984  88.881 115.958  0.00  0.00    -0.241 OA
ATOM     24  O   LIG d   1      -7.925  89.761 116.307  0.00  0.00    -0.241 OA
ENDBRANCH   3  22
TORSDOF 7
ENDMDL
MODEL 5
REMARK VINA RESULT:      -5.1     13.785     15.890
REMARK  7 active torsions:
REMARK  status: ('A' for Active; 'I' for Inactive)
REMARK    1  A    between atoms: C_2  and  C_3 
REMARK    2  A    between atoms: C_3  and  O_6 
REMARK    3  A    between atoms: C_3  and  C_4 
REMARK    4  A    between atoms: C_7  and  O_6 
REMARK    5  A    between atoms: C_9  and  C_10 
REMARK    6  A    between atoms: N_15  and  C_14 
REMARK    7  A    between atoms: N_20  and  C_19 
REMARK       I    between atoms: C_22  and  N_20 
ROOT
ATOM      1  C   LIG d   1      -4.488  92.310 118.947  0.00  0.00     0.161 C 
ATOM      2  C   LIG d   1      -5.609  93.152 119.038  0.00  0.00     0.016 C 
ATOM      3  C   LIG d   1      -6.764  93.001 118.236  0.00  0.00     0.038 C 
ATOM      4  C   LIG d   1      -6.938  91.897 117.388  0.00  0.00     0.028 C 
ATOM      5  C   LIG d   1      -5.624  91.300 116.893  0.00  0.00    -0.047 C 
ATOM      6  C   LIG d   1      -4.705  91.034 118.107  0.00  0.00     0.091 C 
ENDROOT
BRANCH   1   7
ATOM      7  O   LIG d   1      -4.026  91.967 120.269  0.00  0.00    -0.368 OA
BRANCH   7   8
ATOM      8  C   LIG d   1      -2.771  92.562 120.679  0.00  0.00     0.119 C 
BRANCH   8   9
ATOM      9  C   LIG d   1      -2.183  93.293 119.457  0.00  0.00     0.028 C 
ATOM     10  C   LIG d   1      -0.794  92.760 119.066  0.00  0.00     0.006 C 
ENDBRANCH   8   9
BRANCH   8  11
ATOM     11  C   LIG d   1      -1.740  91.490 121.045  0.00  0.00     0.028 C 
ATOM     12  C   LIG d   1      -2.370  90.266 121.729  0.00  0.00     0.006 C 
ENDBRANCH   8  11
ENDBRANCH   7   8
ENDBRANCH   1   7
BRANCH   6  13
ATOM     13  N   LIG d   1      -3.367  90.529 117.704  0.00  0.00    -0.311 N 
ATOM     14  C   LIG d   1      -2.864  89.369 118.124  0.00  0.00     0.210 C 
ATOM     15  C   LIG d   1      -1.459  89.047 117.604  0.00  0.00     0.109 C 
ATOM     16  O   LIG d   1      -3.461  88.561 118.851  0.00  0.00    -0.276 OA
ATOM     17  H   LIG d   1      -2.827  91.106 117.090  0.00  0.00     0.149 HD
ENDBRANCH   6  13
BRANCH   5  18
ATOM     18  N   LIG d   1      -5.948  90.078 116.134  0.00  0.00     0.381 N 
ATOM     19  H   LIG d   1      -5.841  89.276 116.722  0.00  0.00    -0.090 HD
ATOM     20  H   LIG d   1      -5.307  89.993 115.365  0.00  0.00    -0.090 HD
ATOM     21  H   LIG d   1      -6.883  90.126 115.792  0.00  0.00    -0.090 HD
ENDBRANCH   5  18
BRANCH   3  22
ATOM     22  C   LIG d   1      -7.743  93.982 118.249  0.00  0.00     0.382 C 
ATOM     23  O   LIG d   1      -8.946  93.665 118.407  0.00  0.00    -0.241 OA
ATOM     24  O   LIG d   1      -7.443  95.176 118.060  0.00  0.00    -0.241 OA
ENDBRANCH   3  22
TORSDOF 7
ENDMDL
MODEL 6
REMARK VINA RESULT:      -5.0      2.351      5.552
REMARK  7 active torsions:
REMARK  status: ('A' for Active; 'I' for Inactive)
REMARK    1  A    between atoms: C_2  and  C_3 
REMARK    2  A    between atoms: C_3  and  O_6 
REMARK    3  A    between atoms: C_3  and  C_4 
REMARK    4  A    between atoms: C_7  and  O_6 
REMARK    5  A    between atoms: C_9  and  C_10 
REMARK    6  A    between atoms: N_15  and  C_14 
REMARK    7  A    between atoms: N_20  and  C_19 
REMARK       I    between atoms: C_22  and  N_20 
ROOT
ATOM      1  C   LIG d   1      -5.577  75.527 116.520  0.00  0.00     0.161 C 
ATOM      2  C   LIG d   1      -4.482  74.660 116.363  0.00  0.00     0.016 C 
ATOM      3  C   LIG d   1      -3.430  74.558 117.301  0.00  0.00     0.038 C 
ATOM      4  C   LIG d   1      -3.477  75.209 118.542  0.00  0.00     0.028 C 
ATOM      5  C   LIG d   1      -4.315  76.483 118.526  0.00  0.00    -0.047 C 
ATOM      6  C   LIG d   1      -5.701  76.164 117.920  0.00  0.00     0.091 C 
ENDROOT
BRANCH   1   7
ATOM      7  O   LIG d   1      -6.796  74.843 116.171  0.00  0.00    -0.368 OA
BRANCH   7   8
ATOM      8  C   LIG d   1      -7.268  73.856 117.121  0.00  0.00     0.119 C 
BRANCH   8   9
ATOM      9  C   LIG d   1      -7.296  72.495 116.399  0.00  0.00     0.028 C 
ATOM     10  C   LIG d   1      -8.286  71.509 117.042  0.00  0.00     0.006 C 
ENDBRANCH   8   9
BRANCH   8  11
ATOM     11  C   LIG d   1      -8.718  74.127 117.533  0.00  0.00     0.028 C 
ATOM     12  C   LIG d   1      -9.446  75.071 116.564  0.00  0.00     0.006 C 
ENDBRANCH   8  11
ENDBRANCH   7   8
ENDBRANCH   1   7
BRANCH   6  13
ATOM     13  N   LIG d   1      -6.555  77.373 117.790  0.00  0.00    -0.311 N 
ATOM     14  C   LIG d   1      -7.593  77.627 118.585  0.00  0.00     0.210 C 
ATOM     15  C   LIG d   1      -8.351  78.919 118.266  0.00  0.00     0.109 C 
ATOM     16  O   LIG d   1      -7.939  76.920 119.544  0.00  0.00    -0.276 OA
ATOM     17  H   LIG d   1      -6.326  78.016 117.058  0.00  0.00     0.149 HD
ENDBRANCH   6  13
BRANCH   5  18
ATOM     18  N   LIG d   1      -4.391  76.984 119.912  0.00  0.00     0.381 N 
ATOM     19  H   LIG d   1      -3.678  76.554 120.467  0.00  0.00    -0.090 HD
ATOM     20  H   LIG d   1      -5.285  76.735 120.299  0.00  0.00    -0.090 HD
ATOM     21  H   LIG d   1      -4.280  77.974 119.923  0.00  0.00    -0.090 HD
ENDBRANCH   5  18
BRANCH   3  22
ATOM     22  C   LIG d   1      -2.295  73.826 116.984  0.00  0.00     0.382 C 
ATOM     23  O   LIG d   1      -1.646  73.251 117.890  0.00  0.00    -0.241 OA
ATOM     24  O   LIG d   1      -1.887  73.772 115.808  0.00  0.00    -0.241 OA
ENDBRANCH   3  22
TORSDOF 7
ENDMDL
MODEL 7
REMARK VINA RESULT:      -5.0      1.802      4.805
REMARK  7 active torsions:
REMARK  status: ('A' for Active; 'I' for Inactive)
REMARK    1  A    between atoms: C_2  and  C_3 
REMARK    2  A    between atoms: C_3  and  O_6 
REMARK    3  A    between atoms: C_3  and  C_4 
REMARK    4  A    between atoms: C_7  and  O_6 
REMARK    5  A    between atoms: C_9  and  C_10 
REMARK    6  A    between atoms: N_15  and  C_14 
REMARK    7  A    between atoms: N_20  and  C_19 
REMARK       I    between atoms: C_22  and  N_20 
ROOT
ATOM      1  C   LIG d   1      -8.055  76.742 117.354  0.00  0.00     0.161 C 
ATOM      2  C   LIG d   1      -9.095  75.798 117.361  0.00  0.00     0.016 C 
ATOM      3  C   LIG d   1      -8.891  74.413 117.162  0.00  0.00     0.038 C 
ATOM      4  C   LIG d   1      -7.605  73.857 117.092  0.00  0.00     0.028 C 
ATOM      5  C   LIG d   1      -6.551  74.830 116.574  0.00  0.00    -0.047 C 
ATOM      6  C   LIG d   1      -6.635  76.140 117.390  0.00  0.00     0.091 C 
ENDROOT
BRANCH   1   7
ATOM      7  O   LIG d   1      -8.232  77.673 118.441  0.00  0.00    -0.368 OA
BRANCH   7   8
ATOM      8  C   LIG d   1      -8.335  79.070 118.073  0.00  0.00     0.119 C 
BRANCH   8   9
ATOM      9  C   LIG d   1      -7.208  79.825 118.805  0.00  0.00     0.028 C 
ATOM     10  C   LIG d   1      -6.459  80.801 117.881  0.00  0.00     0.006 C 
ENDBRANCH   8   9
BRANCH   8  11
ATOM     11  C   LIG d   1      -9.638  79.688 118.587  0.00  0.00     0.028 C 
ATOM     12  C   LIG d   1     -10.550  78.664 119.281  0.00  0.00     0.006 C 
ENDBRANCH   8  11
ENDBRANCH   7   8
ENDBRANCH   1   7
BRANCH   6  13
ATOM     13  N   LIG d   1      -5.694  77.178 116.893  0.00  0.00    -0.311 N 
ATOM     14  C   LIG d   1      -4.481  77.375 117.408  0.00  0.00     0.210 C 
ATOM     15  C   LIG d   1      -3.681  78.510 116.762  0.00  0.00     0.109 C 
ATOM     16  O   LIG d   1      -3.980  76.696 118.317  0.00  0.00    -0.276 OA
ATOM     17  H   LIG d   1      -6.008  77.754 116.136  0.00  0.00     0.149 HD
ENDBRANCH   6  13
BRANCH   5  18
ATOM     18  N   LIG d   1      -5.239  74.164 116.683  0.00  0.00     0.381 N 
ATOM     19  H   LIG d   1      -5.328  73.326 117.221  0.00  0.00    -0.090 HD
ATOM     20  H   LIG d   1      -4.601  74.778 117.159  0.00  0.00    -0.090 HD
ATOM     21  H   LIG d   1      -4.889  73.950 115.775  0.00  0.00    -0.090 HD
ENDBRANCH   5  18
BRANCH   3  22
ATOM     22  C   LIG d   1      -9.982  73.575 116.991  0.00  0.00     0.382 C 
ATOM     23  O   LIG d   1     -11.084  74.048 116.624  0.00  0.00    -0.241 OA
ATOM     24  O   LIG d   1      -9.889  72.358 117.241  0.00  0.00    -0.241 OA
ENDBRANCH   3  22
TORSDOF 7
ENDMDL
MODEL 8
REMARK VINA RESULT:      -4.9      2.086      5.390
REMARK  7 active torsions:
REMARK  status: ('A' for Active; 'I' for Inactive)
REMARK    1  A    between atoms: C_2  and  C_3 
REMARK    2  A    between atoms: C_3  and  O_6 
REMARK    3  A    between atoms: C_3  and  C_4 
REMARK    4  A    between atoms: C_7  and  O_6 
REMARK    5  A    between atoms: C_9  and  C_10 
REMARK    6  A    between atoms: N_15  and  C_14 
REMARK    7  A    between atoms: N_20  and  C_19 
REMARK       I    between atoms: C_22  and  N_20 
ROOT
ATOM      1  C   LIG d   1      -6.243  77.209 117.410  0.00  0.00     0.161 C 
ATOM      2  C   LIG d   1      -6.595  75.879 117.126  0.00  0.00     0.016 C 
ATOM      3  C   LIG d   1      -7.906  75.371 117.278  0.00  0.00     0.038 C 
ATOM      4  C   LIG d   1      -8.993  76.203 117.584  0.00  0.00     0.028 C 
ATOM      5  C   LIG d   1      -8.599  77.449 118.371  0.00  0.00    -0.047 C 
ATOM      6  C   LIG d   1      -7.438  78.159 117.639  0.00  0.00     0.091 C 
ENDROOT
BRANCH   1   7
ATOM      7  O   LIG d   1      -5.387  77.722 116.370  0.00  0.00    -0.368 OA
BRANCH   7   8
ATOM      8  C   LIG d   1      -4.029  78.040 116.762  0.00  0.00     0.119 C 
BRANCH   8   9
ATOM      9  C   LIG d   1      -3.848  79.563 116.607  0.00  0.00     0.028 C 
ATOM     10  C   LIG d   1      -3.389  80.234 117.912  0.00  0.00     0.006 C 
ENDBRANCH   8   9
BRANCH   8  11
ATOM     11  C   LIG d   1      -3.012  77.411 115.805  0.00  0.00     0.028 C 
ATOM     12  C   LIG d   1      -3.064  75.875 115.805  0.00  0.00     0.006 C 
ENDBRANCH   8  11
ENDBRANCH   7   8
ENDBRANCH   1   7
BRANCH   6  13
ATOM     13  N   LIG d   1      -6.936  79.342 118.385  0.00  0.00    -0.311 N 
ATOM     14  C   LIG d   1      -7.357  80.585 118.159  0.00  0.00     0.210 C 
ATOM     15  C   LIG d   1      -6.695  81.660 119.027  0.00  0.00     0.109 C 
ATOM     16  O   LIG d   1      -8.240  80.895 117.345  0.00  0.00    -0.276 OA
ATOM     17  H   LIG d   1      -6.240  79.177 119.086  0.00  0.00     0.149 HD
ENDBRANCH   6  13
BRANCH   5  18
ATOM     18  N   LIG d   1      -9.802  78.292 118.502  0.00  0.00     0.381 N 
ATOM     19  H   LIG d   1      -9.582  79.237 118.258  0.00  0.00    -0.090 HD
ATOM     20  H   LIG d   1     -10.108  78.277 119.459  0.00  0.00    -0.090 HD
ATOM     21  H   LIG d   1     -10.525  77.949 117.909  0.00  0.00    -0.090 HD
ENDBRANCH   5  18
BRANCH   3  22
ATOM     22  C   LIG d   1      -8.132  74.008 117.163  0.00  0.00     0.382 C 
ATOM     23  O   LIG d   1      -9.292  73.551 117.304  0.00  0.00    -0.241 OA
ATOM     24  O   LIG d   1      -7.184  73.225 116.965  0.00  0.00    -0.241 OA
ENDBRANCH   3  22
TORSDOF 7
ENDMDL
MODEL 9
REMARK VINA RESULT:      -4.9      2.682      6.350
REMARK  7 active torsions:
REMARK  status: ('A' for Active; 'I' for Inactive)
REMARK    1  A    between atoms: C_2  and  C_3 
REMARK    2  A    between atoms: C_3  and  O_6 
REMARK    3  A    between atoms: C_3  and  C_4 
REMARK    4  A    between atoms: C_7  and  O_6 
REMARK    5  A    between atoms: C_9  and  C_10 
REMARK    6  A    between atoms: N_15  and  C_14 
REMARK    7  A    between atoms: N_20  and  C_19 
REMARK       I    between atoms: C_22  and  N_20 
ROOT
ATOM      1  C   LIG d   1      -7.172  79.307 118.182  0.00  0.00     0.161 C 
ATOM      2  C   LIG d   1      -6.876  78.030 117.677  0.00  0.00     0.016 C 
ATOM      3  C   LIG d   1      -7.810  76.969 117.649  0.00  0.00     0.038 C 
ATOM      4  C   LIG d   1      -9.158  77.159 117.987  0.00  0.00     0.028 C 
ATOM      5  C   LIG d   1      -9.380  78.297 118.977  0.00  0.00    -0.047 C 
ATOM      6  C   LIG d   1      -8.669  79.565 118.452  0.00  0.00     0.091 C 
ENDROOT
BRANCH   1   7
ATOM      7  O   LIG d   1      -6.641  80.316 117.300  0.00  0.00    -0.368 OA
BRANCH   7   8
ATOM      8  C   LIG d   1      -5.505  81.064 117.799  0.00  0.00     0.119 C 
BRANCH   8   9
ATOM      9  C   LIG d   1      -4.242  80.488 117.131  0.00  0.00     0.028 C 
ATOM     10  C   LIG d   1      -3.249  79.910 118.153  0.00  0.00     0.006 C 
ENDBRANCH   8   9
BRANCH   8  11
ATOM     11  C   LIG d   1      -5.307  80.842 119.301  0.00  0.00     0.028 C 
ATOM     12  C   LIG d   1      -5.474  82.131 120.121  0.00  0.00     0.006 C 
ENDBRANCH   8  11
ENDBRANCH   7   8
ENDBRANCH   1   7
BRANCH   6  13
ATOM     13  N   LIG d   1      -8.765  80.703 119.403  0.00  0.00    -0.311 N 
ATOM     14  C   LIG d   1      -9.525  81.776 119.187  0.00  0.00     0.210 C 
ATOM     15  C   LIG d   1      -9.463  82.843 120.285  0.00  0.00     0.109 C 
ATOM     16  O   LIG d   1     -10.268  81.931 118.207  0.00  0.00    -0.276 OA
ATOM     17  H   LIG d   1      -8.219  80.646 120.240  0.00  0.00     0.149 HD
ENDBRANCH   6  13
BRANCH   5  18
ATOM     18  N   LIG d   1     -10.836  78.473 119.135  0.00  0.00     0.381 N 
ATOM     19  H   LIG d   1     -11.104  79.381 118.812  0.00  0.00    -0.090 HD
ATOM     20  H   LIG d   1     -11.069  78.404 120.110  0.00  0.00    -0.090 HD
ATOM     21  H   LIG d   1     -11.322  77.773 118.619  0.00  0.00    -0.090 HD
ENDBRANCH   5  18
BRANCH   3  22
ATOM     22  C   LIG d   1      -7.388  75.690 117.316  0.00  0.00     0.382 C 
ATOM     23  O   LIG d   1      -6.597  75.521 116.358  0.00  0.00    -0.241 OA
ATOM     24  O   LIG d   1      -7.823  74.701 117.935  0.00  0.00    -0.241 OA
ENDBRANCH   3  22
TORSDOF 7
ENDMDL
