MODEL 1
REMARK VINA RESULT:      -5.6      0.000      0.000
REMARK  7 active torsions:
REMARK  status: ('A' for Active; 'I' for Inactive)
REMARK    1  A    between atoms: C_2  and  C_3 
REMARK    2  A    between atoms: C_3  and  O_6 
REMARK    3  A    between atoms: C_3  and  C_4 
REMARK    4  A    between atoms: C_7  and  O_6 
REMARK    5  A    between atoms: C_9  and  C_10 
REMARK    6  A    between atoms: N_15  and  C_14 
REMARK    7  A    between atoms: N_20  and  C_19 
REMARK       I    between atoms: C_22  and  N_20 
ROOT
ATOM      1  C   LIG d   1      -6.344  93.605 118.032  0.00  0.00     0.161 C 
ATOM      2  C   LIG d   1      -7.613  93.258 117.539  0.00  0.00     0.016 C 
ATOM      3  C   LIG d   1      -7.850  92.124 116.729  0.00  0.00     0.038 C 
ATOM      4  C   LIG d   1      -6.853  91.170 116.479  0.00  0.00     0.028 C 
ATOM      5  C   LIG d   1      -5.440  91.741 116.536  0.00  0.00    -0.047 C 
ATOM      6  C   LIG d   1      -5.265  92.516 117.862  0.00  0.00     0.091 C 
ENDROOT
BRANCH   1   7
ATOM      7  O   LIG d   1      -6.447  93.997 119.415  0.00  0.00    -0.368 OA
BRANCH   7   8
ATOM      8  C   LIG d   1      -7.031  93.021 120.312  0.00  0.00     0.119 C 
BRANCH   8   9
ATOM      9  C   LIG d   1      -7.939  93.783 121.297  0.00  0.00     0.028 C 
ATOM     10  C   LIG d   1      -8.957  94.685 120.580  0.00  0.00     0.006 C 
ENDBRANCH   8   9
BRANCH   8  11
ATOM     11  C   LIG d   1      -5.961  92.353 121.181  0.00  0.00     0.028 C 
ATOM     12  C   LIG d   1      -6.553  91.614 122.392  0.00  0.00     0.006 C 
ENDBRANCH   8  11
ENDBRANCH   7   8
ENDBRANCH   1   7
BRANCH   6  13
ATOM     13  N   LIG d   1      -3.938  93.178 117.960  0.00  0.00    -0.311 N 
ATOM     14  C   LIG d   1      -2.879  92.617 118.542  0.00  0.00     0.210 C 
ATOM     15  C   LIG d   1      -1.614  93.480 118.552  0.00  0.00     0.109 C 
ATOM     16  O   LIG d   1      -2.859  91.473 119.021  0.00  0.00    -0.276 OA
ATOM     17  H   LIG d   1      -3.856  94.096 117.570  0.00  0.00     0.149 HD
ENDBRANCH   6  13
BRANCH   5  18
ATOM     18  N   LIG d   1      -4.498  90.615 116.395  0.00  0.00     0.381 N 
ATOM     19  H   LIG d   1      -3.641  90.829 116.866  0.00  0.00    -0.090 HD
ATOM     20  H   LIG d   1      -4.296  90.480 115.420  0.00  0.00    -0.090 HD
ATOM     21  H   LIG d   1      -4.897  89.786 116.777  0.00  0.00    -0.090 HD
ENDBRANCH   5  18
BRANCH   3  22
ATOM     22  C   LIG d   1      -9.087  91.957 116.126  0.00  0.00     0.382 C 
ATOM     23  O   LIG d   1      -9.834  92.948 115.941  0.00  0.00    -0.241 OA
ATOM     24  O   LIG d   1      -9.485  90.821 115.805  0.00  0.00    -0.241 OA
ENDBRANCH   3  22
TORSDOF 7
ENDMDL
MODEL 2
REMARK VINA RESULT:      -5.6      2.492      4.338
REMARK  7 active torsions:
REMARK  status: ('A' for Active; 'I' for Inactive)
REMARK    1  A    between atoms: C_2  and  C_3 
REMARK    2  A    between atoms: C_3  and  O_6 
REMARK    3  A    between atoms: C_3  and  C_4 
REMARK    4  A    between atoms: C_7  and  O_6 
REMARK    5  A    between atoms: C_9  and  C_10 
REMARK    6  A    between atoms: N_15  and  C_14 
REMARK    7  A    between atoms: N_20  and  C_19 
REMARK       I    between atoms: C_22  and  N_20 
ROOT
ATOM      1  C   LIG d   1      -6.306  92.739 118.322  0.00  0.00     0.161 C 
ATOM      2  C   LIG d   1      -5.995  91.532 117.674  0.00  0.00     0.016 C 
ATOM      3  C   LIG d   1      -6.780  90.983 116.634  0.00  0.00     0.038 C 
ATOM      4  C   LIG d   1      -7.853  91.685 116.065  0.00  0.00     0.028 C 
ATOM      5  C   LIG d   1      -8.506  92.675 117.024  0.00  0.00    -0.047 C 
ATOM      6  C   LIG d   1      -7.410  93.574 117.640  0.00  0.00     0.091 C 
ENDROOT
BRANCH   1   7
ATOM      7  O   LIG d   1      -5.110  93.527 118.486  0.00  0.00    -0.368 OA
BRANCH   7   8
ATOM      8  C   LIG d   1      -4.405  93.363 119.741  0.00  0.00     0.119 C 
BRANCH   8   9
ATOM      9  C   LIG d   1      -4.775  94.559 120.639  0.00  0.00     0.028 C 
ATOM     10  C   LIG d   1      -4.830  95.884 119.860  0.00  0.00     0.006 C 
ENDBRANCH   8   9
BRANCH   8  11
ATOM     11  C   LIG d   1      -2.889  93.457 119.544  0.00  0.00     0.028 C 
ATOM     12  C   LIG d   1      -2.461  93.217 118.088  0.00  0.00     0.006 C 
ENDBRANCH   8  11
ENDBRANCH   7   8
ENDBRANCH   1   7
BRANCH   6  13
ATOM     13  N   LIG d   1      -7.952  94.515 118.654  0.00  0.00    -0.311 N 
ATOM     14  C   LIG d   1      -8.932  94.198 119.499  0.00  0.00     0.210 C 
ATOM     15  C   LIG d   1      -9.355  95.323 120.449  0.00  0.00     0.109 C 
ATOM     16  O   LIG d   1      -9.469  93.083 119.573  0.00  0.00    -0.276 OA
ATOM     17  H   LIG d   1      -7.553  95.433 118.684  0.00  0.00     0.149 HD
ENDBRANCH   6  13
BRANCH   5  18
ATOM     18  N   LIG d   1      -9.516  93.434 116.263  0.00  0.00     0.381 N 
ATOM     19  H   LIG d   1      -9.291  93.413 115.288  0.00  0.00    -0.090 HD
ATOM     20  H   LIG d   1      -9.503  94.391 116.569  0.00  0.00    -0.090 HD
ATOM     21  H   LIG d   1     -10.420  93.042 116.411  0.00  0.00    -0.090 HD
ENDBRANCH   5  18
BRANCH   3  22
ATOM     22  C   LIG d   1      -6.518  89.699 116.179  0.00  0.00     0.382 C 
ATOM     23  O   LIG d   1      -7.457  88.878 116.044  0.00  0.00    -0.241 OA
ATOM     24  O   LIG d   1      -5.349  89.339 115.945  0.00  0.00    -0.241 OA
ENDBRANCH   3  22
TORSDOF 7
ENDMDL
MODEL 3
REMARK VINA RESULT:      -5.5      1.271      1.951
REMARK  7 active torsions:
REMARK  status: ('A' for Active; 'I' for Inactive)
REMARK    1  A    between atoms: C_2  and  C_3 
REMARK    2  A    between atoms: C_3  and  O_6 
REMARK    3  A    between atoms: C_3  and  C_4 
REMARK    4  A    between atoms: C_7  and  O_6 
REMARK    5  A    between atoms: C_9  and  C_10 
REMARK    6  A    between atoms: N_15  and  C_14 
REMARK    7  A    between atoms: N_20  and  C_19 
REMARK       I    between atoms: C_22  and  N_20 
ROOT
ATOM      1  C   LIG d   1      -5.955  93.170 117.659  0.00  0.00     0.161 C 
ATOM      2  C   LIG d   1      -7.277  92.897 117.270  0.00  0.00     0.016 C 
ATOM      3  C   LIG d   1      -7.660  91.721 116.586  0.00  0.00     0.038 C 
ATOM      4  C   LIG d   1      -6.766  90.660 116.378  0.00  0.00     0.028 C 
ATOM      5  C   LIG d   1      -5.308  91.102 116.305  0.00  0.00    -0.047 C 
ATOM      6  C   LIG d   1      -4.986  91.975 117.539  0.00  0.00     0.091 C 
ENDROOT
BRANCH   1   7
ATOM      7  O   LIG d   1      -5.940  93.695 119.002  0.00  0.00    -0.368 OA
BRANCH   7   8
ATOM      8  C   LIG d   1      -6.847  94.793 119.267  0.00  0.00     0.119 C 
BRANCH   8   9
ATOM      9  C   LIG d   1      -5.991  96.049 119.520  0.00  0.00     0.028 C 
ATOM     10  C   LIG d   1      -6.532  97.286 118.784  0.00  0.00     0.006 C 
ENDBRANCH   8   9
BRANCH   8  11
ATOM     11  C   LIG d   1      -7.630  94.568 120.564  0.00  0.00     0.028 C 
ATOM     12  C   LIG d   1      -9.124  94.899 120.423  0.00  0.00     0.006 C 
ENDBRANCH   8  11
ENDBRANCH   7   8
ENDBRANCH   1   7
BRANCH   6  13
ATOM     13  N   LIG d   1      -3.604  92.519 117.504  0.00  0.00    -0.311 N 
ATOM     14  C   LIG d   1      -2.693  92.267 118.442  0.00  0.00     0.210 C 
ATOM     15  C   LIG d   1      -1.336  92.943 118.224  0.00  0.00     0.109 C 
ATOM     16  O   LIG d   1      -2.870  91.523 119.418  0.00  0.00    -0.276 OA
ATOM     17  H   LIG d   1      -3.365  93.108 116.730  0.00  0.00     0.149 HD
ENDBRANCH   6  13
BRANCH   5  18
ATOM     18  N   LIG d   1      -4.477  89.886 116.224  0.00  0.00     0.381 N 
ATOM     19  H   LIG d   1      -4.882  89.162 116.783  0.00  0.00    -0.090 HD
ATOM     20  H   LIG d   1      -3.564  90.092 116.587  0.00  0.00    -0.090 HD
ATOM     21  H   LIG d   1      -4.406  89.584 115.277  0.00  0.00    -0.090 HD
ENDBRANCH   5  18
BRANCH   3  22
ATOM     22  C   LIG d   1      -8.942  91.613 116.067  0.00  0.00     0.382 C 
ATOM     23  O   LIG d   1      -9.419  90.483 115.805  0.00  0.00    -0.241 OA
ATOM     24  O   LIG d   1      -9.609  92.635 115.817  0.00  0.00    -0.241 OA
ENDBRANCH   3  22
TORSDOF 7
ENDMDL
MODEL 4
REMARK VINA RESULT:      -5.3     34.432     35.748
REMARK  7 active torsions:
REMARK  status: ('A' for Active; 'I' for Inactive)
REMARK    1  A    between atoms: C_2  and  C_3 
REMARK    2  A    between atoms: C_3  and  O_6 
REMARK    3  A    between atoms: C_3  and  C_4 
REMARK    4  A    between atoms: C_7  and  O_6 
REMARK    5  A    between atoms: C_9  and  C_10 
REMARK    6  A    between atoms: N_15  and  C_14 
REMARK    7  A    between atoms: N_20  and  C_19 
REMARK       I    between atoms: C_22  and  N_20 
ROOT
ATOM      1  C   LIG d   1       0.197  57.850 118.716  0.00  0.00     0.161 C 
ATOM      2  C   LIG d   1      -0.951  58.657 118.643  0.00  0.00     0.016 C 
ATOM      3  C   LIG d   1      -2.072  58.345 117.840  0.00  0.00     0.038 C 
ATOM      4  C   LIG d   1      -2.185  57.118 117.168  0.00  0.00     0.028 C 
ATOM      5  C   LIG d   1      -0.838  56.499 116.810  0.00  0.00    -0.047 C 
ATOM      6  C   LIG d   1       0.047  56.453 118.077  0.00  0.00     0.091 C 
ENDROOT
BRANCH   1   7
ATOM      7  O   LIG d   1       0.623  57.729 120.087  0.00  0.00    -0.368 OA
BRANCH   7   8
ATOM      8  C   LIG d   1       1.643  58.662 120.522  0.00  0.00     0.119 C 
BRANCH   8   9
ATOM      9  C   LIG d   1       2.972  57.887 120.611  0.00  0.00     0.028 C 
ATOM     10  C   LIG d   1       3.941  58.251 119.474  0.00  0.00     0.006 C 
ENDBRANCH   8   9
BRANCH   8  11
ATOM     11  C   LIG d   1       1.370  59.164 121.943  0.00  0.00     0.028 C 
ATOM     12  C   LIG d   1       0.204  60.163 122.008  0.00  0.00     0.006 C 
ENDBRANCH   8  11
ENDBRANCH   7   8
ENDBRANCH   1   7
BRANCH   6  13
ATOM     13  N   LIG d   1       1.412  55.938 117.796  0.00  0.00    -0.311 N 
ATOM     14  C   LIG d   1       1.981  54.953 118.489  0.00  0.00     0.210 C 
ATOM     15  C   LIG d   1       3.402  54.589 118.048  0.00  0.00     0.109 C 
ATOM     16  O   LIG d   1       1.432  54.325 119.407  0.00  0.00    -0.276 OA
ATOM     17  H   LIG d   1       1.918  56.370 117.048  0.00  0.00     0.149 HD
ENDBRANCH   6  13
BRANCH   5  18
ATOM     18  N   LIG d   1      -1.100  55.164 116.239  0.00  0.00     0.381 N 
ATOM     19  H   LIG d   1      -0.317  54.871 115.690  0.00  0.00    -0.090 HD
ATOM     20  H   LIG d   1      -1.904  55.218 115.639  0.00  0.00    -0.090 HD
ATOM     21  H   LIG d   1      -1.266  54.507 116.970  0.00  0.00    -0.090 HD
ENDBRANCH   5  18
BRANCH   3  22
ATOM     22  C   LIG d   1      -3.080  59.282 117.672  0.00  0.00     0.382 C 
ATOM     23  O   LIG d   1      -4.242  59.032 118.071  0.00  0.00    -0.241 OA
ATOM     24  O   LIG d   1      -2.851  60.358 117.087  0.00  0.00    -0.241 OA
ENDBRANCH   3  22
TORSDOF 7
ENDMDL
MODEL 5
REMARK VINA RESULT:      -4.9      1.915      2.758
REMARK  7 active torsions:
REMARK  status: ('A' for Active; 'I' for Inactive)
REMARK    1  A    between atoms: C_2  and  C_3 
REMARK    2  A    between atoms: C_3  and  O_6 
REMARK    3  A    between atoms: C_3  and  C_4 
REMARK    4  A    between atoms: C_7  and  O_6 
REMARK    5  A    between atoms: C_9  and  C_10 
REMARK    6  A    between atoms: N_15  and  C_14 
REMARK    7  A    between atoms: N_20  and  C_19 
REMARK       I    between atoms: C_22  and  N_20 
ROOT
ATOM      1  C   LIG d   1      -4.539  92.716 118.440  0.00  0.00     0.161 C 
ATOM      2  C   LIG d   1      -5.804  93.326 118.394  0.00  0.00     0.016 C 
ATOM      3  C   LIG d   1      -6.887  92.815 117.642  0.00  0.00     0.038 C 
ATOM      4  C   LIG d   1      -6.822  91.568 117.002  0.00  0.00     0.028 C 
ATOM      5  C   LIG d   1      -5.406  91.164 116.605  0.00  0.00    -0.047 C 
ATOM      6  C   LIG d   1      -4.482  91.297 117.838  0.00  0.00     0.091 C 
ENDROOT
BRANCH   1   7
ATOM      7  O   LIG d   1      -4.052  92.704 119.797  0.00  0.00    -0.368 OA
BRANCH   7   8
ATOM      8  C   LIG d   1      -4.534  91.627 120.638  0.00  0.00     0.119 C 
BRANCH   8   9
ATOM      9  C   LIG d   1      -5.257  92.266 121.839  0.00  0.00     0.028 C 
ATOM     10  C   LIG d   1      -6.786  92.146 121.736  0.00  0.00     0.006 C 
ENDBRANCH   8   9
BRANCH   8  11
ATOM     11  C   LIG d   1      -3.374  90.829 121.240  0.00  0.00     0.028 C 
ATOM     12  C   LIG d   1      -2.007  91.486 120.994  0.00  0.00     0.006 C 
ENDBRANCH   8  11
ENDBRANCH   7   8
ENDBRANCH   1   7
BRANCH   6  13
ATOM     13  N   LIG d   1      -3.062  91.001 117.516  0.00  0.00    -0.311 N 
ATOM     14  C   LIG d   1      -2.497  89.812 117.719  0.00  0.00     0.210 C 
ATOM     15  C   LIG d   1      -1.016  89.726 117.337  0.00  0.00     0.109 C 
ATOM     16  O   LIG d   1      -3.090  88.811 118.149  0.00  0.00    -0.276 OA
ATOM     17  H   LIG d   1      -2.516  91.748 117.134  0.00  0.00     0.149 HD
ENDBRANCH   6  13
BRANCH   5  18
ATOM     18  N   LIG d   1      -5.468  89.789 116.075  0.00  0.00     0.381 N 
ATOM     19  H   LIG d   1      -5.971  89.782 115.210  0.00  0.00    -0.090 HD
ATOM     20  H   LIG d   1      -5.960  89.209 116.731  0.00  0.00    -0.090 HD
ATOM     21  H   LIG d   1      -4.546  89.436 115.934  0.00  0.00    -0.090 HD
ENDBRANCH   5  18
BRANCH   3  22
ATOM     22  C   LIG d   1      -8.038  93.573 117.493  0.00  0.00     0.382 C 
ATOM     23  O   LIG d   1      -9.093  93.036 117.079  0.00  0.00    -0.241 OA
ATOM     24  O   LIG d   1      -8.023  94.797 117.725  0.00  0.00    -0.241 OA
ENDBRANCH   3  22
TORSDOF 7
ENDMDL
MODEL 6
REMARK VINA RESULT:      -4.9      2.269      2.898
REMARK  7 active torsions:
REMARK  status: ('A' for Active; 'I' for Inactive)
REMARK    1  A    between atoms: C_2  and  C_3 
REMARK    2  A    between atoms: C_3  and  O_6 
REMARK    3  A    between atoms: C_3  and  C_4 
REMARK    4  A    between atoms: C_7  and  O_6 
REMARK    5  A    between atoms: C_9  and  C_10 
REMARK    6  A    between atoms: N_15  and  C_14 
REMARK    7  A    between atoms: N_20  and  C_19 
REMARK       I    between atoms: C_22  and  N_20 
ROOT
ATOM      1  C   LIG d   1      -6.162  92.995 118.364  0.00  0.00     0.161 C 
ATOM      2  C   LIG d   1      -6.616  91.859 117.672  0.00  0.00     0.016 C 
ATOM      3  C   LIG d   1      -5.750  90.900 117.099  0.00  0.00     0.038 C 
ATOM      4  C   LIG d   1      -4.364  90.932 117.312  0.00  0.00     0.028 C 
ATOM      5  C   LIG d   1      -3.823  92.333 117.576  0.00  0.00    -0.047 C 
ATOM      6  C   LIG d   1      -4.657  92.988 118.702  0.00  0.00     0.091 C 
ENDROOT
BRANCH   1   7
ATOM      7  O   LIG d   1      -6.943  93.182 119.561  0.00  0.00    -0.368 OA
BRANCH   7   8
ATOM      8  C   LIG d   1      -7.882  94.285 119.544  0.00  0.00     0.119 C 
BRANCH   8   9
ATOM      9  C   LIG d   1      -7.528  95.175 118.336  0.00  0.00     0.028 C 
ATOM     10  C   LIG d   1      -7.209  96.622 118.747  0.00  0.00     0.006 C 
ENDBRANCH   8   9
BRANCH   8  11
ATOM     11  C   LIG d   1      -7.709  95.183 120.773  0.00  0.00     0.028 C 
ATOM     12  C   LIG d   1      -8.616  94.771 121.943  0.00  0.00     0.006 C 
ENDBRANCH   8  11
ENDBRANCH   7   8
ENDBRANCH   1   7
BRANCH   6  13
ATOM     13  N   LIG d   1      -4.248  94.392 118.965  0.00  0.00    -0.311 N 
ATOM     14  C   LIG d   1      -4.008  94.869 120.186  0.00  0.00     0.210 C 
ATOM     15  C   LIG d   1      -3.619  96.350 120.236  0.00  0.00     0.109 C 
ATOM     16  O   LIG d   1      -4.048  94.198 121.228  0.00  0.00    -0.276 OA
ATOM     17  H   LIG d   1      -4.161  94.998 118.173  0.00  0.00     0.149 HD
ENDBRANCH   6  13
BRANCH   5  18
ATOM     18  N   LIG d   1      -2.394  92.203 117.917  0.00  0.00     0.381 N 
ATOM     19  H   LIG d   1      -2.026  91.362 117.518  0.00  0.00    -0.090 HD
ATOM     20  H   LIG d   1      -2.302  92.145 118.915  0.00  0.00    -0.090 HD
ATOM     21  H   LIG d   1      -1.889  92.990 117.574  0.00  0.00    -0.090 HD
ENDBRANCH   5  18
BRANCH   3  22
ATOM     22  C   LIG d   1      -6.267  89.916 116.270  0.00  0.00     0.382 C 
ATOM     23  O   LIG d   1      -7.496  89.890 116.018  0.00  0.00    -0.241 OA
ATOM     24  O   LIG d   1      -5.527  89.028 115.806  0.00  0.00    -0.241 OA
ENDBRANCH   3  22
TORSDOF 7
ENDMDL
MODEL 7
REMARK VINA RESULT:      -4.8     34.865     36.213
REMARK  7 active torsions:
REMARK  status: ('A' for Active; 'I' for Inactive)
REMARK    1  A    between atoms: C_2  and  C_3 
REMARK    2  A    between atoms: C_3  and  O_6 
REMARK    3  A    between atoms: C_3  and  C_4 
REMARK    4  A    between atoms: C_7  and  O_6 
REMARK    5  A    between atoms: C_9  and  C_10 
REMARK    6  A    between atoms: N_15  and  C_14 
REMARK    7  A    between atoms: N_20  and  C_19 
REMARK       I    between atoms: C_22  and  N_20 
ROOT
ATOM      1  C   LIG d   1      -0.250  57.783 118.148  0.00  0.00     0.161 C 
ATOM      2  C   LIG d   1      -1.317  58.564 118.622  0.00  0.00     0.016 C 
ATOM      3  C   LIG d   1      -2.663  58.130 118.612  0.00  0.00     0.038 C 
ATOM      4  C   LIG d   1      -3.016  56.817 118.264  0.00  0.00     0.028 C 
ATOM      5  C   LIG d   1      -2.032  56.160 117.301  0.00  0.00    -0.047 C 
ATOM      6  C   LIG d   1      -0.602  56.307 117.868  0.00  0.00     0.091 C 
ENDROOT
BRANCH   1   7
ATOM      7  O   LIG d   1       0.862  57.869 119.062  0.00  0.00    -0.368 OA
BRANCH   7   8
ATOM      8  C   LIG d   1       0.867  56.911 120.149  0.00  0.00     0.119 C 
BRANCH   8   9
ATOM      9  C   LIG d   1       0.816  57.708 121.467  0.00  0.00     0.028 C 
ATOM     10  C   LIG d   1       0.858  59.228 121.237  0.00  0.00     0.006 C 
ENDBRANCH   8   9
BRANCH   8  11
ATOM     11  C   LIG d   1       2.184  56.131 120.198  0.00  0.00     0.028 C 
ATOM     12  C   LIG d   1       3.196  56.604 119.142  0.00  0.00     0.006 C 
ENDBRANCH   8  11
ENDBRANCH   7   8
ENDBRANCH   1   7
BRANCH   6  13
ATOM     13  N   LIG d   1       0.431  55.765 116.947  0.00  0.00    -0.311 N 
ATOM     14  C   LIG d   1       0.884  54.514 117.008  0.00  0.00     0.210 C 
ATOM     15  C   LIG d   1       1.963  54.166 115.978  0.00  0.00     0.109 C 
ATOM     16  O   LIG d   1       0.472  53.651 117.797  0.00  0.00    -0.276 OA
ATOM     17  H   LIG d   1       0.798  56.389 116.255  0.00  0.00     0.149 HD
ENDBRANCH   6  13
BRANCH   5  18
ATOM     18  N   LIG d   1      -2.446  54.754 117.132  0.00  0.00     0.381 N 
ATOM     19  H   LIG d   1      -2.064  54.389 116.283  0.00  0.00    -0.090 HD
ATOM     20  H   LIG d   1      -3.448  54.715 117.071  0.00  0.00    -0.090 HD
ATOM     21  H   LIG d   1      -2.132  54.211 117.907  0.00  0.00    -0.090 HD
ENDBRANCH   5  18
BRANCH   3  22
ATOM     22  C   LIG d   1      -3.676  59.026 118.915  0.00  0.00     0.382 C 
ATOM     23  O   LIG d   1      -4.643  59.168 118.128  0.00  0.00    -0.241 OA
ATOM     24  O   LIG d   1      -3.614  59.726 119.943  0.00  0.00    -0.241 OA
ENDBRANCH   3  22
TORSDOF 7
ENDMDL
MODEL 8
REMARK VINA RESULT:      -4.6      2.370      5.096
REMARK  7 active torsions:
REMARK  status: ('A' for Active; 'I' for Inactive)
REMARK    1  A    between atoms: C_2  and  C_3 
REMARK    2  A    between atoms: C_3  and  O_6 
REMARK    3  A    between atoms: C_3  and  C_4 
REMARK    4  A    between atoms: C_7  and  O_6 
REMARK    5  A    between atoms: C_9  and  C_10 
REMARK    6  A    between atoms: N_15  and  C_14 
REMARK    7  A    between atoms: N_20  and  C_19 
REMARK       I    between atoms: C_22  and  N_20 
ROOT
ATOM      1  C   LIG d   1      -4.753  91.602 119.635  0.00  0.00     0.161 C 
ATOM      2  C   LIG d   1      -3.664  90.786 119.282  0.00  0.00     0.016 C 
ATOM      3  C   LIG d   1      -3.546  90.147 118.027  0.00  0.00     0.038 C 
ATOM      4  C   LIG d   1      -4.440  90.403 116.977  0.00  0.00     0.028 C 
ATOM      5  C   LIG d   1      -5.827  90.823 117.451  0.00  0.00    -0.047 C 
ATOM      6  C   LIG d   1      -5.682  91.982 118.463  0.00  0.00     0.091 C 
ENDROOT
BRANCH   1   7
ATOM      7  O   LIG d   1      -4.279  92.787 120.303  0.00  0.00    -0.368 OA
BRANCH   7   8
ATOM      8  C   LIG d   1      -3.989  93.925 119.455  0.00  0.00     0.119 C 
BRANCH   8   9
ATOM      9  C   LIG d   1      -2.459  94.098 119.418  0.00  0.00     0.028 C 
ATOM     10  C   LIG d   1      -1.860  93.733 118.049  0.00  0.00     0.006 C 
ENDBRANCH   8   9
BRANCH   8  11
ATOM     11  C   LIG d   1      -4.529  95.224 120.061  0.00  0.00     0.028 C 
ATOM     12  C   LIG d   1      -5.373  94.987 121.323  0.00  0.00     0.006 C 
ENDBRANCH   8  11
ENDBRANCH   7   8
ENDBRANCH   1   7
BRANCH   6  13
ATOM     13  N   LIG d   1      -6.987  92.397 119.040  0.00  0.00    -0.311 N 
ATOM     14  C   LIG d   1      -7.606  93.531 118.714  0.00  0.00     0.210 C 
ATOM     15  C   LIG d   1      -8.931  93.776 119.441  0.00  0.00     0.109 C 
ATOM     16  O   LIG d   1      -7.198  94.341 117.868  0.00  0.00    -0.276 OA
ATOM     17  H   LIG d   1      -7.404  91.784 119.712  0.00  0.00     0.149 HD
ENDBRANCH   6  13
BRANCH   5  18
ATOM     18  N   LIG d   1      -6.613  91.191 116.259  0.00  0.00     0.381 N 
ATOM     19  H   LIG d   1      -7.553  90.862 116.357  0.00  0.00    -0.090 HD
ATOM     20  H   LIG d   1      -6.207  90.750 115.452  0.00  0.00    -0.090 HD
ATOM     21  H   LIG d   1      -6.611  92.180 116.141  0.00  0.00    -0.090 HD
ENDBRANCH   5  18
BRANCH   3  22
ATOM     22  C   LIG d   1      -2.545  89.208 117.826  0.00  0.00     0.382 C 
ATOM     23  O   LIG d   1      -1.406  89.577 117.451  0.00  0.00    -0.241 OA
ATOM     24  O   LIG d   1      -2.779  87.994 117.971  0.00  0.00    -0.241 OA
ENDBRANCH   3  22
TORSDOF 7
ENDMDL
MODEL 9
REMARK VINA RESULT:      -4.6     33.736     34.983
REMARK  7 active torsions:
REMARK  status: ('A' for Active; 'I' for Inactive)
REMARK    1  A    between atoms: C_2  and  C_3 
REMARK    2  A    between atoms: C_3  and  O_6 
REMARK    3  A    between atoms: C_3  and  C_4 
REMARK    4  A    between atoms: C_7  and  O_6 
REMARK    5  A    between atoms: C_9  and  C_10 
REMARK    6  A    between atoms: N_15  and  C_14 
REMARK    7  A    between atoms: N_20  and  C_19 
REMARK       I    between atoms: C_22  and  N_20 
ROOT
ATOM      1  C   LIG d   1      -0.706  58.014 119.744  0.00  0.00     0.161 C 
ATOM      2  C   LIG d   1      -1.790  58.787 119.298  0.00  0.00     0.016 C 
ATOM      3  C   LIG d   1      -2.421  58.594 118.047  0.00  0.00     0.038 C 
ATOM      4  C   LIG d   1      -2.105  57.508 117.217  0.00  0.00     0.028 C 
ATOM      5  C   LIG d   1      -0.678  57.003 117.398  0.00  0.00    -0.047 C 
ATOM      6  C   LIG d   1      -0.420  56.753 118.901  0.00  0.00     0.091 C 
ENDROOT
BRANCH   1   7
ATOM      7  O   LIG d   1      -0.897  57.658 121.128  0.00  0.00    -0.368 OA
BRANCH   7   8
ATOM      8  C   LIG d   1      -0.132  58.420 122.094  0.00  0.00     0.119 C 
BRANCH   8   9
ATOM      9  C   LIG d   1       0.388  59.683 121.379  0.00  0.00     0.028 C 
ATOM     10  C   LIG d   1      -0.285  60.967 121.892  0.00  0.00     0.006 C 
ENDBRANCH   8   9
BRANCH   8  11
ATOM     11  C   LIG d   1       1.121  57.660 122.537  0.00  0.00     0.028 C 
ATOM     12  C   LIG d   1       2.414  58.458 122.310  0.00  0.00     0.006 C 
ENDBRANCH   8  11
ENDBRANCH   7   8
ENDBRANCH   1   7
BRANCH   6  13
ATOM     13  N   LIG d   1       0.980  56.337 119.175  0.00  0.00    -0.311 N 
ATOM     14  C   LIG d   1       2.036  57.110 118.929  0.00  0.00     0.210 C 
ATOM     15  C   LIG d   1       3.391  56.481 119.266  0.00  0.00     0.109 C 
ATOM     16  O   LIG d   1       1.977  58.270 118.493  0.00  0.00    -0.276 OA
ATOM     17  H   LIG d   1       1.117  55.422 119.559  0.00  0.00     0.149 HD
ENDBRANCH   6  13
BRANCH   5  18
ATOM     18  N   LIG d   1      -0.528  55.787 116.576  0.00  0.00     0.381 N 
ATOM     19  H   LIG d   1       0.162  55.187 116.981  0.00  0.00    -0.090 HD
ATOM     20  H   LIG d   1      -0.216  56.052 115.658  0.00  0.00    -0.090 HD
ATOM     21  H   LIG d   1      -1.400  55.309 116.513  0.00  0.00    -0.090 HD
ENDBRANCH   5  18
BRANCH   3  22
ATOM     22  C   LIG d   1      -3.352  59.518 117.597  0.00  0.00     0.382 C 
ATOM     23  O   LIG d   1      -2.990  60.464 116.858  0.00  0.00    -0.241 OA
ATOM     24  O   LIG d   1      -4.542  59.442 117.958  0.00  0.00    -0.241 OA
ENDBRANCH   3  22
TORSDOF 7
ENDMDL
