MODEL 1
REMARK VINA RESULT:      -4.9      0.000      0.000
REMARK  7 active torsions:
REMARK  status: ('A' for Active; 'I' for Inactive)
REMARK    1  A    between atoms: C_2  and  C_3 
REMARK    2  A    between atoms: C_3  and  O_6 
REMARK    3  A    between atoms: C_3  and  C_4 
REMARK    4  A    between atoms: C_7  and  O_6 
REMARK    5  A    between atoms: C_9  and  C_10 
REMARK    6  A    between atoms: N_15  and  C_14 
REMARK    7  A    between atoms: N_20  and  C_19 
REMARK       I    between atoms: C_22  and  N_20 
ROOT
ATOM      1  C   LIG d   1      -5.007  92.413 119.190  0.00  0.00     0.161 C 
ATOM      2  C   LIG d   1      -5.263  91.396 118.256  0.00  0.00     0.016 C 
ATOM      3  C   LIG d   1      -6.240  91.501 117.240  0.00  0.00     0.038 C 
ATOM      4  C   LIG d   1      -6.929  92.698 116.994  0.00  0.00     0.028 C 
ATOM      5  C   LIG d   1      -7.065  93.583 118.228  0.00  0.00    -0.047 C 
ATOM      6  C   LIG d   1      -5.670  93.769 118.869  0.00  0.00     0.091 C 
ENDROOT
BRANCH   1   7
ATOM      7  O   LIG d   1      -3.585  92.578 119.356  0.00  0.00    -0.368 OA
BRANCH   7   8
ATOM      8  C   LIG d   1      -2.783  92.438 118.157  0.00  0.00     0.119 C 
BRANCH   8   9
ATOM      9  C   LIG d   1      -1.531  91.620 118.530  0.00  0.00     0.028 C 
ATOM     10  C   LIG d   1      -1.879  90.332 119.296  0.00  0.00     0.006 C 
ENDBRANCH   8   9
BRANCH   8  11
ATOM     11  C   LIG d   1      -2.254  93.793 117.678  0.00  0.00     0.028 C 
ATOM     12  C   LIG d   1      -2.089  94.806 118.823  0.00  0.00     0.006 C 
ENDBRANCH   8  11
ENDBRANCH   7   8
ENDBRANCH   1   7
BRANCH   6  13
ATOM     13  N   LIG d   1      -5.725  94.553 120.130  0.00  0.00    -0.311 N 
ATOM     14  C   LIG d   1      -5.534  95.870 120.183  0.00  0.00     0.210 C 
ATOM     15  C   LIG d   1      -5.615  96.479 121.587  0.00  0.00     0.109 C 
ATOM     16  O   LIG d   1      -5.338  96.597 119.198  0.00  0.00    -0.276 OA
ATOM     17  H   LIG d   1      -5.910  94.047 120.974  0.00  0.00     0.149 HD
ENDBRANCH   6  13
BRANCH   5  18
ATOM     18  N   LIG d   1      -7.678  94.855 117.800  0.00  0.00     0.381 N 
ATOM     19  H   LIG d   1      -7.656  95.512 118.553  0.00  0.00    -0.090 HD
ATOM     20  H   LIG d   1      -8.638  94.687 117.556  0.00  0.00    -0.090 HD
ATOM     21  H   LIG d   1      -7.187  95.222 117.014  0.00  0.00    -0.090 HD
ENDBRANCH   5  18
BRANCH   3  22
ATOM     22  C   LIG d   1      -6.566  90.386 116.482  0.00  0.00     0.382 C 
ATOM     23  O   LIG d   1      -7.734  89.929 116.510  0.00  0.00    -0.241 OA
ATOM     24  O   LIG d   1      -5.697  89.806 115.805  0.00  0.00    -0.241 OA
ENDBRANCH   3  22
TORSDOF 7
ENDMDL
MODEL 2
REMARK VINA RESULT:      -4.7     13.747     15.843
REMARK  7 active torsions:
REMARK  status: ('A' for Active; 'I' for Inactive)
REMARK    1  A    between atoms: C_2  and  C_3 
REMARK    2  A    between atoms: C_3  and  O_6 
REMARK    3  A    between atoms: C_3  and  C_4 
REMARK    4  A    between atoms: C_7  and  O_6 
REMARK    5  A    between atoms: C_9  and  C_10 
REMARK    6  A    between atoms: N_15  and  C_14 
REMARK    7  A    between atoms: N_20  and  C_19 
REMARK       I    between atoms: C_22  and  N_20 
ROOT
ATOM      1  C   LIG d   1      -6.646  77.274 117.420  0.00  0.00     0.161 C 
ATOM      2  C   LIG d   1      -6.764  75.985 116.873  0.00  0.00     0.016 C 
ATOM      3  C   LIG d   1      -7.980  75.264 116.837  0.00  0.00     0.038 C 
ATOM      4  C   LIG d   1      -9.199  75.847 117.211  0.00  0.00     0.028 C 
ATOM      5  C   LIG d   1      -9.047  76.965 118.237  0.00  0.00    -0.047 C 
ATOM      6  C   LIG d   1      -7.988  77.970 117.731  0.00  0.00     0.091 C 
ENDROOT
BRANCH   1   7
ATOM      7  O   LIG d   1      -5.842  78.100 116.554  0.00  0.00    -0.368 OA
BRANCH   7   8
ATOM      8  C   LIG d   1      -4.524  78.445 117.046  0.00  0.00     0.119 C 
BRANCH   8   9
ATOM      9  C   LIG d   1      -3.506  77.558 116.303  0.00  0.00     0.028 C 
ATOM     10  C   LIG d   1      -3.035  76.366 117.153  0.00  0.00     0.006 C 
ENDBRANCH   8   9
BRANCH   8  11
ATOM     11  C   LIG d   1      -4.370  78.085 118.527  0.00  0.00     0.028 C 
ATOM     12  C   LIG d   1      -4.123  79.314 119.416  0.00  0.00     0.006 C 
ENDBRANCH   8  11
ENDBRANCH   7   8
ENDBRANCH   1   7
BRANCH   6  13
ATOM     13  N   LIG d   1      -7.717  79.051 118.714  0.00  0.00    -0.311 N 
ATOM     14  C   LIG d   1      -7.795  80.347 118.419  0.00  0.00     0.210 C 
ATOM     15  C   LIG d   1      -7.456  81.295 119.574  0.00  0.00     0.109 C 
ATOM     16  O   LIG d   1      -8.144  80.802 117.319  0.00  0.00    -0.276 OA
ATOM     17  H   LIG d   1      -7.457  78.771 119.640  0.00  0.00     0.149 HD
ENDBRANCH   6  13
BRANCH   5  18
ATOM     18  N   LIG d   1     -10.376  77.574 118.432  0.00  0.00     0.381 N 
ATOM     19  H   LIG d   1     -11.041  77.140 117.823  0.00  0.00    -0.090 HD
ATOM     20  H   LIG d   1     -10.324  78.550 118.198  0.00  0.00    -0.090 HD
ATOM     21  H   LIG d   1     -10.665  77.468 119.380  0.00  0.00    -0.090 HD
ENDBRANCH   5  18
BRANCH   3  22
ATOM     22  C   LIG d   1      -7.975  73.929 116.460  0.00  0.00     0.382 C 
ATOM     23  O   LIG d   1      -8.912  73.174 116.817  0.00  0.00    -0.241 OA
ATOM     24  O   LIG d   1      -7.025  73.461 115.805  0.00  0.00    -0.241 OA
ENDBRANCH   3  22
TORSDOF 7
ENDMDL
MODEL 3
REMARK VINA RESULT:      -4.7     12.968     15.492
REMARK  7 active torsions:
REMARK  status: ('A' for Active; 'I' for Inactive)
REMARK    1  A    between atoms: C_2  and  C_3 
REMARK    2  A    between atoms: C_3  and  O_6 
REMARK    3  A    between atoms: C_3  and  C_4 
REMARK    4  A    between atoms: C_7  and  O_6 
REMARK    5  A    between atoms: C_9  and  C_10 
REMARK    6  A    between atoms: N_15  and  C_14 
REMARK    7  A    between atoms: N_20  and  C_19 
REMARK       I    between atoms: C_22  and  N_20 
ROOT
ATOM      1  C   LIG d   1      -7.264  78.448 118.943  0.00  0.00     0.161 C 
ATOM      2  C   LIG d   1      -6.116  78.332 118.141  0.00  0.00     0.016 C 
ATOM      3  C   LIG d   1      -5.972  77.359 117.125  0.00  0.00     0.038 C 
ATOM      4  C   LIG d   1      -7.034  76.528 116.739  0.00  0.00     0.028 C 
ATOM      5  C   LIG d   1      -8.039  76.269 117.857  0.00  0.00    -0.047 C 
ATOM      6  C   LIG d   1      -8.475  77.623 118.462  0.00  0.00     0.091 C 
ENDROOT
BRANCH   1   7
ATOM      7  O   LIG d   1      -7.626  79.837 119.079  0.00  0.00    -0.368 OA
BRANCH   7   8
ATOM      8  C   LIG d   1      -7.922  80.542 117.848  0.00  0.00     0.119 C 
BRANCH   8   9
ATOM      9  C   LIG d   1      -7.058  81.818 117.826  0.00  0.00     0.028 C 
ATOM     10  C   LIG d   1      -6.483  82.161 119.210  0.00  0.00     0.006 C 
ENDBRANCH   8   9
BRANCH   8  11
ATOM     11  C   LIG d   1      -9.372  81.034 117.823  0.00  0.00     0.028 C 
ATOM     12  C   LIG d   1     -10.016  81.061 119.218  0.00  0.00     0.006 C 
ENDBRANCH   8  11
ENDBRANCH   7   8
ENDBRANCH   1   7
BRANCH   6  13
ATOM     13  N   LIG d   1      -9.394  77.457 119.618  0.00  0.00    -0.311 N 
ATOM     14  C   LIG d   1     -10.721  77.479 119.509  0.00  0.00     0.210 C 
ATOM     15  C   LIG d   1     -11.482  77.309 120.828  0.00  0.00     0.109 C 
ATOM     16  O   LIG d   1     -11.342  77.592 118.441  0.00  0.00    -0.276 OA
ATOM     17  H   LIG d   1      -8.976  77.329 120.518  0.00  0.00     0.149 HD
ENDBRANCH   6  13
BRANCH   5  18
ATOM     18  N   LIG d   1      -9.161  75.505 117.279  0.00  0.00     0.381 N 
ATOM     19  H   LIG d   1      -9.857  76.134 116.934  0.00  0.00    -0.090 HD
ATOM     20  H   LIG d   1      -9.575  74.941 118.001  0.00  0.00    -0.090 HD
ATOM     21  H   LIG d   1      -8.832  74.923 116.541  0.00  0.00    -0.090 HD
ENDBRANCH   5  18
BRANCH   3  22
ATOM     22  C   LIG d   1      -4.741  77.184 116.511  0.00  0.00     0.382 C 
ATOM     23  O   LIG d   1      -4.222  78.127 115.868  0.00  0.00    -0.241 OA
ATOM     24  O   LIG d   1      -4.165  76.081 116.555  0.00  0.00    -0.241 OA
ENDBRANCH   3  22
TORSDOF 7
ENDMDL
MODEL 4
REMARK VINA RESULT:      -4.5      2.340      3.631
REMARK  7 active torsions:
REMARK  status: ('A' for Active; 'I' for Inactive)
REMARK    1  A    between atoms: C_2  and  C_3 
REMARK    2  A    between atoms: C_3  and  O_6 
REMARK    3  A    between atoms: C_3  and  C_4 
REMARK    4  A    between atoms: C_7  and  O_6 
REMARK    5  A    between atoms: C_9  and  C_10 
REMARK    6  A    between atoms: N_15  and  C_14 
REMARK    7  A    between atoms: N_20  and  C_19 
REMARK       I    between atoms: C_22  and  N_20 
ROOT
ATOM      1  C   LIG d   1      -3.252  91.178 118.199  0.00  0.00     0.161 C 
ATOM      2  C   LIG d   1      -4.273  90.749 117.334  0.00  0.00     0.016 C 
ATOM      3  C   LIG d   1      -5.348  91.573 116.931  0.00  0.00     0.038 C 
ATOM      4  C   LIG d   1      -5.395  92.939 117.248  0.00  0.00     0.028 C 
ATOM      5  C   LIG d   1      -4.653  93.288 118.534  0.00  0.00    -0.047 C 
ATOM      6  C   LIG d   1      -3.226  92.697 118.466  0.00  0.00     0.091 C 
ENDROOT
BRANCH   1   7
ATOM      7  O   LIG d   1      -1.973  90.735 117.703  0.00  0.00    -0.368 OA
BRANCH   7   8
ATOM      8  C   LIG d   1      -1.218  89.861 118.578  0.00  0.00     0.119 C 
BRANCH   8   9
ATOM      9  C   LIG d   1       0.277  90.151 118.343  0.00  0.00     0.028 C 
ATOM     10  C   LIG d   1       0.534  90.860 117.003  0.00  0.00     0.006 C 
ENDBRANCH   8   9
BRANCH   8  11
ATOM     11  C   LIG d   1      -1.411  88.390 118.199  0.00  0.00     0.028 C 
ATOM     12  C   LIG d   1      -2.202  87.601 119.254  0.00  0.00     0.006 C 
ENDBRANCH   8  11
ENDBRANCH   7   8
ENDBRANCH   1   7
BRANCH   6  13
ATOM     13  N   LIG d   1      -2.460  92.921 119.720  0.00  0.00    -0.311 N 
ATOM     14  C   LIG d   1      -1.218  93.401 119.744  0.00  0.00     0.210 C 
ATOM     15  C   LIG d   1      -0.604  93.535 121.141  0.00  0.00     0.109 C 
ATOM     16  O   LIG d   1      -0.578  93.759 118.743  0.00  0.00    -0.276 OA
ATOM     17  H   LIG d   1      -2.915  92.687 120.580  0.00  0.00     0.149 HD
ENDBRANCH   6  13
BRANCH   5  18
ATOM     18  N   LIG d   1      -4.665  94.757 118.670  0.00  0.00     0.381 N 
ATOM     19  H   LIG d   1      -5.140  95.166 117.891  0.00  0.00    -0.090 HD
ATOM     20  H   LIG d   1      -3.717  95.091 118.673  0.00  0.00    -0.090 HD
ATOM     21  H   LIG d   1      -5.119  95.017 119.518  0.00  0.00    -0.090 HD
ENDBRANCH   5  18
BRANCH   3  22
ATOM     22  C   LIG d   1      -6.413  91.022 116.235  0.00  0.00     0.382 C 
ATOM     23  O   LIG d   1      -6.435  89.791 115.996  0.00  0.00    -0.241 OA
ATOM     24  O   LIG d   1      -7.331  91.747 115.806  0.00  0.00    -0.241 OA
ENDBRANCH   3  22
TORSDOF 7
ENDMDL
MODEL 5
REMARK VINA RESULT:      -4.4      1.534      2.373
REMARK  7 active torsions:
REMARK  status: ('A' for Active; 'I' for Inactive)
REMARK    1  A    between atoms: C_2  and  C_3 
REMARK    2  A    between atoms: C_3  and  O_6 
REMARK    3  A    between atoms: C_3  and  C_4 
REMARK    4  A    between atoms: C_7  and  O_6 
REMARK    5  A    between atoms: C_9  and  C_10 
REMARK    6  A    between atoms: N_15  and  C_14 
REMARK    7  A    between atoms: N_20  and  C_19 
REMARK       I    between atoms: C_22  and  N_20 
ROOT
ATOM      1  C   LIG d   1      -3.852  92.403 118.554  0.00  0.00     0.161 C 
ATOM      2  C   LIG d   1      -4.504  91.471 117.730  0.00  0.00     0.016 C 
ATOM      3  C   LIG d   1      -5.723  91.739 117.065  0.00  0.00     0.038 C 
ATOM      4  C   LIG d   1      -6.298  93.019 117.058  0.00  0.00     0.028 C 
ATOM      5  C   LIG d   1      -5.941  93.850 118.286  0.00  0.00    -0.047 C 
ATOM      6  C   LIG d   1      -4.407  93.841 118.470  0.00  0.00     0.091 C 
ENDROOT
BRANCH   1   7
ATOM      7  O   LIG d   1      -2.438  92.395 118.277  0.00  0.00    -0.368 OA
BRANCH   7   8
ATOM      8  C   LIG d   1      -1.598  91.749 119.266  0.00  0.00     0.119 C 
BRANCH   8   9
ATOM      9  C   LIG d   1      -0.584  92.796 119.767  0.00  0.00     0.028 C 
ATOM     10  C   LIG d   1      -0.029  93.667 118.628  0.00  0.00     0.006 C 
ENDBRANCH   8   9
BRANCH   8  11
ATOM     11  C   LIG d   1      -0.754  90.635 118.638  0.00  0.00     0.028 C 
ATOM     12  C   LIG d   1      -1.348  89.236 118.868  0.00  0.00     0.006 C 
ENDBRANCH   8  11
ENDBRANCH   7   8
ENDBRANCH   1   7
BRANCH   6  13
ATOM     13  N   LIG d   1      -3.978  94.561 119.697  0.00  0.00    -0.311 N 
ATOM     14  C   LIG d   1      -3.111  95.572 119.689  0.00  0.00     0.210 C 
ATOM     15  C   LIG d   1      -2.791  96.160 121.067  0.00  0.00     0.109 C 
ATOM     16  O   LIG d   1      -2.601  96.058 118.669  0.00  0.00    -0.276 OA
ATOM     17  H   LIG d   1      -4.367  94.252 120.567  0.00  0.00     0.149 HD
ENDBRANCH   6  13
BRANCH   5  18
ATOM     18  N   LIG d   1      -6.492  95.203 118.084  0.00  0.00     0.381 N 
ATOM     19  H   LIG d   1      -5.884  95.730 117.488  0.00  0.00    -0.090 HD
ATOM     20  H   LIG d   1      -6.544  95.669 118.973  0.00  0.00    -0.090 HD
ATOM     21  H   LIG d   1      -7.399  95.145 117.677  0.00  0.00    -0.090 HD
ENDBRANCH   5  18
BRANCH   3  22
ATOM     22  C   LIG d   1      -6.400  90.710 116.430  0.00  0.00     0.382 C 
ATOM     23  O   LIG d   1      -5.760  89.830 115.805  0.00  0.00    -0.241 OA
ATOM     24  O   LIG d   1      -7.645  90.674 116.436  0.00  0.00    -0.241 OA
ENDBRANCH   3  22
TORSDOF 7
ENDMDL
MODEL 6
REMARK VINA RESULT:      -4.4      1.594      2.332
REMARK  7 active torsions:
REMARK  status: ('A' for Active; 'I' for Inactive)
REMARK    1  A    between atoms: C_2  and  C_3 
REMARK    2  A    between atoms: C_3  and  O_6 
REMARK    3  A    between atoms: C_3  and  C_4 
REMARK    4  A    between atoms: C_7  and  O_6 
REMARK    5  A    between atoms: C_9  and  C_10 
REMARK    6  A    between atoms: N_15  and  C_14 
REMARK    7  A    between atoms: N_20  and  C_19 
REMARK       I    between atoms: C_22  and  N_20 
ROOT
ATOM      1  C   LIG d   1      -5.004  93.991 118.984  0.00  0.00     0.161 C 
ATOM      2  C   LIG d   1      -5.035  92.759 118.310  0.00  0.00     0.016 C 
ATOM      3  C   LIG d   1      -6.163  92.291 117.597  0.00  0.00     0.038 C 
ATOM      4  C   LIG d   1      -7.291  93.096 117.381  0.00  0.00     0.028 C 
ATOM      5  C   LIG d   1      -7.501  94.147 118.466  0.00  0.00    -0.047 C 
ATOM      6  C   LIG d   1      -6.185  94.932 118.666  0.00  0.00     0.091 C 
ENDROOT
BRANCH   1   7
ATOM      7  O   LIG d   1      -3.751  94.656 118.727  0.00  0.00    -0.368 OA
BRANCH   7   8
ATOM      8  C   LIG d   1      -2.724  94.491 119.736  0.00  0.00     0.119 C 
BRANCH   8   9
ATOM      9  C   LIG d   1      -2.408  95.887 120.308  0.00  0.00     0.028 C 
ATOM     10  C   LIG d   1      -2.949  96.073 121.735  0.00  0.00     0.006 C 
ENDBRANCH   8   9
BRANCH   8  11
ATOM     11  C   LIG d   1      -1.411  93.998 119.119  0.00  0.00     0.028 C 
ATOM     12  C   LIG d   1      -1.220  94.471 117.670  0.00  0.00     0.006 C 
ENDBRANCH   8  11
ENDBRANCH   7   8
ENDBRANCH   1   7
BRANCH   6  13
ATOM     13  N   LIG d   1      -6.278  95.924 119.769  0.00  0.00    -0.311 N 
ATOM     14  C   LIG d   1      -5.904  97.196 119.645  0.00  0.00     0.210 C 
ATOM     15  C   LIG d   1      -6.065  98.044 120.910  0.00  0.00     0.109 C 
ATOM     16  O   LIG d   1      -5.483  97.710 118.598  0.00  0.00    -0.276 OA
ATOM     17  H   LIG d   1      -6.638  95.599 120.645  0.00  0.00     0.149 HD
ENDBRANCH   6  13
BRANCH   5  18
ATOM     18  N   LIG d   1      -8.627  95.003 118.045  0.00  0.00     0.381 N 
ATOM     19  H   LIG d   1      -8.740  95.757 118.693  0.00  0.00    -0.090 HD
ATOM     20  H   LIG d   1      -9.469  94.456 118.048  0.00  0.00    -0.090 HD
ATOM     21  H   LIG d   1      -8.458  95.363 117.132  0.00  0.00    -0.090 HD
ENDBRANCH   5  18
BRANCH   3  22
ATOM     22  C   LIG d   1      -6.184  90.987 117.124  0.00  0.00     0.382 C 
ATOM     23  O   LIG d   1      -5.114  90.341 117.018  0.00  0.00    -0.241 OA
ATOM     24  O   LIG d   1      -7.255  90.464 116.762  0.00  0.00    -0.241 OA
ENDBRANCH   3  22
TORSDOF 7
ENDMDL
MODEL 7
REMARK VINA RESULT:      -4.3      2.239      3.917
REMARK  7 active torsions:
REMARK  status: ('A' for Active; 'I' for Inactive)
REMARK    1  A    between atoms: C_2  and  C_3 
REMARK    2  A    between atoms: C_3  and  O_6 
REMARK    3  A    between atoms: C_3  and  C_4 
REMARK    4  A    between atoms: C_7  and  O_6 
REMARK    5  A    between atoms: C_9  and  C_10 
REMARK    6  A    between atoms: N_15  and  C_14 
REMARK    7  A    between atoms: N_20  and  C_19 
REMARK       I    between atoms: C_22  and  N_20 
ROOT
ATOM      1  C   LIG d   1      -5.386  92.992 119.808  0.00  0.00     0.161 C 
ATOM      2  C   LIG d   1      -6.774  93.027 119.597  0.00  0.00     0.016 C 
ATOM      3  C   LIG d   1      -7.465  94.180 119.159  0.00  0.00     0.038 C 
ATOM      4  C   LIG d   1      -6.789  95.341 118.755  0.00  0.00     0.028 C 
ATOM      5  C   LIG d   1      -5.433  95.518 119.429  0.00  0.00    -0.047 C 
ATOM      6  C   LIG d   1      -4.618  94.215 119.266  0.00  0.00     0.091 C 
ENDROOT
BRANCH   1   7
ATOM      7  O   LIG d   1      -4.839  91.775 119.261  0.00  0.00    -0.368 OA
BRANCH   7   8
ATOM      8  C   LIG d   1      -4.290  91.868 117.923  0.00  0.00     0.119 C 
BRANCH   8   9
ATOM      9  C   LIG d   1      -5.303  91.218 116.961  0.00  0.00     0.028 C 
ATOM     10  C   LIG d   1      -5.971  92.246 116.031  0.00  0.00     0.006 C 
ENDBRANCH   8   9
BRANCH   8  11
ATOM     11  C   LIG d   1      -3.011  91.036 117.787  0.00  0.00     0.028 C 
ATOM     12  C   LIG d   1      -3.129  89.651 118.442  0.00  0.00     0.006 C 
ENDBRANCH   8  11
ENDBRANCH   7   8
ENDBRANCH   1   7
BRANCH   6  13
ATOM     13  N   LIG d   1      -3.310  94.273 119.969  0.00  0.00    -0.311 N 
ATOM     14  C   LIG d   1      -2.164  94.582 119.364  0.00  0.00     0.210 C 
ATOM     15  C   LIG d   1      -0.929  94.565 120.269  0.00  0.00     0.109 C 
ATOM     16  O   LIG d   1      -2.059  94.901 118.170  0.00  0.00    -0.276 OA
ATOM     17  H   LIG d   1      -3.308  94.059 120.948  0.00  0.00     0.149 HD
ENDBRANCH   6  13
BRANCH   5  18
ATOM     18  N   LIG d   1      -4.780  96.690 118.816  0.00  0.00     0.381 N 
ATOM     19  H   LIG d   1      -3.840  96.766 119.149  0.00  0.00    -0.090 HD
ATOM     20  H   LIG d   1      -5.279  97.519 119.088  0.00  0.00    -0.090 HD
ATOM     21  H   LIG d   1      -4.783  96.602 117.824  0.00  0.00    -0.090 HD
ENDBRANCH   5  18
BRANCH   3  22
ATOM     22  C   LIG d   1      -8.852  94.192 119.160  0.00  0.00     0.382 C 
ATOM     23  O   LIG d   1      -9.477  94.547 118.132  0.00  0.00    -0.241 OA
ATOM     24  O   LIG d   1      -9.485  93.894 120.191  0.00  0.00    -0.241 OA
ENDBRANCH   3  22
TORSDOF 7
ENDMDL
MODEL 8
REMARK VINA RESULT:      -4.2      4.333      7.382
REMARK  7 active torsions:
REMARK  status: ('A' for Active; 'I' for Inactive)
REMARK    1  A    between atoms: C_2  and  C_3 
REMARK    2  A    between atoms: C_3  and  O_6 
REMARK    3  A    between atoms: C_3  and  C_4 
REMARK    4  A    between atoms: C_7  and  O_6 
REMARK    5  A    between atoms: C_9  and  C_10 
REMARK    6  A    between atoms: N_15  and  C_14 
REMARK    7  A    between atoms: N_20  and  C_19 
REMARK       I    between atoms: C_22  and  N_20 
ROOT
ATOM      1  C   LIG d   1       0.195  89.850 117.797  0.00  0.00     0.161 C 
ATOM      2  C   LIG d   1       1.587  90.030 117.862  0.00  0.00     0.016 C 
ATOM      3  C   LIG d   1       2.214  91.293 117.759  0.00  0.00     0.038 C 
ATOM      4  C   LIG d   1       1.478  92.487 117.735  0.00  0.00     0.028 C 
ATOM      5  C   LIG d   1       0.075  92.322 117.160  0.00  0.00    -0.047 C 
ATOM      6  C   LIG d   1      -0.629  91.152 117.883  0.00  0.00     0.091 C 
ENDROOT
BRANCH   1   7
ATOM      7  O   LIG d   1      -0.226  88.922 118.817  0.00  0.00    -0.368 OA
BRANCH   7   8
ATOM      8  C   LIG d   1      -0.925  87.741 118.354  0.00  0.00     0.119 C 
BRANCH   8   9
ATOM      9  C   LIG d   1      -2.137  87.527 119.281  0.00  0.00     0.028 C 
ATOM     10  C   LIG d   1      -2.337  88.694 120.263  0.00  0.00     0.006 C 
ENDBRANCH   8   9
BRANCH   8  11
ATOM     11  C   LIG d   1      -0.064  86.485 118.516  0.00  0.00     0.028 C 
ATOM     12  C   LIG d   1      -0.789  85.359 119.272  0.00  0.00     0.006 C 
ENDBRANCH   8  11
ENDBRANCH   7   8
ENDBRANCH   1   7
BRANCH   6  13
ATOM     13  N   LIG d   1      -1.977  90.868 117.323  0.00  0.00    -0.311 N 
ATOM     14  C   LIG d   1      -3.103  91.359 117.839  0.00  0.00     0.210 C 
ATOM     15  C   LIG d   1      -4.385  90.926 117.120  0.00  0.00     0.109 C 
ATOM     16  O   LIG d   1      -3.159  92.137 118.803  0.00  0.00    -0.276 OA
ATOM     17  H   LIG d   1      -2.021  90.271 116.521  0.00  0.00     0.149 HD
ENDBRANCH   6  13
BRANCH   5  18
ATOM     18  N   LIG d   1      -0.627  93.609 117.322  0.00  0.00     0.381 N 
ATOM     19  H   LIG d   1      -0.378  94.227 116.575  0.00  0.00    -0.090 HD
ATOM     20  H   LIG d   1      -0.340  94.029 118.188  0.00  0.00    -0.090 HD
ATOM     21  H   LIG d   1      -1.612  93.462 117.326  0.00  0.00    -0.090 HD
ENDBRANCH   5  18
BRANCH   3  22
ATOM     22  C   LIG d   1       3.594  91.367 117.638  0.00  0.00     0.382 C 
ATOM     23  O   LIG d   1       4.328  90.915 118.549  0.00  0.00    -0.241 OA
ATOM     24  O   LIG d   1       4.112  91.920 116.650  0.00  0.00    -0.241 OA
ENDBRANCH   3  22
TORSDOF 7
ENDMDL
MODEL 9
REMARK VINA RESULT:      -4.2     12.815     15.365
REMARK  7 active torsions:
REMARK  status: ('A' for Active; 'I' for Inactive)
REMARK    1  A    between atoms: C_2  and  C_3 
REMARK    2  A    between atoms: C_3  and  O_6 
REMARK    3  A    between atoms: C_3  and  C_4 
REMARK    4  A    between atoms: C_7  and  O_6 
REMARK    5  A    between atoms: C_9  and  C_10 
REMARK    6  A    between atoms: N_15  and  C_14 
REMARK    7  A    between atoms: N_20  and  C_19 
REMARK       I    between atoms: C_22  and  N_20 
ROOT
ATOM      1  C   LIG d   1      -7.344  78.499 117.837  0.00  0.00     0.161 C 
ATOM      2  C   LIG d   1      -7.570  79.877 117.687  0.00  0.00     0.016 C 
ATOM      3  C   LIG d   1      -8.761  80.520 118.095  0.00  0.00     0.038 C 
ATOM      4  C   LIG d   1      -9.753  79.848 118.825  0.00  0.00     0.028 C 
ATOM      5  C   LIG d   1      -9.791  78.347 118.556  0.00  0.00    -0.047 C 
ATOM      6  C   LIG d   1      -8.368  77.770 118.732  0.00  0.00     0.091 C 
ENDROOT
BRANCH   1   7
ATOM      7  O   LIG d   1      -6.005  78.274 118.322  0.00  0.00    -0.368 OA
BRANCH   7   8
ATOM      8  C   LIG d   1      -4.970  78.175 117.313  0.00  0.00     0.119 C 
BRANCH   8   9
ATOM      9  C   LIG d   1      -4.566  76.692 117.208  0.00  0.00     0.028 C 
ATOM     10  C   LIG d   1      -4.885  76.092 115.829  0.00  0.00     0.006 C 
ENDBRANCH   8   9
BRANCH   8  11
ATOM     11  C   LIG d   1      -3.699  78.913 117.745  0.00  0.00     0.028 C 
ATOM     12  C   LIG d   1      -2.612  78.912 116.658  0.00  0.00     0.006 C 
ENDBRANCH   8  11
ENDBRANCH   7   8
ENDBRANCH   1   7
BRANCH   6  13
ATOM     13  N   LIG d   1      -8.299  76.321 118.405  0.00  0.00    -0.311 N 
ATOM     14  C   LIG d   1      -8.352  75.847 117.161  0.00  0.00     0.210 C 
ATOM     15  C   LIG d   1      -8.285  74.321 117.048  0.00  0.00     0.109 C 
ATOM     16  O   LIG d   1      -8.416  76.547 116.140  0.00  0.00    -0.276 OA
ATOM     17  H   LIG d   1      -8.216  75.684 119.172  0.00  0.00     0.149 HD
ENDBRANCH   6  13
BRANCH   5  18
ATOM     18  N   LIG d   1     -10.774  77.753 119.482  0.00  0.00     0.381 N 
ATOM     19  H   LIG d   1     -10.348  77.597 120.374  0.00  0.00    -0.090 HD
ATOM     20  H   LIG d   1     -11.072  76.866 119.115  0.00  0.00    -0.090 HD
ATOM     21  H   LIG d   1     -11.558  78.359 119.582  0.00  0.00    -0.090 HD
ENDBRANCH   5  18
BRANCH   3  22
ATOM     22  C   LIG d   1      -8.987  81.840 117.739  0.00  0.00     0.382 C 
ATOM     23  O   LIG d   1      -9.064  82.159 116.528  0.00  0.00    -0.241 OA
ATOM     24  O   LIG d   1      -9.071  82.725 118.612  0.00  0.00    -0.241 OA
ENDBRANCH   3  22
TORSDOF 7
ENDMDL
