MODEL 1
REMARK VINA RESULT:      -5.2      0.000      0.000
REMARK  7 active torsions:
REMARK  status: ('A' for Active; 'I' for Inactive)
REMARK    1  A    between atoms: C_2  and  C_3 
REMARK    2  A    between atoms: C_3  and  O_6 
REMARK    3  A    between atoms: C_3  and  C_4 
REMARK    4  A    between atoms: C_7  and  O_6 
REMARK    5  A    between atoms: C_9  and  C_10 
REMARK    6  A    between atoms: N_15  and  C_14 
REMARK    7  A    between atoms: N_20  and  C_19 
REMARK       I    between atoms: C_22  and  N_20 
ROOT
ATOM      1  C   LIG d   1      -4.295  92.700 118.433  0.00  0.00     0.161 C 
ATOM      2  C   LIG d   1      -4.853  91.771 117.540  0.00  0.00     0.016 C 
ATOM      3  C   LIG d   1      -6.047  92.003 116.819  0.00  0.00     0.038 C 
ATOM      4  C   LIG d   1      -6.688  93.251 116.830  0.00  0.00     0.028 C 
ATOM      5  C   LIG d   1      -6.442  94.048 118.107  0.00  0.00    -0.047 C 
ATOM      6  C   LIG d   1      -4.921  94.110 118.374  0.00  0.00     0.091 C 
ENDROOT
BRANCH   1   7
ATOM      7  O   LIG d   1      -2.870  92.776 118.234  0.00  0.00    -0.368 OA
BRANCH   7   8
ATOM      8  C   LIG d   1      -2.048  92.232 119.296  0.00  0.00     0.119 C 
BRANCH   8   9
ATOM      9  C   LIG d   1      -0.963  93.276 119.622  0.00  0.00     0.028 C 
ATOM     10  C   LIG d   1       0.311  93.080 118.783  0.00  0.00     0.006 C 
ENDBRANCH   8   9
BRANCH   8  11
ATOM     11  C   LIG d   1      -1.287  90.987 118.831  0.00  0.00     0.028 C 
ATOM     12  C   LIG d   1      -1.803  89.695 119.483  0.00  0.00     0.006 C 
ENDBRANCH   8  11
ENDBRANCH   7   8
ENDBRANCH   1   7
BRANCH   6  13
ATOM     13  N   LIG d   1      -4.597  94.800 119.650  0.00  0.00    -0.311 N 
ATOM     14  C   LIG d   1      -4.259  96.086 119.722  0.00  0.00     0.210 C 
ATOM     15  C   LIG d   1      -3.945  96.593 121.133  0.00  0.00     0.109 C 
ATOM     16  O   LIG d   1      -4.221  96.863 118.756  0.00  0.00    -0.276 OA
ATOM     17  H   LIG d   1      -4.633  94.252 120.487  0.00  0.00     0.149 HD
ENDBRANCH   6  13
BRANCH   5  18
ATOM     18  N   LIG d   1      -7.052  95.378 117.926  0.00  0.00     0.381 N 
ATOM     19  H   LIG d   1      -8.005  95.278 117.640  0.00  0.00    -0.090 HD
ATOM     20  H   LIG d   1      -6.555  95.868 117.203  0.00  0.00    -0.090 HD
ATOM     21  H   LIG d   1      -7.006  95.893 118.778  0.00  0.00    -0.090 HD
ENDBRANCH   5  18
BRANCH   3  22
ATOM     22  C   LIG d   1      -6.634  90.967 116.108  0.00  0.00     0.382 C 
ATOM     23  O   LIG d   1      -7.850  91.025 115.805  0.00  0.00    -0.241 OA
ATOM     24  O   LIG d   1      -5.973  89.956 115.805  0.00  0.00    -0.241 OA
ENDBRANCH   3  22
TORSDOF 7
ENDMDL
MODEL 2
REMARK VINA RESULT:      -5.0     33.657     35.616
REMARK  7 active torsions:
REMARK  status: ('A' for Active; 'I' for Inactive)
REMARK    1  A    between atoms: C_2  and  C_3 
REMARK    2  A    between atoms: C_3  and  O_6 
REMARK    3  A    between atoms: C_3  and  C_4 
REMARK    4  A    between atoms: C_7  and  O_6 
REMARK    5  A    between atoms: C_9  and  C_10 
REMARK    6  A    between atoms: N_15  and  C_14 
REMARK    7  A    between atoms: N_20  and  C_19 
REMARK       I    between atoms: C_22  and  N_20 
ROOT
ATOM      1  C   LIG d   1       0.346  58.722 118.302  0.00  0.00     0.161 C 
ATOM      2  C   LIG d   1       1.595  59.183 117.856  0.00  0.00     0.016 C 
ATOM      3  C   LIG d   1       2.712  58.338 117.662  0.00  0.00     0.038 C 
ATOM      4  C   LIG d   1       2.611  56.942 117.757  0.00  0.00     0.028 C 
ATOM      5  C   LIG d   1       1.502  56.477 118.694  0.00  0.00    -0.047 C 
ATOM      6  C   LIG d   1       0.185  57.187 118.304  0.00  0.00     0.091 C 
ENDROOT
BRANCH   1   7
ATOM      7  O   LIG d   1      -0.705  59.334 117.529  0.00  0.00    -0.368 OA
BRANCH   7   8
ATOM      8  C   LIG d   1      -1.542  60.286 118.232  0.00  0.00     0.119 C 
BRANCH   8   9
ATOM      9  C   LIG d   1      -1.091  60.299 119.705  0.00  0.00     0.028 C 
ATOM     10  C   LIG d   1      -2.256  60.047 120.678  0.00  0.00     0.006 C 
ENDBRANCH   8   9
BRANCH   8  11
ATOM     11  C   LIG d   1      -3.004  59.830 118.259  0.00  0.00     0.028 C 
ATOM     12  C   LIG d   1      -3.632  59.762 116.858  0.00  0.00     0.006 C 
ENDBRANCH   8  11
ENDBRANCH   7   8
ENDBRANCH   1   7
BRANCH   6  13
ATOM     13  N   LIG d   1      -0.933  56.853 119.224  0.00  0.00    -0.311 N 
ATOM     14  C   LIG d   1      -2.136  56.464 118.805  0.00  0.00     0.210 C 
ATOM     15  C   LIG d   1      -3.151  56.188 119.919  0.00  0.00     0.109 C 
ATOM     16  O   LIG d   1      -2.449  56.290 117.618  0.00  0.00    -0.276 OA
ATOM     17  H   LIG d   1      -0.756  56.936 120.206  0.00  0.00     0.149 HD
ENDBRANCH   6  13
BRANCH   5  18
ATOM     18  N   LIG d   1       1.419  55.008 118.592  0.00  0.00     0.381 N 
ATOM     19  H   LIG d   1       1.331  54.609 119.506  0.00  0.00    -0.090 HD
ATOM     20  H   LIG d   1       2.266  54.662 118.178  0.00  0.00    -0.090 HD
ATOM     21  H   LIG d   1       0.637  54.749 118.032  0.00  0.00    -0.090 HD
ENDBRANCH   5  18
BRANCH   3  22
ATOM     22  C   LIG d   1       3.958  58.892 117.408  0.00  0.00     0.382 C 
ATOM     23  O   LIG d   1       4.892  58.739 118.232  0.00  0.00    -0.241 OA
ATOM     24  O   LIG d   1       4.146  59.581 116.388  0.00  0.00    -0.241 OA
ENDBRANCH   3  22
TORSDOF 7
ENDMDL
MODEL 3
REMARK VINA RESULT:      -5.0      3.400      6.683
REMARK  7 active torsions:
REMARK  status: ('A' for Active; 'I' for Inactive)
REMARK    1  A    between atoms: C_2  and  C_3 
REMARK    2  A    between atoms: C_3  and  O_6 
REMARK    3  A    between atoms: C_3  and  C_4 
REMARK    4  A    between atoms: C_7  and  O_6 
REMARK    5  A    between atoms: C_9  and  C_10 
REMARK    6  A    between atoms: N_15  and  C_14 
REMARK    7  A    between atoms: N_20  and  C_19 
REMARK       I    between atoms: C_22  and  N_20 
ROOT
ATOM      1  C   LIG d   1       0.019  91.014 117.355  0.00  0.00     0.161 C 
ATOM      2  C   LIG d   1       1.418  90.923 117.438  0.00  0.00     0.016 C 
ATOM      3  C   LIG d   1       2.204  91.750 118.274  0.00  0.00     0.038 C 
ATOM      4  C   LIG d   1       1.626  92.629 119.202  0.00  0.00     0.028 C 
ATOM      5  C   LIG d   1       0.239  93.114 118.794  0.00  0.00    -0.047 C 
ATOM      6  C   LIG d   1      -0.638  91.891 118.442  0.00  0.00     0.091 C 
ENDROOT
BRANCH   1   7
ATOM      7  O   LIG d   1      -0.558  89.694 117.360  0.00  0.00    -0.368 OA
BRANCH   7   8
ATOM      8  C   LIG d   1      -0.833  89.123 118.663  0.00  0.00     0.119 C 
BRANCH   8   9
ATOM      9  C   LIG d   1       0.034  87.858 118.807  0.00  0.00     0.028 C 
ATOM     10  C   LIG d   1       0.360  87.212 117.450  0.00  0.00     0.006 C 
ENDBRANCH   8   9
BRANCH   8  11
ATOM     11  C   LIG d   1      -2.282  88.635 118.763  0.00  0.00     0.028 C 
ATOM     12  C   LIG d   1      -2.494  87.631 119.907  0.00  0.00     0.006 C 
ENDBRANCH   8  11
ENDBRANCH   7   8
ENDBRANCH   1   7
BRANCH   6  13
ATOM     13  N   LIG d   1      -1.985  92.281 117.951  0.00  0.00    -0.311 N 
ATOM     14  C   LIG d   1      -3.062  92.336 118.732  0.00  0.00     0.210 C 
ATOM     15  C   LIG d   1      -4.357  92.743 118.021  0.00  0.00     0.109 C 
ATOM     16  O   LIG d   1      -3.062  92.118 119.953  0.00  0.00    -0.276 OA
ATOM     17  H   LIG d   1      -2.069  92.505 116.979  0.00  0.00     0.149 HD
ENDBRANCH   6  13
BRANCH   5  18
ATOM     18  N   LIG d   1      -0.301  93.910 119.912  0.00  0.00     0.381 N 
ATOM     19  H   LIG d   1      -1.267  94.113 119.747  0.00  0.00    -0.090 HD
ATOM     20  H   LIG d   1       0.199  94.780 119.964  0.00  0.00    -0.090 HD
ATOM     21  H   LIG d   1      -0.201  93.409 120.767  0.00  0.00    -0.090 HD
ENDBRANCH   5  18
BRANCH   3  22
ATOM     22  C   LIG d   1       3.585  91.730 118.157  0.00  0.00     0.382 C 
ATOM     23  O   LIG d   1       4.297  91.505 119.165  0.00  0.00    -0.241 OA
ATOM     24  O   LIG d   1       4.130  91.980 117.065  0.00  0.00    -0.241 OA
ENDBRANCH   3  22
TORSDOF 7
ENDMDL
MODEL 4
REMARK VINA RESULT:      -5.0      1.227      1.957
REMARK  7 active torsions:
REMARK  status: ('A' for Active; 'I' for Inactive)
REMARK    1  A    between atoms: C_2  and  C_3 
REMARK    2  A    between atoms: C_3  and  O_6 
REMARK    3  A    between atoms: C_3  and  C_4 
REMARK    4  A    between atoms: C_7  and  O_6 
REMARK    5  A    between atoms: C_9  and  C_10 
REMARK    6  A    between atoms: N_15  and  C_14 
REMARK    7  A    between atoms: N_20  and  C_19 
REMARK       I    between atoms: C_22  and  N_20 
ROOT
ATOM      1  C   LIG d   1      -5.098  93.212 118.651  0.00  0.00     0.161 C 
ATOM      2  C   LIG d   1      -5.357  92.138 117.784  0.00  0.00     0.016 C 
ATOM      3  C   LIG d   1      -6.398  92.144 116.828  0.00  0.00     0.038 C 
ATOM      4  C   LIG d   1      -7.162  93.292 116.570  0.00  0.00     0.028 C 
ATOM      5  C   LIG d   1      -7.268  94.230 117.767  0.00  0.00    -0.047 C 
ATOM      6  C   LIG d   1      -5.849  94.516 118.309  0.00  0.00     0.091 C 
ENDROOT
BRANCH   1   7
ATOM      7  O   LIG d   1      -3.678  93.455 118.719  0.00  0.00    -0.368 OA
BRANCH   7   8
ATOM      8  C   LIG d   1      -3.029  93.096 119.963  0.00  0.00     0.119 C 
BRANCH   8   9
ATOM      9  C   LIG d   1      -2.290  91.763 119.731  0.00  0.00     0.028 C 
ATOM     10  C   LIG d   1      -1.523  91.741 118.398  0.00  0.00     0.006 C 
ENDBRANCH   8   9
BRANCH   8  11
ATOM     11  C   LIG d   1      -4.054  92.805 121.063  0.00  0.00     0.028 C 
ATOM     12  C   LIG d   1      -3.965  93.794 122.236  0.00  0.00     0.006 C 
ENDBRANCH   8  11
ENDBRANCH   7   8
ENDBRANCH   1   7
BRANCH   6  13
ATOM     13  N   LIG d   1      -5.868  95.358 119.533  0.00  0.00    -0.311 N 
ATOM     14  C   LIG d   1      -5.061  96.402 119.718  0.00  0.00     0.210 C 
ATOM     15  C   LIG d   1      -5.232  97.122 121.059  0.00  0.00     0.109 C 
ATOM     16  O   LIG d   1      -4.242  96.818 118.885  0.00  0.00    -0.276 OA
ATOM     17  H   LIG d   1      -6.524  95.110 120.248  0.00  0.00     0.149 HD
ENDBRANCH   6  13
BRANCH   5  18
ATOM     18  N   LIG d   1      -7.972  95.447 117.319  0.00  0.00     0.381 N 
ATOM     19  H   LIG d   1      -7.359  96.235 117.383  0.00  0.00    -0.090 HD
ATOM     20  H   LIG d   1      -8.758  95.609 117.924  0.00  0.00    -0.090 HD
ATOM     21  H   LIG d   1      -8.284  95.334 116.380  0.00  0.00    -0.090 HD
ENDBRANCH   5  18
BRANCH   3  22
ATOM     22  C   LIG d   1      -6.711  90.978 116.145  0.00  0.00     0.382 C 
ATOM     23  O   LIG d   1      -5.799  90.187 115.805  0.00  0.00    -0.241 OA
ATOM     24  O   LIG d   1      -7.889  90.729 115.826  0.00  0.00    -0.241 OA
ENDBRANCH   3  22
TORSDOF 7
ENDMDL
MODEL 5
REMARK VINA RESULT:      -4.9     33.325     35.073
REMARK  7 active torsions:
REMARK  status: ('A' for Active; 'I' for Inactive)
REMARK    1  A    between atoms: C_2  and  C_3 
REMARK    2  A    between atoms: C_3  and  O_6 
REMARK    3  A    between atoms: C_3  and  C_4 
REMARK    4  A    between atoms: C_7  and  O_6 
REMARK    5  A    between atoms: C_9  and  C_10 
REMARK    6  A    between atoms: N_15  and  C_14 
REMARK    7  A    between atoms: N_20  and  C_19 
REMARK       I    between atoms: C_22  and  N_20 
ROOT
ATOM      1  C   LIG d   1       0.445  58.353 117.976  0.00  0.00     0.161 C 
ATOM      2  C   LIG d   1       1.729  58.471 117.419  0.00  0.00     0.016 C 
ATOM      3  C   LIG d   1       2.882  58.770 118.180  0.00  0.00     0.038 C 
ATOM      4  C   LIG d   1       2.853  58.822 119.581  0.00  0.00     0.028 C 
ATOM      5  C   LIG d   1       1.490  59.208 120.145  0.00  0.00    -0.047 C 
ATOM      6  C   LIG d   1       0.411  58.296 119.518  0.00  0.00     0.091 C 
ENDROOT
BRANCH   1   7
ATOM      7  O   LIG d   1      -0.226  57.206 117.418  0.00  0.00    -0.368 OA
BRANCH   7   8
ATOM      8  C   LIG d   1      -1.265  57.485 116.448  0.00  0.00     0.119 C 
BRANCH   8   9
ATOM      9  C   LIG d   1      -1.462  59.012 116.406  0.00  0.00     0.028 C 
ATOM     10  C   LIG d   1      -2.927  59.422 116.636  0.00  0.00     0.006 C 
ENDBRANCH   8   9
BRANCH   8  11
ATOM     11  C   LIG d   1      -2.614  56.914 116.896  0.00  0.00     0.028 C 
ATOM     12  C   LIG d   1      -2.489  55.960 118.095  0.00  0.00     0.006 C 
ENDBRANCH   8  11
ENDBRANCH   7   8
ENDBRANCH   1   7
BRANCH   6  13
ATOM     13  N   LIG d   1      -0.962  58.662 119.952  0.00  0.00    -0.311 N 
ATOM     14  C   LIG d   1      -1.462  59.892 119.844  0.00  0.00     0.210 C 
ATOM     15  C   LIG d   1      -2.891  60.058 120.370  0.00  0.00     0.109 C 
ATOM     16  O   LIG d   1      -0.868  60.854 119.334  0.00  0.00    -0.276 OA
ATOM     17  H   LIG d   1      -1.524  57.935 120.348  0.00  0.00     0.149 HD
ENDBRANCH   6  13
BRANCH   5  18
ATOM     18  N   LIG d   1       1.565  59.089 121.614  0.00  0.00     0.381 N 
ATOM     19  H   LIG d   1       1.883  58.174 121.863  0.00  0.00    -0.090 HD
ATOM     20  H   LIG d   1       0.646  59.219 121.998  0.00  0.00    -0.090 HD
ATOM     21  H   LIG d   1       2.186  59.776 121.980  0.00  0.00    -0.090 HD
ENDBRANCH   5  18
BRANCH   3  22
ATOM     22  C   LIG d   1       4.075  59.060 117.535  0.00  0.00     0.382 C 
ATOM     23  O   LIG d   1       5.166  58.905 118.134  0.00  0.00    -0.241 OA
ATOM     24  O   LIG d   1       4.071  59.517 116.376  0.00  0.00    -0.241 OA
ENDBRANCH   3  22
TORSDOF 7
ENDMDL
MODEL 6
REMARK VINA RESULT:      -4.9      1.855      2.831
REMARK  7 active torsions:
REMARK  status: ('A' for Active; 'I' for Inactive)
REMARK    1  A    between atoms: C_2  and  C_3 
REMARK    2  A    between atoms: C_3  and  O_6 
REMARK    3  A    between atoms: C_3  and  C_4 
REMARK    4  A    between atoms: C_7  and  O_6 
REMARK    5  A    between atoms: C_9  and  C_10 
REMARK    6  A    between atoms: N_15  and  C_14 
REMARK    7  A    between atoms: N_20  and  C_19 
REMARK       I    between atoms: C_22  and  N_20 
ROOT
ATOM      1  C   LIG d   1      -5.365  93.949 118.961  0.00  0.00     0.161 C 
ATOM      2  C   LIG d   1      -5.063  92.775 118.252  0.00  0.00     0.016 C 
ATOM      3  C   LIG d   1      -5.878  92.257 117.220  0.00  0.00     0.038 C 
ATOM      4  C   LIG d   1      -6.981  92.966 116.721  0.00  0.00     0.028 C 
ATOM      5  C   LIG d   1      -7.611  93.906 117.743  0.00  0.00    -0.047 C 
ATOM      6  C   LIG d   1      -6.505  94.795 118.356  0.00  0.00     0.091 C 
ENDROOT
BRANCH   1   7
ATOM      7  O   LIG d   1      -4.175  94.748 119.113  0.00  0.00    -0.368 OA
BRANCH   7   8
ATOM      8  C   LIG d   1      -3.520  94.677 120.403  0.00  0.00     0.119 C 
BRANCH   8   9
ATOM      9  C   LIG d   1      -3.063  96.102 120.771  0.00  0.00     0.028 C 
ATOM     10  C   LIG d   1      -3.828  97.183 119.988  0.00  0.00     0.006 C 
ENDBRANCH   8   9
BRANCH   8  11
ATOM     11  C   LIG d   1      -2.235  93.845 120.331  0.00  0.00     0.028 C 
ATOM     12  C   LIG d   1      -2.425  92.410 120.846  0.00  0.00     0.006 C 
ENDBRANCH   8  11
ENDBRANCH   7   8
ENDBRANCH   1   7
BRANCH   6  13
ATOM     13  N   LIG d   1      -7.022  95.686 119.427  0.00  0.00    -0.311 N 
ATOM     14  C   LIG d   1      -7.431  96.934 119.208  0.00  0.00     0.210 C 
ATOM     15  C   LIG d   1      -7.908  97.686 120.454  0.00  0.00     0.109 C 
ATOM     16  O   LIG d   1      -7.475  97.479 118.095  0.00  0.00    -0.276 OA
ATOM     17  H   LIG d   1      -7.050  95.313 120.356  0.00  0.00     0.149 HD
ENDBRANCH   6  13
BRANCH   5  18
ATOM     18  N   LIG d   1      -8.659  94.680 117.052  0.00  0.00     0.381 N 
ATOM     19  H   LIG d   1      -9.129  94.096 116.389  0.00  0.00    -0.090 HD
ATOM     20  H   LIG d   1      -8.227  95.438 116.553  0.00  0.00    -0.090 HD
ATOM     21  H   LIG d   1      -9.312  95.037 117.714  0.00  0.00    -0.090 HD
ENDBRANCH   5  18
BRANCH   3  22
ATOM     22  C   LIG d   1      -5.616  90.998 116.703  0.00  0.00     0.382 C 
ATOM     23  O   LIG d   1      -4.474  90.494 116.829  0.00  0.00    -0.241 OA
ATOM     24  O   LIG d   1      -6.494  90.377 116.074  0.00  0.00    -0.241 OA
ENDBRANCH   3  22
TORSDOF 7
ENDMDL
MODEL 7
REMARK VINA RESULT:      -4.9      2.600      4.516
REMARK  7 active torsions:
REMARK  status: ('A' for Active; 'I' for Inactive)
REMARK    1  A    between atoms: C_2  and  C_3 
REMARK    2  A    between atoms: C_3  and  O_6 
REMARK    3  A    between atoms: C_3  and  C_4 
REMARK    4  A    between atoms: C_7  and  O_6 
REMARK    5  A    between atoms: C_9  and  C_10 
REMARK    6  A    between atoms: N_15  and  C_14 
REMARK    7  A    between atoms: N_20  and  C_19 
REMARK       I    between atoms: C_22  and  N_20 
ROOT
ATOM      1  C   LIG d   1      -4.414  93.913 118.693  0.00  0.00     0.161 C 
ATOM      2  C   LIG d   1      -5.636  94.598 118.587  0.00  0.00     0.016 C 
ATOM      3  C   LIG d   1      -6.736  94.117 117.841  0.00  0.00     0.038 C 
ATOM      4  C   LIG d   1      -6.741  92.836 117.270  0.00  0.00     0.028 C 
ATOM      5  C   LIG d   1      -5.348  92.321 116.925  0.00  0.00    -0.047 C 
ATOM      6  C   LIG d   1      -4.439  92.462 118.168  0.00  0.00     0.091 C 
ENDROOT
BRANCH   1   7
ATOM      7  O   LIG d   1      -3.953  93.945 120.058  0.00  0.00    -0.368 OA
BRANCH   7   8
ATOM      8  C   LIG d   1      -4.363  92.836 120.895  0.00  0.00     0.119 C 
BRANCH   8   9
ATOM      9  C   LIG d   1      -5.278  93.402 121.998  0.00  0.00     0.028 C 
ATOM     10  C   LIG d   1      -6.757  93.042 121.776  0.00  0.00     0.006 C 
ENDBRANCH   8   9
BRANCH   8  11
ATOM     11  C   LIG d   1      -3.169  92.223 121.634  0.00  0.00     0.028 C 
ATOM     12  C   LIG d   1      -1.833  92.878 121.251  0.00  0.00     0.006 C 
ENDBRANCH   8  11
ENDBRANCH   7   8
ENDBRANCH   1   7
BRANCH   6  13
ATOM     13  N   LIG d   1      -3.035  92.059 117.893  0.00  0.00    -0.311 N 
ATOM     14  C   LIG d   1      -2.589  90.813 118.037  0.00  0.00     0.210 C 
ATOM     15  C   LIG d   1      -1.103  90.618 117.719  0.00  0.00     0.109 C 
ATOM     16  O   LIG d   1      -3.289  89.844 118.367  0.00  0.00    -0.276 OA
ATOM     17  H   LIG d   1      -2.406  92.777 117.590  0.00  0.00     0.149 HD
ENDBRANCH   6  13
BRANCH   5  18
ATOM     18  N   LIG d   1      -5.488  90.926 116.468  0.00  0.00     0.381 N 
ATOM     19  H   LIG d   1      -4.584  90.527 116.313  0.00  0.00    -0.090 HD
ATOM     20  H   LIG d   1      -5.989  90.918 115.597  0.00  0.00    -0.090 HD
ATOM     21  H   LIG d   1      -5.983  90.392 117.148  0.00  0.00    -0.090 HD
ENDBRANCH   5  18
BRANCH   3  22
ATOM     22  C   LIG d   1      -7.833  94.938 117.627  0.00  0.00     0.382 C 
ATOM     23  O   LIG d   1      -7.676  96.177 117.510  0.00  0.00    -0.241 OA
ATOM     24  O   LIG d   1      -8.983  94.459 117.594  0.00  0.00    -0.241 OA
ENDBRANCH   3  22
TORSDOF 7
ENDMDL
MODEL 8
REMARK VINA RESULT:      -4.9      2.409      4.744
REMARK  7 active torsions:
REMARK  status: ('A' for Active; 'I' for Inactive)
REMARK    1  A    between atoms: C_2  and  C_3 
REMARK    2  A    between atoms: C_3  and  O_6 
REMARK    3  A    between atoms: C_3  and  C_4 
REMARK    4  A    between atoms: C_7  and  O_6 
REMARK    5  A    between atoms: C_9  and  C_10 
REMARK    6  A    between atoms: N_15  and  C_14 
REMARK    7  A    between atoms: N_20  and  C_19 
REMARK       I    between atoms: C_22  and  N_20 
ROOT
ATOM      1  C   LIG d   1      -6.827  94.287 117.732  0.00  0.00     0.161 C 
ATOM      2  C   LIG d   1      -7.208  93.059 117.165  0.00  0.00     0.016 C 
ATOM      3  C   LIG d   1      -6.353  91.936 117.096  0.00  0.00     0.038 C 
ATOM      4  C   LIG d   1      -5.101  91.916 117.730  0.00  0.00     0.028 C 
ATOM      5  C   LIG d   1      -4.475  93.299 117.877  0.00  0.00    -0.047 C 
ATOM      6  C   LIG d   1      -5.506  94.250 118.528  0.00  0.00     0.091 C 
ENDROOT
BRANCH   1   7
ATOM      7  O   LIG d   1      -7.894  94.796 118.557  0.00  0.00    -0.368 OA
BRANCH   7   8
ATOM      8  C   LIG d   1      -7.736  94.616 119.986  0.00  0.00     0.119 C 
BRANCH   8   9
ATOM      9  C   LIG d   1      -8.787  93.585 120.442  0.00  0.00     0.028 C 
ATOM     10  C   LIG d   1      -8.333  92.793 121.679  0.00  0.00     0.006 C 
ENDBRANCH   8   9
BRANCH   8  11
ATOM     11  C   LIG d   1      -8.071  95.901 120.750  0.00  0.00     0.028 C 
ATOM     12  C   LIG d   1      -8.153  97.133 119.835  0.00  0.00     0.006 C 
ENDBRANCH   8  11
ENDBRANCH   7   8
ENDBRANCH   1   7
BRANCH   6  13
ATOM     13  N   LIG d   1      -5.004  95.645 118.631  0.00  0.00    -0.311 N 
ATOM     14  C   LIG d   1      -4.386  96.124 119.710  0.00  0.00     0.210 C 
ATOM     15  C   LIG d   1      -3.967  97.594 119.615  0.00  0.00     0.109 C 
ATOM     16  O   LIG d   1      -4.118  95.462 120.723  0.00  0.00    -0.276 OA
ATOM     17  H   LIG d   1      -5.152  96.243 117.842  0.00  0.00     0.149 HD
ENDBRANCH   6  13
BRANCH   5  18
ATOM     18  N   LIG d   1      -3.243  93.148 118.674  0.00  0.00     0.381 N 
ATOM     19  H   LIG d   1      -2.800  94.039 118.785  0.00  0.00    -0.090 HD
ATOM     20  H   LIG d   1      -2.611  92.541 118.183  0.00  0.00    -0.090 HD
ATOM     21  H   LIG d   1      -3.460  92.764 119.567  0.00  0.00    -0.090 HD
ENDBRANCH   5  18
BRANCH   3  22
ATOM     22  C   LIG d   1      -6.731  90.828 116.353  0.00  0.00     0.382 C 
ATOM     23  O   LIG d   1      -5.858  90.097 115.828  0.00  0.00    -0.241 OA
ATOM     24  O   LIG d   1      -7.936  90.577 116.163  0.00  0.00    -0.241 OA
ENDBRANCH   3  22
TORSDOF 7
ENDMDL
MODEL 9
REMARK VINA RESULT:      -4.8      2.310      4.432
REMARK  7 active torsions:
REMARK  status: ('A' for Active; 'I' for Inactive)
REMARK    1  A    between atoms: C_2  and  C_3 
REMARK    2  A    between atoms: C_3  and  O_6 
REMARK    3  A    between atoms: C_3  and  C_4 
REMARK    4  A    between atoms: C_7  and  O_6 
REMARK    5  A    between atoms: C_9  and  C_10 
REMARK    6  A    between atoms: N_15  and  C_14 
REMARK    7  A    between atoms: N_20  and  C_19 
REMARK       I    between atoms: C_22  and  N_20 
ROOT
ATOM      1  C   LIG d   1      -4.419  93.778 118.724  0.00  0.00     0.161 C 
ATOM      2  C   LIG d   1      -5.627  94.487 118.610  0.00  0.00     0.016 C 
ATOM      3  C   LIG d   1      -6.715  94.048 117.822  0.00  0.00     0.038 C 
ATOM      4  C   LIG d   1      -6.726  92.786 117.210  0.00  0.00     0.028 C 
ATOM      5  C   LIG d   1      -5.333  92.259 116.884  0.00  0.00    -0.047 C 
ATOM      6  C   LIG d   1      -4.454  92.345 118.153  0.00  0.00     0.091 C 
ENDROOT
BRANCH   1   7
ATOM      7  O   LIG d   1      -3.992  93.758 120.101  0.00  0.00    -0.368 OA
BRANCH   7   8
ATOM      8  C   LIG d   1      -2.833  94.567 120.420  0.00  0.00     0.119 C 
BRANCH   8   9
ATOM      9  C   LIG d   1      -1.698  93.608 120.829  0.00  0.00     0.028 C 
ATOM     10  C   LIG d   1      -0.548  93.592 119.808  0.00  0.00     0.006 C 
ENDBRANCH   8   9
BRANCH   8  11
ATOM     11  C   LIG d   1      -3.087  95.443 121.651  0.00  0.00     0.028 C 
ATOM     12  C   LIG d   1      -4.128  96.544 121.394  0.00  0.00     0.006 C 
ENDBRANCH   8  11
ENDBRANCH   7   8
ENDBRANCH   1   7
BRANCH   6  13
ATOM     13  N   LIG d   1      -3.051  91.927 117.900  0.00  0.00    -0.311 N 
ATOM     14  C   LIG d   1      -2.626  90.671 118.026  0.00  0.00     0.210 C 
ATOM     15  C   LIG d   1      -1.136  90.461 117.737  0.00  0.00     0.109 C 
ATOM     16  O   LIG d   1      -3.348  89.706 118.319  0.00  0.00    -0.276 OA
ATOM     17  H   LIG d   1      -2.404  92.641 117.628  0.00  0.00     0.149 HD
ENDBRANCH   6  13
BRANCH   5  18
ATOM     18  N   LIG d   1      -5.485  90.881 116.379  0.00  0.00     0.381 N 
ATOM     19  H   LIG d   1      -4.967  90.249 116.956  0.00  0.00    -0.090 HD
ATOM     20  H   LIG d   1      -5.112  90.834 115.447  0.00  0.00    -0.090 HD
ATOM     21  H   LIG d   1      -6.448  90.624 116.372  0.00  0.00    -0.090 HD
ENDBRANCH   5  18
BRANCH   3  22
ATOM     22  C   LIG d   1      -7.793  94.894 117.608  0.00  0.00     0.382 C 
ATOM     23  O   LIG d   1      -7.617  96.135 117.563  0.00  0.00    -0.241 OA
ATOM     24  O   LIG d   1      -8.946  94.434 117.502  0.00  0.00    -0.241 OA
ENDBRANCH   3  22
TORSDOF 7
ENDMDL
