MODEL 1
REMARK VINA RESULT:      -5.0      0.000      0.000
REMARK  7 active torsions:
REMARK  status: ('A' for Active; 'I' for Inactive)
REMARK    1  A    between atoms: C_2  and  C_3 
REMARK    2  A    between atoms: C_3  and  O_6 
REMARK    3  A    between atoms: C_3  and  C_4 
REMARK    4  A    between atoms: C_7  and  O_6 
REMARK    5  A    between atoms: C_9  and  C_10 
REMARK    6  A    between atoms: N_15  and  C_14 
REMARK    7  A    between atoms: N_20  and  C_19 
REMARK       I    between atoms: C_22  and  N_20 
ROOT
ATOM      1  C   LIG d   1      -7.805  75.535 118.092  0.00  0.00     0.161 C 
ATOM      2  C   LIG d   1      -9.189  75.558 118.332  0.00  0.00     0.016 C 
ATOM      3  C   LIG d   1      -9.918  76.746 118.570  0.00  0.00     0.038 C 
ATOM      4  C   LIG d   1      -9.334  78.014 118.434  0.00  0.00     0.028 C 
ATOM      5  C   LIG d   1      -7.830  78.019 118.690  0.00  0.00    -0.047 C 
ATOM      6  C   LIG d   1      -7.171  76.917 117.830  0.00  0.00     0.091 C 
ENDROOT
BRANCH   1   7
ATOM      7  O   LIG d   1      -7.513  74.635 117.006  0.00  0.00    -0.368 OA
BRANCH   7   8
ATOM      8  C   LIG d   1      -6.941  73.355 117.374  0.00  0.00     0.119 C 
BRANCH   8   9
ATOM      9  C   LIG d   1      -5.781  73.070 116.400  0.00  0.00     0.028 C 
ATOM     10  C   LIG d   1      -4.465  73.729 116.845  0.00  0.00     0.006 C 
ENDBRANCH   8   9
BRANCH   8  11
ATOM     11  C   LIG d   1      -7.941  72.215 117.159  0.00  0.00     0.028 C 
ATOM     12  C   LIG d   1      -7.349  70.835 117.485  0.00  0.00     0.006 C 
ENDBRANCH   8  11
ENDBRANCH   7   8
ENDBRANCH   1   7
BRANCH   6  13
ATOM     13  N   LIG d   1      -5.712  76.797 118.083  0.00  0.00    -0.311 N 
ATOM     14  C   LIG d   1      -4.791  77.478 117.402  0.00  0.00     0.210 C 
ATOM     15  C   LIG d   1      -3.342  77.191 117.809  0.00  0.00     0.109 C 
ATOM     16  O   LIG d   1      -5.039  78.315 116.522  0.00  0.00    -0.276 OA
ATOM     17  H   LIG d   1      -5.424  76.163 118.802  0.00  0.00     0.149 HD
ENDBRANCH   6  13
BRANCH   5  18
ATOM     18  N   LIG d   1      -7.330  79.371 118.379  0.00  0.00     0.381 N 
ATOM     19  H   LIG d   1      -7.852  79.760 117.620  0.00  0.00    -0.090 HD
ATOM     20  H   LIG d   1      -6.367  79.305 118.099  0.00  0.00    -0.090 HD
ATOM     21  H   LIG d   1      -7.410  79.957 119.181  0.00  0.00    -0.090 HD
ENDBRANCH   5  18
BRANCH   3  22
ATOM     22  C   LIG d   1     -11.238  76.671 118.988  0.00  0.00     0.382 C 
ATOM     23  O   LIG d   1     -11.616  77.323 119.991  0.00  0.00    -0.241 OA
ATOM     24  O   LIG d   1     -12.045  75.925 118.402  0.00  0.00    -0.241 OA
ENDBRANCH   3  22
TORSDOF 7
ENDMDL
MODEL 2
REMARK VINA RESULT:      -4.9      1.495      2.376
REMARK  7 active torsions:
REMARK  status: ('A' for Active; 'I' for Inactive)
REMARK    1  A    between atoms: C_2  and  C_3 
REMARK    2  A    between atoms: C_3  and  O_6 
REMARK    3  A    between atoms: C_3  and  C_4 
REMARK    4  A    between atoms: C_7  and  O_6 
REMARK    5  A    between atoms: C_9  and  C_10 
REMARK    6  A    between atoms: N_15  and  C_14 
REMARK    7  A    between atoms: N_20  and  C_19 
REMARK       I    between atoms: C_22  and  N_20 
ROOT
ATOM      1  C   LIG d   1      -7.787  74.634 117.720  0.00  0.00     0.161 C 
ATOM      2  C   LIG d   1      -9.149  74.508 117.402  0.00  0.00     0.016 C 
ATOM      3  C   LIG d   1     -10.156  75.334 117.950  0.00  0.00     0.038 C 
ATOM      4  C   LIG d   1      -9.849  76.449 118.745  0.00  0.00     0.028 C 
ATOM      5  C   LIG d   1      -8.530  76.311 119.498  0.00  0.00    -0.047 C 
ATOM      6  C   LIG d   1      -7.420  75.915 118.498  0.00  0.00     0.091 C 
ENDROOT
BRANCH   1   7
ATOM      7  O   LIG d   1      -6.993  74.532 116.521  0.00  0.00    -0.368 OA
BRANCH   7   8
ATOM      8  C   LIG d   1      -6.209  73.322 116.377  0.00  0.00     0.119 C 
BRANCH   8   9
ATOM      9  C   LIG d   1      -6.634  72.358 117.501  0.00  0.00     0.028 C 
ATOM     10  C   LIG d   1      -7.318  71.091 116.959  0.00  0.00     0.006 C 
ENDBRANCH   8   9
BRANCH   8  11
ATOM     11  C   LIG d   1      -4.720  73.592 116.617  0.00  0.00     0.028 C 
ATOM     12  C   LIG d   1      -4.193  74.786 115.806  0.00  0.00     0.006 C 
ENDBRANCH   8  11
ENDBRANCH   7   8
ENDBRANCH   1   7
BRANCH   6  13
ATOM     13  N   LIG d   1      -6.114  75.677 119.167  0.00  0.00    -0.311 N 
ATOM     14  C   LIG d   1      -5.043  76.446 118.978  0.00  0.00     0.210 C 
ATOM     15  C   LIG d   1      -3.792  76.013 119.748  0.00  0.00     0.109 C 
ATOM     16  O   LIG d   1      -5.020  77.465 118.271  0.00  0.00    -0.276 OA
ATOM     17  H   LIG d   1      -6.053  74.889 119.782  0.00  0.00     0.149 HD
ENDBRANCH   6  13
BRANCH   5  18
ATOM     18  N   LIG d   1      -8.267  77.596 120.175  0.00  0.00     0.381 N 
ATOM     19  H   LIG d   1      -7.578  78.112 119.665  0.00  0.00    -0.090 HD
ATOM     20  H   LIG d   1      -7.907  77.411 121.094  0.00  0.00    -0.090 HD
ATOM     21  H   LIG d   1      -9.109  78.125 120.240  0.00  0.00    -0.090 HD
ENDBRANCH   5  18
BRANCH   3  22
ATOM     22  C   LIG d   1     -11.491  75.025 117.738  0.00  0.00     0.382 C 
ATOM     23  O   LIG d   1     -12.388  75.789 118.168  0.00  0.00    -0.241 OA
ATOM     24  O   LIG d   1     -11.810  73.969 117.160  0.00  0.00    -0.241 OA
ENDBRANCH   3  22
TORSDOF 7
ENDMDL
MODEL 3
REMARK VINA RESULT:      -4.8      2.418      4.459
REMARK  7 active torsions:
REMARK  status: ('A' for Active; 'I' for Inactive)
REMARK    1  A    between atoms: C_2  and  C_3 
REMARK    2  A    between atoms: C_3  and  O_6 
REMARK    3  A    between atoms: C_3  and  C_4 
REMARK    4  A    between atoms: C_7  and  O_6 
REMARK    5  A    between atoms: C_9  and  C_10 
REMARK    6  A    between atoms: N_15  and  C_14 
REMARK    7  A    between atoms: N_20  and  C_19 
REMARK       I    between atoms: C_22  and  N_20 
ROOT
ATOM      1  C   LIG d   1      -7.163  75.530 116.528  0.00  0.00     0.161 C 
ATOM      2  C   LIG d   1      -8.531  75.299 116.753  0.00  0.00     0.016 C 
ATOM      3  C   LIG d   1      -9.063  74.027 117.069  0.00  0.00     0.038 C 
ATOM      4  C   LIG d   1      -8.239  72.923 117.331  0.00  0.00     0.028 C 
ATOM      5  C   LIG d   1      -6.891  72.991 116.622  0.00  0.00    -0.047 C 
ATOM      6  C   LIG d   1      -6.237  74.359 116.918  0.00  0.00     0.091 C 
ENDROOT
BRANCH   1   7
ATOM      7  O   LIG d   1      -6.755  76.738 117.199  0.00  0.00    -0.368 OA
BRANCH   7   8
ATOM      8  C   LIG d   1      -7.526  77.109 118.368  0.00  0.00     0.119 C 
BRANCH   8   9
ATOM      9  C   LIG d   1      -7.770  78.629 118.298  0.00  0.00     0.028 C 
ATOM     10  C   LIG d   1      -9.262  78.990 118.407  0.00  0.00     0.006 C 
ENDBRANCH   8   9
BRANCH   8  11
ATOM     11  C   LIG d   1      -6.728  76.886 119.656  0.00  0.00     0.028 C 
ATOM     12  C   LIG d   1      -7.042  75.539 120.326  0.00  0.00     0.006 C 
ENDBRANCH   8  11
ENDBRANCH   7   8
ENDBRANCH   1   7
BRANCH   6  13
ATOM     13  N   LIG d   1      -4.952  74.542 116.194  0.00  0.00    -0.311 N 
ATOM     14  C   LIG d   1      -3.793  74.780 116.806  0.00  0.00     0.210 C 
ATOM     15  C   LIG d   1      -2.592  74.956 115.870  0.00  0.00     0.109 C 
ATOM     16  O   LIG d   1      -3.639  74.829 118.035  0.00  0.00    -0.276 OA
ATOM     17  H   LIG d   1      -4.980  74.487 115.195  0.00  0.00     0.149 HD
ENDBRANCH   6  13
BRANCH   5  18
ATOM     18  N   LIG d   1      -6.082  71.850 117.091  0.00  0.00     0.381 N 
ATOM     19  H   LIG d   1      -6.622  71.009 117.040  0.00  0.00    -0.090 HD
ATOM     20  H   LIG d   1      -5.828  72.004 118.051  0.00  0.00    -0.090 HD
ATOM     21  H   LIG d   1      -5.262  71.761 116.532  0.00  0.00    -0.090 HD
ENDBRANCH   5  18
BRANCH   3  22
ATOM     22  C   LIG d   1     -10.437  73.843 117.086  0.00  0.00     0.382 C 
ATOM     23  O   LIG d   1     -11.185  74.741 117.544  0.00  0.00    -0.241 OA
ATOM     24  O   LIG d   1     -10.936  72.772 116.691  0.00  0.00    -0.241 OA
ENDBRANCH   3  22
TORSDOF 7
ENDMDL
MODEL 4
REMARK VINA RESULT:      -4.6      2.171      3.138
REMARK  7 active torsions:
REMARK  status: ('A' for Active; 'I' for Inactive)
REMARK    1  A    between atoms: C_2  and  C_3 
REMARK    2  A    between atoms: C_3  and  O_6 
REMARK    3  A    between atoms: C_3  and  C_4 
REMARK    4  A    between atoms: C_7  and  O_6 
REMARK    5  A    between atoms: C_9  and  C_10 
REMARK    6  A    between atoms: N_15  and  C_14 
REMARK    7  A    between atoms: N_20  and  C_19 
REMARK       I    between atoms: C_22  and  N_20 
ROOT
ATOM      1  C   LIG d   1      -7.078  78.116 117.968  0.00  0.00     0.161 C 
ATOM      2  C   LIG d   1      -8.184  77.276 118.182  0.00  0.00     0.016 C 
ATOM      3  C   LIG d   1      -9.481  77.758 118.473  0.00  0.00     0.038 C 
ATOM      4  C   LIG d   1      -9.794  79.124 118.420  0.00  0.00     0.028 C 
ATOM      5  C   LIG d   1      -8.601  80.030 118.705  0.00  0.00    -0.047 C 
ATOM      6  C   LIG d   1      -7.423  79.610 117.797  0.00  0.00     0.091 C 
ENDROOT
BRANCH   1   7
ATOM      7  O   LIG d   1      -6.318  77.644 116.838  0.00  0.00    -0.368 OA
BRANCH   7   8
ATOM      8  C   LIG d   1      -5.587  76.409 117.032  0.00  0.00     0.119 C 
BRANCH   8   9
ATOM      9  C   LIG d   1      -4.129  76.660 116.601  0.00  0.00     0.028 C 
ATOM     10  C   LIG d   1      -3.760  78.153 116.623  0.00  0.00     0.006 C 
ENDBRANCH   8   9
BRANCH   8  11
ATOM     11  C   LIG d   1      -6.100  75.305 116.102  0.00  0.00     0.028 C 
ATOM     12  C   LIG d   1      -6.737  74.132 116.864  0.00  0.00     0.006 C 
ENDBRANCH   8  11
ENDBRANCH   7   8
ENDBRANCH   1   7
BRANCH   6  13
ATOM     13  N   LIG d   1      -6.189  80.391 118.071  0.00  0.00    -0.311 N 
ATOM     14  C   LIG d   1      -5.837  81.472 117.377  0.00  0.00     0.210 C 
ATOM     15  C   LIG d   1      -4.516  82.117 117.811  0.00  0.00     0.109 C 
ATOM     16  O   LIG d   1      -6.508  81.977 116.465  0.00  0.00    -0.276 OA
ATOM     17  H   LIG d   1      -5.601  80.070 118.815  0.00  0.00     0.149 HD
ENDBRANCH   6  13
BRANCH   5  18
ATOM     18  N   LIG d   1      -9.036  81.422 118.481  0.00  0.00     0.381 N 
ATOM     19  H   LIG d   1      -9.759  81.444 117.790  0.00  0.00    -0.090 HD
ATOM     20  H   LIG d   1      -8.256  81.955 118.139  0.00  0.00    -0.090 HD
ATOM     21  H   LIG d   1      -9.368  81.817 119.333  0.00  0.00    -0.090 HD
ENDBRANCH   5  18
BRANCH   3  22
ATOM     22  C   LIG d   1     -10.472  76.869 118.860  0.00  0.00     0.382 C 
ATOM     23  O   LIG d   1     -10.248  75.635 118.848  0.00  0.00    -0.241 OA
ATOM     24  O   LIG d   1     -11.603  77.284 119.180  0.00  0.00    -0.241 OA
ENDBRANCH   3  22
TORSDOF 7
ENDMDL
MODEL 5
REMARK VINA RESULT:      -4.6      2.467      3.355
REMARK  7 active torsions:
REMARK  status: ('A' for Active; 'I' for Inactive)
REMARK    1  A    between atoms: C_2  and  C_3 
REMARK    2  A    between atoms: C_3  and  O_6 
REMARK    3  A    between atoms: C_3  and  C_4 
REMARK    4  A    between atoms: C_7  and  O_6 
REMARK    5  A    between atoms: C_9  and  C_10 
REMARK    6  A    between atoms: N_15  and  C_14 
REMARK    7  A    between atoms: N_20  and  C_19 
REMARK       I    between atoms: C_22  and  N_20 
ROOT
ATOM      1  C   LIG d   1      -8.750  77.630 119.258  0.00  0.00     0.161 C 
ATOM      2  C   LIG d   1      -9.717  76.952 120.017  0.00  0.00     0.016 C 
ATOM      3  C   LIG d   1     -10.846  77.586 120.585  0.00  0.00     0.038 C 
ATOM      4  C   LIG d   1     -11.166  78.922 120.303  0.00  0.00     0.028 C 
ATOM      5  C   LIG d   1      -9.950  79.775 119.956  0.00  0.00    -0.047 C 
ATOM      6  C   LIG d   1      -9.140  79.066 118.847  0.00  0.00     0.091 C 
ENDROOT
BRANCH   1   7
ATOM      7  O   LIG d   1      -8.407  76.852 118.094  0.00  0.00    -0.368 OA
BRANCH   7   8
ATOM      8  C   LIG d   1      -8.503  75.414 118.239  0.00  0.00     0.119 C 
BRANCH   8   9
ATOM      9  C   LIG d   1      -7.071  74.868 118.399  0.00  0.00     0.028 C 
ATOM     10  C   LIG d   1      -6.875  73.517 117.690  0.00  0.00     0.006 C 
ENDBRANCH   8   9
BRANCH   8  11
ATOM     11  C   LIG d   1      -9.046  74.761 116.964  0.00  0.00     0.028 C 
ATOM     12  C   LIG d   1     -10.503  74.293 117.107  0.00  0.00     0.006 C 
ENDBRANCH   8  11
ENDBRANCH   7   8
ENDBRANCH   1   7
BRANCH   6  13
ATOM     13  N   LIG d   1      -7.888  79.792 118.507  0.00  0.00    -0.311 N 
ATOM     14  C   LIG d   1      -7.819  80.733 117.566  0.00  0.00     0.210 C 
ATOM     15  C   LIG d   1      -6.429  81.341 117.361  0.00  0.00     0.109 C 
ATOM     16  O   LIG d   1      -8.785  81.144 116.905  0.00  0.00    -0.276 OA
ATOM     17  H   LIG d   1      -7.064  79.543 119.017  0.00  0.00     0.149 HD
ENDBRANCH   6  13
BRANCH   5  18
ATOM     18  N   LIG d   1     -10.441  81.106 119.551  0.00  0.00     0.381 N 
ATOM     19  H   LIG d   1      -9.943  81.817 120.050  0.00  0.00    -0.090 HD
ATOM     20  H   LIG d   1     -11.415  81.179 119.787  0.00  0.00    -0.090 HD
ATOM     21  H   LIG d   1     -10.318  81.231 118.571  0.00  0.00    -0.090 HD
ENDBRANCH   5  18
BRANCH   3  22
ATOM     22  C   LIG d   1     -11.648  76.891 121.478  0.00  0.00     0.382 C 
ATOM     23  O   LIG d   1     -12.799  77.312 121.745  0.00  0.00    -0.241 OA
ATOM     24  O   LIG d   1     -11.218  75.873 122.053  0.00  0.00    -0.241 OA
ENDBRANCH   3  22
TORSDOF 7
ENDMDL
MODEL 6
REMARK VINA RESULT:      -4.6      2.972      5.619
REMARK  7 active torsions:
REMARK  status: ('A' for Active; 'I' for Inactive)
REMARK    1  A    between atoms: C_2  and  C_3 
REMARK    2  A    between atoms: C_3  and  O_6 
REMARK    3  A    between atoms: C_3  and  C_4 
REMARK    4  A    between atoms: C_7  and  O_6 
REMARK    5  A    between atoms: C_9  and  C_10 
REMARK    6  A    between atoms: N_15  and  C_14 
REMARK    7  A    between atoms: N_20  and  C_19 
REMARK       I    between atoms: C_22  and  N_20 
ROOT
ATOM      1  C   LIG d   1      -9.023  79.227 118.530  0.00  0.00     0.161 C 
ATOM      2  C   LIG d   1     -10.154  78.505 118.946  0.00  0.00     0.016 C 
ATOM      3  C   LIG d   1     -10.193  77.093 119.017  0.00  0.00     0.038 C 
ATOM      4  C   LIG d   1      -9.046  76.309 118.820  0.00  0.00     0.028 C 
ATOM      5  C   LIG d   1      -8.014  76.964 117.908  0.00  0.00    -0.047 C 
ATOM      6  C   LIG d   1      -7.729  78.395 118.419  0.00  0.00     0.091 C 
ENDROOT
BRANCH   1   7
ATOM      7  O   LIG d   1      -8.818  80.358 119.401  0.00  0.00    -0.368 OA
BRANCH   7   8
ATOM      8  C   LIG d   1      -9.146  81.656 118.849  0.00  0.00     0.119 C 
BRANCH   8   9
ATOM      9  C   LIG d   1      -9.295  81.486 117.324  0.00  0.00     0.028 C 
ATOM     10  C   LIG d   1      -8.236  82.278 116.539  0.00  0.00     0.006 C 
ENDBRANCH   8   9
BRANCH   8  11
ATOM     11  C   LIG d   1      -7.995  82.648 119.035  0.00  0.00     0.028 C 
ATOM     12  C   LIG d   1      -7.203  82.406 120.330  0.00  0.00     0.006 C 
ENDBRANCH   8  11
ENDBRANCH   7   8
ENDBRANCH   1   7
BRANCH   6  13
ATOM     13  N   LIG d   1      -6.792  79.136 117.535  0.00  0.00    -0.311 N 
ATOM     14  C   LIG d   1      -5.680  79.723 117.973  0.00  0.00     0.210 C 
ATOM     15  C   LIG d   1      -4.866  80.451 116.898  0.00  0.00     0.109 C 
ATOM     16  O   LIG d   1      -5.273  79.683 119.144  0.00  0.00    -0.276 OA
ATOM     17  H   LIG d   1      -7.029  79.192 116.564  0.00  0.00     0.149 HD
ENDBRANCH   6  13
BRANCH   5  18
ATOM     18  N   LIG d   1      -6.816  76.103 117.901  0.00  0.00     0.381 N 
ATOM     19  H   LIG d   1      -7.009  75.251 118.388  0.00  0.00    -0.090 HD
ATOM     20  H   LIG d   1      -6.072  76.578 118.380  0.00  0.00    -0.090 HD
ATOM     21  H   LIG d   1      -6.545  75.904 116.964  0.00  0.00    -0.090 HD
ENDBRANCH   5  18
BRANCH   3  22
ATOM     22  C   LIG d   1     -11.399  76.450 119.248  0.00  0.00     0.382 C 
ATOM     23  O   LIG d   1     -12.040  75.955 118.290  0.00  0.00    -0.241 OA
ATOM     24  O   LIG d   1     -11.876  76.397 120.398  0.00  0.00    -0.241 OA
ENDBRANCH   3  22
TORSDOF 7
ENDMDL
MODEL 7
REMARK VINA RESULT:      -4.6      0.786      1.718
REMARK  7 active torsions:
REMARK  status: ('A' for Active; 'I' for Inactive)
REMARK    1  A    between atoms: C_2  and  C_3 
REMARK    2  A    between atoms: C_3  and  O_6 
REMARK    3  A    between atoms: C_3  and  C_4 
REMARK    4  A    between atoms: C_7  and  O_6 
REMARK    5  A    between atoms: C_9  and  C_10 
REMARK    6  A    between atoms: N_15  and  C_14 
REMARK    7  A    between atoms: N_20  and  C_19 
REMARK       I    between atoms: C_22  and  N_20 
ROOT
ATOM      1  C   LIG d   1      -7.706  75.831 117.547  0.00  0.00     0.161 C 
ATOM      2  C   LIG d   1      -9.075  75.622 117.780  0.00  0.00     0.016 C 
ATOM      3  C   LIG d   1      -9.909  76.568 118.419  0.00  0.00     0.038 C 
ATOM      4  C   LIG d   1      -9.459  77.859 118.736  0.00  0.00     0.028 C 
ATOM      5  C   LIG d   1      -7.955  77.934 118.977  0.00  0.00    -0.047 C 
ATOM      6  C   LIG d   1      -7.222  77.277 117.785  0.00  0.00     0.091 C 
ENDROOT
BRANCH   1   7
ATOM      7  O   LIG d   1      -7.366  75.402 116.213  0.00  0.00    -0.368 OA
BRANCH   7   8
ATOM      8  C   LIG d   1      -6.485  74.256 116.117  0.00  0.00     0.119 C 
BRANCH   8   9
ATOM      9  C   LIG d   1      -6.423  73.602 117.511  0.00  0.00     0.028 C 
ATOM     10  C   LIG d   1      -7.009  72.180 117.519  0.00  0.00     0.006 C 
ENDBRANCH   8   9
BRANCH   8  11
ATOM     11  C   LIG d   1      -5.047  74.683 115.805  0.00  0.00     0.028 C 
ATOM     12  C   LIG d   1      -4.036  74.178 116.847  0.00  0.00     0.006 C 
ENDBRANCH   8  11
ENDBRANCH   7   8
ENDBRANCH   1   7
BRANCH   6  13
ATOM     13  N   LIG d   1      -5.749  77.232 117.980  0.00  0.00    -0.311 N 
ATOM     14  C   LIG d   1      -4.916  78.141 117.478  0.00  0.00     0.210 C 
ATOM     15  C   LIG d   1      -3.434  77.897 117.780  0.00  0.00     0.109 C 
ATOM     16  O   LIG d   1      -5.265  79.144 116.838  0.00  0.00    -0.276 OA
ATOM     17  H   LIG d   1      -5.383  76.468 118.514  0.00  0.00     0.149 HD
ENDBRANCH   6  13
BRANCH   5  18
ATOM     18  N   LIG d   1      -7.603  79.354 119.160  0.00  0.00     0.381 N 
ATOM     19  H   LIG d   1      -6.638  79.435 119.412  0.00  0.00    -0.090 HD
ATOM     20  H   LIG d   1      -8.157  79.733 119.908  0.00  0.00    -0.090 HD
ATOM     21  H   LIG d   1      -7.778  79.860 118.319  0.00  0.00    -0.090 HD
ENDBRANCH   5  18
BRANCH   3  22
ATOM     22  C   LIG d   1     -11.198  76.212 118.784  0.00  0.00     0.382 C 
ATOM     23  O   LIG d   1     -11.628  76.501 119.927  0.00  0.00    -0.241 OA
ATOM     24  O   LIG d   1     -11.921  75.567 118.002  0.00  0.00    -0.241 OA
ENDBRANCH   3  22
TORSDOF 7
ENDMDL
MODEL 8
REMARK VINA RESULT:      -4.5      2.431      3.179
REMARK  7 active torsions:
REMARK  status: ('A' for Active; 'I' for Inactive)
REMARK    1  A    between atoms: C_2  and  C_3 
REMARK    2  A    between atoms: C_3  and  O_6 
REMARK    3  A    between atoms: C_3  and  C_4 
REMARK    4  A    between atoms: C_7  and  O_6 
REMARK    5  A    between atoms: C_9  and  C_10 
REMARK    6  A    between atoms: N_15  and  C_14 
REMARK    7  A    between atoms: N_20  and  C_19 
REMARK       I    between atoms: C_22  and  N_20 
ROOT
ATOM      1  C   LIG d   1      -6.464  78.480 117.847  0.00  0.00     0.161 C 
ATOM      2  C   LIG d   1      -7.841  78.438 118.122  0.00  0.00     0.016 C 
ATOM      3  C   LIG d   1      -8.657  79.591 118.187  0.00  0.00     0.038 C 
ATOM      4  C   LIG d   1      -8.178  80.860 117.829  0.00  0.00     0.028 C 
ATOM      5  C   LIG d   1      -6.675  81.020 118.034  0.00  0.00    -0.047 C 
ATOM      6  C   LIG d   1      -5.946  79.844 117.344  0.00  0.00     0.091 C 
ENDROOT
BRANCH   1   7
ATOM      7  O   LIG d   1      -6.121  77.438 116.911  0.00  0.00    -0.368 OA
BRANCH   7   8
ATOM      8  C   LIG d   1      -6.373  76.081 117.349  0.00  0.00     0.119 C 
BRANCH   8   9
ATOM      9  C   LIG d   1      -5.020  75.345 117.379  0.00  0.00     0.028 C 
ATOM     10  C   LIG d   1      -5.033  74.057 116.538  0.00  0.00     0.006 C 
ENDBRANCH   8   9
BRANCH   8  11
ATOM     11  C   LIG d   1      -7.228  75.317 116.332  0.00  0.00     0.028 C 
ATOM     12  C   LIG d   1      -8.647  75.028 116.845  0.00  0.00     0.006 C 
ENDBRANCH   8  11
ENDBRANCH   7   8
ENDBRANCH   1   7
BRANCH   6  13
ATOM     13  N   LIG d   1      -4.477  79.878 117.567  0.00  0.00    -0.311 N 
ATOM     14  C   LIG d   1      -3.631  80.538 116.779  0.00  0.00     0.210 C 
ATOM     15  C   LIG d   1      -2.156  80.426 117.177  0.00  0.00     0.109 C 
ATOM     16  O   LIG d   1      -3.965  81.232 115.807  0.00  0.00    -0.276 OA
ATOM     17  H   LIG d   1      -4.124  79.367 118.352  0.00  0.00     0.149 HD
ENDBRANCH   6  13
BRANCH   5  18
ATOM     18  N   LIG d   1      -6.289  82.337 117.493  0.00  0.00     0.381 N 
ATOM     19  H   LIG d   1      -5.587  82.222 116.789  0.00  0.00    -0.090 HD
ATOM     20  H   LIG d   1      -5.903  82.893 118.235  0.00  0.00    -0.090 HD
ATOM     21  H   LIG d   1      -7.086  82.793 117.106  0.00  0.00    -0.090 HD
ENDBRANCH   5  18
BRANCH   3  22
ATOM     22  C   LIG d   1      -9.959  79.486 118.653  0.00  0.00     0.382 C 
ATOM     23  O   LIG d   1     -10.526  80.484 119.159  0.00  0.00    -0.241 OA
ATOM     24  O   LIG d   1     -10.558  78.395 118.613  0.00  0.00    -0.241 OA
ENDBRANCH   3  22
TORSDOF 7
ENDMDL
MODEL 9
REMARK VINA RESULT:      -4.5     18.656     21.103
REMARK  7 active torsions:
REMARK  status: ('A' for Active; 'I' for Inactive)
REMARK    1  A    between atoms: C_2  and  C_3 
REMARK    2  A    between atoms: C_3  and  O_6 
REMARK    3  A    between atoms: C_3  and  C_4 
REMARK    4  A    between atoms: C_7  and  O_6 
REMARK    5  A    between atoms: C_9  and  C_10 
REMARK    6  A    between atoms: N_15  and  C_14 
REMARK    7  A    between atoms: N_20  and  C_19 
REMARK       I    between atoms: C_22  and  N_20 
ROOT
ATOM      1  C   LIG d   1       1.936  57.819 119.406  0.00  0.00     0.161 C 
ATOM      2  C   LIG d   1       0.797  58.620 119.594  0.00  0.00     0.016 C 
ATOM      3  C   LIG d   1      -0.524  58.119 119.542  0.00  0.00     0.038 C 
ATOM      4  C   LIG d   1      -0.793  56.745 119.447  0.00  0.00     0.028 C 
ATOM      5  C   LIG d   1       0.312  55.958 118.750  0.00  0.00    -0.047 C 
ATOM      6  C   LIG d   1       1.666  56.299 119.413  0.00  0.00     0.091 C 
ENDROOT
BRANCH   1   7
ATOM      7  O   LIG d   1       2.937  58.154 120.387  0.00  0.00    -0.368 OA
BRANCH   7   8
ATOM      8  C   LIG d   1       3.614  59.421 120.200  0.00  0.00     0.119 C 
BRANCH   8   9
ATOM      9  C   LIG d   1       4.862  59.156 119.336  0.00  0.00     0.028 C 
ATOM     10  C   LIG d   1       4.754  59.791 117.939  0.00  0.00     0.006 C 
ENDBRANCH   8   9
BRANCH   8  11
ATOM     11  C   LIG d   1       4.148  59.969 121.527  0.00  0.00     0.028 C 
ATOM     12  C   LIG d   1       3.029  60.375 122.498  0.00  0.00     0.006 C 
ENDBRANCH   8  11
ENDBRANCH   7   8
ENDBRANCH   1   7
BRANCH   6  13
ATOM     13  N   LIG d   1       2.811  55.636 118.736  0.00  0.00    -0.311 N 
ATOM     14  C   LIG d   1       3.640  54.796 119.353  0.00  0.00     0.210 C 
ATOM     15  C   LIG d   1       4.767  54.239 118.476  0.00  0.00     0.109 C 
ATOM     16  O   LIG d   1       3.531  54.434 120.534  0.00  0.00    -0.276 OA
ATOM     17  H   LIG d   1       2.955  55.849 117.768  0.00  0.00     0.149 HD
ENDBRANCH   6  13
BRANCH   5  18
ATOM     18  N   LIG d   1      -0.033  54.527 118.844  0.00  0.00     0.381 N 
ATOM     19  H   LIG d   1      -0.420  54.214 117.976  0.00  0.00    -0.090 HD
ATOM     20  H   LIG d   1      -0.728  54.406 119.560  0.00  0.00    -0.090 HD
ATOM     21  H   LIG d   1       0.779  53.994 119.065  0.00  0.00    -0.090 HD
ENDBRANCH   5  18
BRANCH   3  22
ATOM     22  C   LIG d   1      -1.594  59.001 119.544  0.00  0.00     0.382 C 
ATOM     23  O   LIG d   1      -1.563  60.025 118.820  0.00  0.00    -0.241 OA
ATOM     24  O   LIG d   1      -2.569  58.808 120.294  0.00  0.00    -0.241 OA
ENDBRANCH   3  22
TORSDOF 7
ENDMDL
