MODEL 1
REMARK VINA RESULT:      -5.3      0.000      0.000
REMARK  7 active torsions:
REMARK  status: ('A' for Active; 'I' for Inactive)
REMARK    1  A    between atoms: C_2  and  C_3 
REMARK    2  A    between atoms: C_3  and  O_6 
REMARK    3  A    between atoms: C_3  and  C_4 
REMARK    4  A    between atoms: C_7  and  O_6 
REMARK    5  A    between atoms: C_9  and  C_10 
REMARK    6  A    between atoms: N_15  and  C_14 
REMARK    7  A    between atoms: N_20  and  C_19 
REMARK       I    between atoms: C_22  and  N_20 
ROOT
ATOM      1  C   LIG d   1      -6.708  76.267 117.148  0.00  0.00     0.161 C 
ATOM      2  C   LIG d   1      -7.610  75.201 116.993  0.00  0.00     0.016 C 
ATOM      3  C   LIG d   1      -7.210  73.885 116.667  0.00  0.00     0.038 C 
ATOM      4  C   LIG d   1      -5.859  73.510 116.621  0.00  0.00     0.028 C 
ATOM      5  C   LIG d   1      -4.922  74.662 116.273  0.00  0.00    -0.047 C 
ATOM      6  C   LIG d   1      -5.223  75.853 117.211  0.00  0.00     0.091 C 
ENDROOT
BRANCH   1   7
ATOM      7  O   LIG d   1      -7.062  77.042 118.310  0.00  0.00    -0.368 OA
BRANCH   7   8
ATOM      8  C   LIG d   1      -7.618  78.356 118.055  0.00  0.00     0.119 C 
BRANCH   8   9
ATOM      9  C   LIG d   1      -6.629  79.394 118.620  0.00  0.00     0.028 C 
ATOM     10  C   LIG d   1      -5.728  78.809 119.720  0.00  0.00     0.006 C 
ENDBRANCH   8   9
BRANCH   8  11
ATOM     11  C   LIG d   1      -8.920  78.570 118.833  0.00  0.00     0.028 C 
ATOM     12  C   LIG d   1     -10.030  77.591 118.419  0.00  0.00     0.006 C 
ENDBRANCH   8  11
ENDBRANCH   7   8
ENDBRANCH   1   7
BRANCH   6  13
ATOM     13  N   LIG d   1      -4.408  77.052 116.883  0.00  0.00    -0.311 N 
ATOM     14  C   LIG d   1      -3.228  77.313 117.444  0.00  0.00     0.210 C 
ATOM     15  C   LIG d   1      -2.563  78.612 116.979  0.00  0.00     0.109 C 
ATOM     16  O   LIG d   1      -2.654  76.574 118.259  0.00  0.00    -0.276 OA
ATOM     17  H   LIG d   1      -4.784  77.689 116.209  0.00  0.00     0.149 HD
ENDBRANCH   6  13
BRANCH   5  18
ATOM     18  N   LIG d   1      -3.539  74.164 116.396  0.00  0.00     0.381 N 
ATOM     19  H   LIG d   1      -3.133  74.498 117.247  0.00  0.00    -0.090 HD
ATOM     20  H   LIG d   1      -2.997  74.519 115.628  0.00  0.00    -0.090 HD
ATOM     21  H   LIG d   1      -3.533  73.168 116.385  0.00  0.00    -0.090 HD
ENDBRANCH   5  18
BRANCH   3  22
ATOM     22  C   LIG d   1      -8.168  72.936 116.343  0.00  0.00     0.382 C 
ATOM     23  O   LIG d   1      -9.372  73.137 116.632  0.00  0.00    -0.241 OA
ATOM     24  O   LIG d   1      -7.837  71.862 115.805  0.00  0.00    -0.241 OA
ENDBRANCH   3  22
TORSDOF 7
ENDMDL
MODEL 2
REMARK VINA RESULT:      -5.3      2.303      4.766
REMARK  7 active torsions:
REMARK  status: ('A' for Active; 'I' for Inactive)
REMARK    1  A    between atoms: C_2  and  C_3 
REMARK    2  A    between atoms: C_3  and  O_6 
REMARK    3  A    between atoms: C_3  and  C_4 
REMARK    4  A    between atoms: C_7  and  O_6 
REMARK    5  A    between atoms: C_9  and  C_10 
REMARK    6  A    between atoms: N_15  and  C_14 
REMARK    7  A    between atoms: N_20  and  C_19 
REMARK       I    between atoms: C_22  and  N_20 
ROOT
ATOM      1  C   LIG d   1      -5.503  76.941 116.092  0.00  0.00     0.161 C 
ATOM      2  C   LIG d   1      -4.415  76.097 115.814  0.00  0.00     0.016 C 
ATOM      3  C   LIG d   1      -3.268  76.009 116.636  0.00  0.00     0.038 C 
ATOM      4  C   LIG d   1      -3.198  76.652 117.881  0.00  0.00     0.028 C 
ATOM      5  C   LIG d   1      -4.057  77.909 117.963  0.00  0.00    -0.047 C 
ATOM      6  C   LIG d   1      -5.492  77.567 117.502  0.00  0.00     0.091 C 
ENDROOT
BRANCH   1   7
ATOM      7  O   LIG d   1      -6.739  76.236 115.866  0.00  0.00    -0.368 OA
BRANCH   7   8
ATOM      8  C   LIG d   1      -7.232  75.443 116.974  0.00  0.00     0.119 C 
BRANCH   8   9
ATOM      9  C   LIG d   1      -6.765  73.992 116.749  0.00  0.00     0.028 C 
ATOM     10  C   LIG d   1      -7.938  73.029 116.502  0.00  0.00     0.006 C 
ENDBRANCH   8   9
BRANCH   8  11
ATOM     11  C   LIG d   1      -8.762  75.380 116.977  0.00  0.00     0.028 C 
ATOM     12  C   LIG d   1      -9.406  76.557 117.727  0.00  0.00     0.006 C 
ENDBRANCH   8  11
ENDBRANCH   7   8
ENDBRANCH   1   7
BRANCH   6  13
ATOM     13  N   LIG d   1      -6.378  78.760 117.472  0.00  0.00    -0.311 N 
ATOM     14  C   LIG d   1      -7.117  79.150 118.509  0.00  0.00     0.210 C 
ATOM     15  C   LIG d   1      -7.975  80.395 118.259  0.00  0.00     0.109 C 
ATOM     16  O   LIG d   1      -7.120  78.603 119.622  0.00  0.00    -0.276 OA
ATOM     17  H   LIG d   1      -6.412  79.281 116.618  0.00  0.00     0.149 HD
ENDBRANCH   6  13
BRANCH   5  18
ATOM     18  N   LIG d   1      -3.998  78.399 119.353  0.00  0.00     0.381 N 
ATOM     19  H   LIG d   1      -3.862  77.630 119.978  0.00  0.00    -0.090 HD
ATOM     20  H   LIG d   1      -4.872  78.840 119.580  0.00  0.00    -0.090 HD
ATOM     21  H   LIG d   1      -3.252  79.053 119.453  0.00  0.00    -0.090 HD
ENDBRANCH   5  18
BRANCH   3  22
ATOM     22  C   LIG d   1      -2.160  75.303 116.196  0.00  0.00     0.382 C 
ATOM     23  O   LIG d   1      -2.239  74.065 116.009  0.00  0.00    -0.241 OA
ATOM     24  O   LIG d   1      -1.069  75.880 116.025  0.00  0.00    -0.241 OA
ENDBRANCH   3  22
TORSDOF 7
ENDMDL
MODEL 3
REMARK VINA RESULT:      -4.9     15.069     17.453
REMARK  7 active torsions:
REMARK  status: ('A' for Active; 'I' for Inactive)
REMARK    1  A    between atoms: C_2  and  C_3 
REMARK    2  A    between atoms: C_3  and  O_6 
REMARK    3  A    between atoms: C_3  and  C_4 
REMARK    4  A    between atoms: C_7  and  O_6 
REMARK    5  A    between atoms: C_9  and  C_10 
REMARK    6  A    between atoms: N_15  and  C_14 
REMARK    7  A    between atoms: N_20  and  C_19 
REMARK       I    between atoms: C_22  and  N_20 
ROOT
ATOM      1  C   LIG d   1      -5.473  93.508 118.224  0.00  0.00     0.161 C 
ATOM      2  C   LIG d   1      -6.120  92.370 117.713  0.00  0.00     0.016 C 
ATOM      3  C   LIG d   1      -5.430  91.264 117.164  0.00  0.00     0.038 C 
ATOM      4  C   LIG d   1      -4.033  91.156 117.227  0.00  0.00     0.028 C 
ATOM      5  C   LIG d   1      -3.322  92.504 117.278  0.00  0.00    -0.047 C 
ATOM      6  C   LIG d   1      -3.948  93.359 118.403  0.00  0.00     0.091 C 
ENDROOT
BRANCH   1   7
ATOM      7  O   LIG d   1      -6.088  93.901 119.467  0.00  0.00    -0.368 OA
BRANCH   7   8
ATOM      8  C   LIG d   1      -7.335  94.631 119.358  0.00  0.00     0.119 C 
BRANCH   8   9
ATOM      9  C   LIG d   1      -7.049  95.921 118.564  0.00  0.00     0.028 C 
ATOM     10  C   LIG d   1      -8.332  96.698 118.225  0.00  0.00     0.006 C 
ENDBRANCH   8   9
BRANCH   8  11
ATOM     11  C   LIG d   1      -7.827  95.100 120.730  0.00  0.00     0.028 C 
ATOM     12  C   LIG d   1      -9.042  94.304 121.232  0.00  0.00     0.006 C 
ENDBRANCH   8  11
ENDBRANCH   7   8
ENDBRANCH   1   7
BRANCH   6  13
ATOM     13  N   LIG d   1      -3.368  94.726 118.465  0.00  0.00    -0.311 N 
ATOM     14  C   LIG d   1      -2.341  95.051 119.249  0.00  0.00     0.210 C 
ATOM     15  C   LIG d   1      -1.912  96.520 119.176  0.00  0.00     0.109 C 
ATOM     16  O   LIG d   1      -1.724  94.256 119.974  0.00  0.00    -0.276 OA
ATOM     17  H   LIG d   1      -3.787  95.427 117.886  0.00  0.00     0.149 HD
ENDBRANCH   6  13
BRANCH   5  18
ATOM     18  N   LIG d   1      -1.885  92.243 117.481  0.00  0.00     0.381 N 
ATOM     19  H   LIG d   1      -1.348  93.011 117.130  0.00  0.00    -0.090 HD
ATOM     20  H   LIG d   1      -1.628  91.419 116.967  0.00  0.00    -0.090 HD
ATOM     21  H   LIG d   1      -1.696  92.111 118.450  0.00  0.00    -0.090 HD
ENDBRANCH   5  18
BRANCH   3  22
ATOM     22  C   LIG d   1      -6.139  90.269 116.507  0.00  0.00     0.382 C 
ATOM     23  O   LIG d   1      -7.382  90.184 116.654  0.00  0.00    -0.241 OA
ATOM     24  O   LIG d   1      -5.545  89.429 115.805  0.00  0.00    -0.241 OA
ENDBRANCH   3  22
TORSDOF 7
ENDMDL
MODEL 4
REMARK VINA RESULT:      -4.8     15.244     18.069
REMARK  7 active torsions:
REMARK  status: ('A' for Active; 'I' for Inactive)
REMARK    1  A    between atoms: C_2  and  C_3 
REMARK    2  A    between atoms: C_3  and  O_6 
REMARK    3  A    between atoms: C_3  and  C_4 
REMARK    4  A    between atoms: C_7  and  O_6 
REMARK    5  A    between atoms: C_9  and  C_10 
REMARK    6  A    between atoms: N_15  and  C_14 
REMARK    7  A    between atoms: N_20  and  C_19 
REMARK       I    between atoms: C_22  and  N_20 
ROOT
ATOM      1  C   LIG d   1      -5.250  93.196 118.302  0.00  0.00     0.161 C 
ATOM      2  C   LIG d   1      -6.512  93.768 118.068  0.00  0.00     0.016 C 
ATOM      3  C   LIG d   1      -6.853  95.084 118.456  0.00  0.00     0.038 C 
ATOM      4  C   LIG d   1      -5.901  95.976 118.971  0.00  0.00     0.028 C 
ATOM      5  C   LIG d   1      -4.748  95.283 119.689  0.00  0.00    -0.047 C 
ATOM      6  C   LIG d   1      -4.164  94.191 118.762  0.00  0.00     0.091 C 
ENDROOT
BRANCH   1   7
ATOM      7  O   LIG d   1      -4.811  92.484 117.127  0.00  0.00    -0.368 OA
BRANCH   7   8
ATOM      8  C   LIG d   1      -4.920  91.041 117.179  0.00  0.00     0.119 C 
BRANCH   8   9
ATOM      9  C   LIG d   1      -3.492  90.466 117.127  0.00  0.00     0.028 C 
ATOM     10  C   LIG d   1      -3.080  89.795 118.448  0.00  0.00     0.006 C 
ENDBRANCH   8   9
BRANCH   8  11
ATOM     11  C   LIG d   1      -5.625  90.490 115.936  0.00  0.00     0.028 C 
ATOM     12  C   LIG d   1      -7.058  90.016 116.223  0.00  0.00     0.006 C 
ENDBRANCH   8  11
ENDBRANCH   7   8
ENDBRANCH   1   7
BRANCH   6  13
ATOM     13  N   LIG d   1      -3.086  93.408 119.419  0.00  0.00    -0.311 N 
ATOM     14  C   LIG d   1      -1.853  93.299 118.925  0.00  0.00     0.210 C 
ATOM     15  C   LIG d   1      -0.901  92.428 119.750  0.00  0.00     0.109 C 
ATOM     16  O   LIG d   1      -1.450  93.868 117.900  0.00  0.00    -0.276 OA
ATOM     17  H   LIG d   1      -3.318  92.939 120.273  0.00  0.00     0.149 HD
ENDBRANCH   6  13
BRANCH   5  18
ATOM     18  N   LIG d   1      -3.763  96.318 120.053  0.00  0.00     0.381 N 
ATOM     19  H   LIG d   1      -4.220  97.204 120.142  0.00  0.00    -0.090 HD
ATOM     20  H   LIG d   1      -3.079  96.389 119.321  0.00  0.00    -0.090 HD
ATOM     21  H   LIG d   1      -3.318  96.078 120.912  0.00  0.00    -0.090 HD
ENDBRANCH   5  18
BRANCH   3  22
ATOM     22  C   LIG d   1      -8.171  95.507 118.365  0.00  0.00     0.382 C 
ATOM     23  O   LIG d   1      -8.432  96.655 117.933  0.00  0.00    -0.241 OA
ATOM     24  O   LIG d   1      -9.098  94.771 118.752  0.00  0.00    -0.241 OA
ENDBRANCH   3  22
TORSDOF 7
ENDMDL
MODEL 5
REMARK VINA RESULT:      -4.8     13.428     16.224
REMARK  7 active torsions:
REMARK  status: ('A' for Active; 'I' for Inactive)
REMARK    1  A    between atoms: C_2  and  C_3 
REMARK    2  A    between atoms: C_3  and  O_6 
REMARK    3  A    between atoms: C_3  and  C_4 
REMARK    4  A    between atoms: C_7  and  O_6 
REMARK    5  A    between atoms: C_9  and  C_10 
REMARK    6  A    between atoms: N_15  and  C_14 
REMARK    7  A    between atoms: N_20  and  C_19 
REMARK       I    between atoms: C_22  and  N_20 
ROOT
ATOM      1  C   LIG d   1      -2.207  90.713 117.620  0.00  0.00     0.161 C 
ATOM      2  C   LIG d   1      -3.441  90.296 117.095  0.00  0.00     0.016 C 
ATOM      3  C   LIG d   1      -4.549  91.159 116.931  0.00  0.00     0.038 C 
ATOM      4  C   LIG d   1      -4.448  92.543 117.142  0.00  0.00     0.028 C 
ATOM      5  C   LIG d   1      -3.371  92.925 118.152  0.00  0.00    -0.047 C 
ATOM      6  C   LIG d   1      -2.043  92.242 117.752  0.00  0.00     0.091 C 
ENDROOT
BRANCH   1   7
ATOM      7  O   LIG d   1      -1.131  90.160 116.837  0.00  0.00    -0.368 OA
BRANCH   7   8
ATOM      8  C   LIG d   1      -0.260  89.224 117.521  0.00  0.00     0.119 C 
BRANCH   8   9
ATOM      9  C   LIG d   1       1.171  89.457 116.999  0.00  0.00     0.028 C 
ATOM     10  C   LIG d   1       1.210  90.432 115.810  0.00  0.00     0.006 C 
ENDBRANCH   8   9
BRANCH   8  11
ATOM     11  C   LIG d   1      -0.597  87.777 117.150  0.00  0.00     0.028 C 
ATOM     12  C   LIG d   1      -1.235  86.997 118.311  0.00  0.00     0.006 C 
ENDBRANCH   8  11
ENDBRANCH   7   8
ENDBRANCH   1   7
BRANCH   6  13
ATOM     13  N   LIG d   1      -0.957  92.495 118.734  0.00  0.00    -0.311 N 
ATOM     14  C   LIG d   1       0.180  93.116 118.426  0.00  0.00     0.210 C 
ATOM     15  C   LIG d   1       1.175  93.256 119.583  0.00  0.00     0.109 C 
ATOM     16  O   LIG d   1       0.447  93.592 117.312  0.00  0.00    -0.276 OA
ATOM     17  H   LIG d   1      -1.103  92.170 119.670  0.00  0.00     0.149 HD
ENDBRANCH   6  13
BRANCH   5  18
ATOM     18  N   LIG d   1      -3.281  94.397 118.172  0.00  0.00     0.381 N 
ATOM     19  H   LIG d   1      -2.467  94.680 118.680  0.00  0.00    -0.090 HD
ATOM     20  H   LIG d   1      -4.089  94.766 118.641  0.00  0.00    -0.090 HD
ATOM     21  H   LIG d   1      -3.239  94.749 117.241  0.00  0.00    -0.090 HD
ENDBRANCH   5  18
BRANCH   3  22
ATOM     22  C   LIG d   1      -5.785  90.633 116.590  0.00  0.00     0.382 C 
ATOM     23  O   LIG d   1      -6.831  91.284 116.829  0.00  0.00    -0.241 OA
ATOM     24  O   LIG d   1      -5.872  89.497 116.086  0.00  0.00    -0.241 OA
ENDBRANCH   3  22
TORSDOF 7
ENDMDL
MODEL 6
REMARK VINA RESULT:      -4.7     14.926     17.291
REMARK  7 active torsions:
REMARK  status: ('A' for Active; 'I' for Inactive)
REMARK    1  A    between atoms: C_2  and  C_3 
REMARK    2  A    between atoms: C_3  and  O_6 
REMARK    3  A    between atoms: C_3  and  C_4 
REMARK    4  A    between atoms: C_7  and  O_6 
REMARK    5  A    between atoms: C_9  and  C_10 
REMARK    6  A    between atoms: N_15  and  C_14 
REMARK    7  A    between atoms: N_20  and  C_19 
REMARK       I    between atoms: C_22  and  N_20 
ROOT
ATOM      1  C   LIG d   1      -4.081  91.908 119.084  0.00  0.00     0.161 C 
ATOM      2  C   LIG d   1      -4.626  90.978 118.183  0.00  0.00     0.016 C 
ATOM      3  C   LIG d   1      -5.674  91.285 117.286  0.00  0.00     0.038 C 
ATOM      4  C   LIG d   1      -6.150  92.595 117.123  0.00  0.00     0.028 C 
ATOM      5  C   LIG d   1      -5.979  93.461 118.366  0.00  0.00    -0.047 C 
ATOM      6  C   LIG d   1      -4.511  93.370 118.843  0.00  0.00     0.091 C 
ENDROOT
BRANCH   1   7
ATOM      7  O   LIG d   1      -2.643  91.802 119.085  0.00  0.00    -0.368 OA
BRANCH   7   8
ATOM      8  C   LIG d   1      -1.995  91.910 117.794  0.00  0.00     0.119 C 
BRANCH   8   9
ATOM      9  C   LIG d   1      -1.211  90.604 117.559  0.00  0.00     0.028 C 
ATOM     10  C   LIG d   1      -0.004  90.803 116.627  0.00  0.00     0.006 C 
ENDBRANCH   8   9
BRANCH   8  11
ATOM     11  C   LIG d   1      -0.941  93.021 117.790  0.00  0.00     0.028 C 
ATOM     12  C   LIG d   1      -1.465  94.337 117.193  0.00  0.00     0.006 C 
ENDBRANCH   8  11
ENDBRANCH   7   8
ENDBRANCH   1   7
BRANCH   6  13
ATOM     13  N   LIG d   1      -4.276  94.121 120.103  0.00  0.00    -0.311 N 
ATOM     14  C   LIG d   1      -3.870  95.389 120.136  0.00  0.00     0.210 C 
ATOM     15  C   LIG d   1      -3.671  95.968 121.541  0.00  0.00     0.109 C 
ATOM     16  O   LIG d   1      -3.688  96.100 119.136  0.00  0.00    -0.276 OA
ATOM     17  H   LIG d   1      -4.430  93.630 120.962  0.00  0.00     0.149 HD
ENDBRANCH   6  13
BRANCH   5  18
ATOM     18  N   LIG d   1      -6.388  94.833 118.014  0.00  0.00     0.381 N 
ATOM     19  H   LIG d   1      -7.371  94.857 117.831  0.00  0.00    -0.090 HD
ATOM     20  H   LIG d   1      -5.905  95.112 117.177  0.00  0.00    -0.090 HD
ATOM     21  H   LIG d   1      -6.165  95.457 118.758  0.00  0.00    -0.090 HD
ENDBRANCH   5  18
BRANCH   3  22
ATOM     22  C   LIG d   1      -6.286  90.268 116.569  0.00  0.00     0.382 C 
ATOM     23  O   LIG d   1      -5.598  89.517 115.836  0.00  0.00    -0.241 OA
ATOM     24  O   LIG d   1      -7.522  90.120 116.611  0.00  0.00    -0.241 OA
ENDBRANCH   3  22
TORSDOF 7
ENDMDL
MODEL 7
REMARK VINA RESULT:      -4.6     18.320     21.231
REMARK  7 active torsions:
REMARK  status: ('A' for Active; 'I' for Inactive)
REMARK    1  A    between atoms: C_2  and  C_3 
REMARK    2  A    between atoms: C_3  and  O_6 
REMARK    3  A    between atoms: C_3  and  C_4 
REMARK    4  A    between atoms: C_7  and  O_6 
REMARK    5  A    between atoms: C_9  and  C_10 
REMARK    6  A    between atoms: N_15  and  C_14 
REMARK    7  A    between atoms: N_20  and  C_19 
REMARK       I    between atoms: C_22  and  N_20 
ROOT
ATOM      1  C   LIG d   1      -7.706  96.713 118.178  0.00  0.00     0.161 C 
ATOM      2  C   LIG d   1      -8.307  97.719 118.953  0.00  0.00     0.016 C 
ATOM      3  C   LIG d   1      -9.030  97.460 120.140  0.00  0.00     0.038 C 
ATOM      4  C   LIG d   1      -9.072  96.183 120.718  0.00  0.00     0.028 C 
ATOM      5  C   LIG d   1      -8.907  95.054 119.706  0.00  0.00    -0.047 C 
ATOM      6  C   LIG d   1      -7.647  95.327 118.852  0.00  0.00     0.091 C 
ENDROOT
BRANCH   1   7
ATOM      7  O   LIG d   1      -6.387  97.130 117.774  0.00  0.00    -0.368 OA
BRANCH   7   8
ATOM      8  C   LIG d   1      -5.802  98.218 118.532  0.00  0.00     0.119 C 
BRANCH   8   9
ATOM      9  C   LIG d   1      -5.012  99.098 117.544  0.00  0.00     0.028 C 
ATOM     10  C   LIG d   1      -5.228 100.600 117.794  0.00  0.00     0.006 C 
ENDBRANCH   8   9
BRANCH   8  11
ATOM     11  C   LIG d   1      -4.766  97.704 119.536  0.00  0.00     0.028 C 
ATOM     12  C   LIG d   1      -5.274  97.736 120.986  0.00  0.00     0.006 C 
ENDBRANCH   8  11
ENDBRANCH   7   8
ENDBRANCH   1   7
BRANCH   6  13
ATOM     13  N   LIG d   1      -7.459  94.313 117.781  0.00  0.00    -0.311 N 
ATOM     14  C   LIG d   1      -6.351  93.586 117.648  0.00  0.00     0.210 C 
ATOM     15  C   LIG d   1      -6.355  92.613 116.464  0.00  0.00     0.109 C 
ATOM     16  O   LIG d   1      -5.378  93.630 118.416  0.00  0.00    -0.276 OA
ATOM     17  H   LIG d   1      -8.211  94.190 117.133  0.00  0.00     0.149 HD
ENDBRANCH   6  13
BRANCH   5  18
ATOM     18  N   LIG d   1      -8.832  93.788 120.459  0.00  0.00     0.381 N 
ATOM     19  H   LIG d   1      -9.662  93.252 120.304  0.00  0.00    -0.090 HD
ATOM     20  H   LIG d   1      -8.770  93.996 121.440  0.00  0.00    -0.090 HD
ATOM     21  H   LIG d   1      -8.033  93.267 120.172  0.00  0.00    -0.090 HD
ENDBRANCH   5  18
BRANCH   3  22
ATOM     22  C   LIG d   1      -9.754  98.479 120.740  0.00  0.00     0.382 C 
ATOM     23  O   LIG d   1      -9.966  98.454 121.976  0.00  0.00    -0.241 OA
ATOM     24  O   LIG d   1     -10.236  99.400 120.054  0.00  0.00    -0.241 OA
ENDBRANCH   3  22
TORSDOF 7
ENDMDL
MODEL 8
REMARK VINA RESULT:      -4.6     14.389     16.544
REMARK  7 active torsions:
REMARK  status: ('A' for Active; 'I' for Inactive)
REMARK    1  A    between atoms: C_2  and  C_3 
REMARK    2  A    between atoms: C_3  and  O_6 
REMARK    3  A    between atoms: C_3  and  C_4 
REMARK    4  A    between atoms: C_7  and  O_6 
REMARK    5  A    between atoms: C_9  and  C_10 
REMARK    6  A    between atoms: N_15  and  C_14 
REMARK    7  A    between atoms: N_20  and  C_19 
REMARK       I    between atoms: C_22  and  N_20 
ROOT
ATOM      1  C   LIG d   1      -3.971  92.988 117.659  0.00  0.00     0.161 C 
ATOM      2  C   LIG d   1      -5.195  92.422 117.266  0.00  0.00     0.016 C 
ATOM      3  C   LIG d   1      -5.338  91.071 116.874  0.00  0.00     0.038 C 
ATOM      4  C   LIG d   1      -4.287  90.149 116.995  0.00  0.00     0.028 C 
ATOM      5  C   LIG d   1      -2.906  90.791 116.907  0.00  0.00    -0.047 C 
ATOM      6  C   LIG d   1      -2.837  91.971 117.903  0.00  0.00     0.091 C 
ENDROOT
BRANCH   1   7
ATOM      7  O   LIG d   1      -4.166  93.811 118.826  0.00  0.00    -0.368 OA
BRANCH   7   8
ATOM      8  C   LIG d   1      -5.511  93.848 119.363  0.00  0.00     0.119 C 
BRANCH   8   9
ATOM      9  C   LIG d   1      -5.972  95.319 119.358  0.00  0.00     0.028 C 
ATOM     10  C   LIG d   1      -7.100  95.577 118.346  0.00  0.00     0.006 C 
ENDBRANCH   8   9
BRANCH   8  11
ATOM     11  C   LIG d   1      -5.536  93.420 120.833  0.00  0.00     0.028 C 
ATOM     12  C   LIG d   1      -5.090  91.963 121.037  0.00  0.00     0.006 C 
ENDBRANCH   8  11
ENDBRANCH   7   8
ENDBRANCH   1   7
BRANCH   6  13
ATOM     13  N   LIG d   1      -1.548  92.707 117.821  0.00  0.00    -0.311 N 
ATOM     14  C   LIG d   1      -0.772  92.945 118.877  0.00  0.00     0.210 C 
ATOM     15  C   LIG d   1       0.504  93.738 118.576  0.00  0.00     0.109 C 
ATOM     16  O   LIG d   1      -1.003  92.548 120.029  0.00  0.00    -0.276 OA
ATOM     17  H   LIG d   1      -1.268  93.038 116.919  0.00  0.00     0.149 HD
ENDBRANCH   6  13
BRANCH   5  18
ATOM     18  N   LIG d   1      -1.908  89.740 117.186  0.00  0.00     0.381 N 
ATOM     19  H   LIG d   1      -2.309  88.839 117.016  0.00  0.00    -0.090 HD
ATOM     20  H   LIG d   1      -1.645  89.791 118.154  0.00  0.00    -0.090 HD
ATOM     21  H   LIG d   1      -1.107  89.870 116.609  0.00  0.00    -0.090 HD
ENDBRANCH   5  18
BRANCH   3  22
ATOM     22  C   LIG d   1      -6.532  90.639 116.318  0.00  0.00     0.382 C 
ATOM     23  O   LIG d   1      -6.803  89.414 116.288  0.00  0.00    -0.241 OA
ATOM     24  O   LIG d   1      -7.322  91.454 115.805  0.00  0.00    -0.241 OA
ENDBRANCH   3  22
TORSDOF 7
ENDMDL
MODEL 9
REMARK VINA RESULT:      -4.5      1.697      2.565
REMARK  7 active torsions:
REMARK  status: ('A' for Active; 'I' for Inactive)
REMARK    1  A    between atoms: C_2  and  C_3 
REMARK    2  A    between atoms: C_3  and  O_6 
REMARK    3  A    between atoms: C_3  and  C_4 
REMARK    4  A    between atoms: C_7  and  O_6 
REMARK    5  A    between atoms: C_9  and  C_10 
REMARK    6  A    between atoms: N_15  and  C_14 
REMARK    7  A    between atoms: N_20  and  C_19 
REMARK       I    between atoms: C_22  and  N_20 
ROOT
ATOM      1  C   LIG d   1      -5.319  77.542 116.831  0.00  0.00     0.161 C 
ATOM      2  C   LIG d   1      -6.565  76.914 116.996  0.00  0.00     0.016 C 
ATOM      3  C   LIG d   1      -6.733  75.510 117.005  0.00  0.00     0.038 C 
ATOM      4  C   LIG d   1      -5.639  74.632 117.002  0.00  0.00     0.028 C 
ATOM      5  C   LIG d   1      -4.400  75.211 116.328  0.00  0.00    -0.047 C 
ATOM      6  C   LIG d   1      -4.101  76.601 116.937  0.00  0.00     0.091 C 
ENDROOT
BRANCH   1   7
ATOM      7  O   LIG d   1      -5.194  78.631 117.767  0.00  0.00    -0.368 OA
BRANCH   7   8
ATOM      8  C   LIG d   1      -5.661  78.371 119.114  0.00  0.00     0.119 C 
BRANCH   8   9
ATOM      9  C   LIG d   1      -6.656  79.489 119.482  0.00  0.00     0.028 C 
ATOM     10  C   LIG d   1      -6.559  80.697 118.534  0.00  0.00     0.006 C 
ENDBRANCH   8   9
BRANCH   8  11
ATOM     11  C   LIG d   1      -4.522  78.490 120.131  0.00  0.00     0.028 C 
ATOM     12  C   LIG d   1      -3.262  79.142 119.541  0.00  0.00     0.006 C 
ENDBRANCH   8  11
ENDBRANCH   7   8
ENDBRANCH   1   7
BRANCH   6  13
ATOM     13  N   LIG d   1      -2.953  77.274 116.276  0.00  0.00    -0.311 N 
ATOM     14  C   LIG d   1      -1.702  77.198 116.724  0.00  0.00     0.210 C 
ATOM     15  C   LIG d   1      -0.673  77.984 115.906  0.00  0.00     0.109 C 
ATOM     16  O   LIG d   1      -1.340  76.528 117.704  0.00  0.00    -0.276 OA
ATOM     17  H   LIG d   1      -3.152  77.814 115.456  0.00  0.00     0.149 HD
ENDBRANCH   6  13
BRANCH   5  18
ATOM     18  N   LIG d   1      -3.299  74.248 116.518  0.00  0.00     0.381 N 
ATOM     19  H   LIG d   1      -3.007  74.251 117.474  0.00  0.00    -0.090 HD
ATOM     20  H   LIG d   1      -2.519  74.530 115.949  0.00  0.00    -0.090 HD
ATOM     21  H   LIG d   1      -3.596  73.334 116.256  0.00  0.00    -0.090 HD
ENDBRANCH   5  18
BRANCH   3  22
ATOM     22  C   LIG d   1      -8.011  74.971 116.979  0.00  0.00     0.382 C 
ATOM     23  O   LIG d   1      -9.004  75.700 117.213  0.00  0.00    -0.241 OA
ATOM     24  O   LIG d   1      -8.179  73.755 116.767  0.00  0.00    -0.241 OA
ENDBRANCH   3  22
TORSDOF 7
ENDMDL
