MODEL 1
REMARK VINA RESULT:      -5.1      0.000      0.000
REMARK  7 active torsions:
REMARK  status: ('A' for Active; 'I' for Inactive)
REMARK    1  A    between atoms: C_2  and  C_3 
REMARK    2  A    between atoms: C_3  and  O_6 
REMARK    3  A    between atoms: C_3  and  C_4 
REMARK    4  A    between atoms: C_7  and  O_6 
REMARK    5  A    between atoms: C_9  and  C_10 
REMARK    6  A    between atoms: N_15  and  C_14 
REMARK    7  A    between atoms: N_20  and  C_19 
REMARK       I    between atoms: C_22  and  N_20 
ROOT
ATOM      1  C   LIG d   1      -0.809  59.505 117.908  0.00  0.00     0.161 C 
ATOM      2  C   LIG d   1       0.585  59.452 117.743  0.00  0.00     0.016 C 
ATOM      3  C   LIG d   1       1.502  59.911 118.716  0.00  0.00     0.038 C 
ATOM      4  C   LIG d   1       1.086  60.318 119.992  0.00  0.00     0.028 C 
ATOM      5  C   LIG d   1      -0.338  60.862 120.021  0.00  0.00    -0.047 C 
ATOM      6  C   LIG d   1      -1.278  59.842 119.339  0.00  0.00     0.091 C 
ENDROOT
BRANCH   1   7
ATOM      7  O   LIG d   1      -1.401  58.267 117.466  0.00  0.00    -0.368 OA
BRANCH   7   8
ATOM      8  C   LIG d   1      -1.231  57.129 118.347  0.00  0.00     0.119 C 
BRANCH   8   9
ATOM      9  C   LIG d   1      -0.415  56.069 117.581  0.00  0.00     0.028 C 
ATOM     10  C   LIG d   1       0.917  55.740 118.275  0.00  0.00     0.006 C 
ENDBRANCH   8   9
BRANCH   8  11
ATOM     11  C   LIG d   1      -2.573  56.460 118.659  0.00  0.00     0.028 C 
ATOM     12  C   LIG d   1      -3.742  57.075 117.872  0.00  0.00     0.006 C 
ENDBRANCH   8  11
ENDBRANCH   7   8
ENDBRANCH   1   7
BRANCH   6  13
ATOM     13  N   LIG d   1      -2.678  60.334 119.249  0.00  0.00    -0.311 N 
ATOM     14  C   LIG d   1      -3.622  60.026 120.137  0.00  0.00     0.210 C 
ATOM     15  C   LIG d   1      -5.003  60.622 119.846  0.00  0.00     0.109 C 
ATOM     16  O   LIG d   1      -3.439  59.342 121.155  0.00  0.00    -0.276 OA
ATOM     17  H   LIG d   1      -2.906  60.921 118.470  0.00  0.00     0.149 HD
ENDBRANCH   6  13
BRANCH   5  18
ATOM     18  N   LIG d   1      -0.689  61.119 121.431  0.00  0.00     0.381 N 
ATOM     19  H   LIG d   1       0.057  61.612 121.881  0.00  0.00    -0.090 HD
ATOM     20  H   LIG d   1      -0.814  60.239 121.900  0.00  0.00    -0.090 HD
ATOM     21  H   LIG d   1      -1.528  61.653 121.481  0.00  0.00    -0.090 HD
ENDBRANCH   5  18
BRANCH   3  22
ATOM     22  C   LIG d   1       2.849  60.004 118.401  0.00  0.00     0.382 C 
ATOM     23  O   LIG d   1       3.205  60.147 117.206  0.00  0.00    -0.241 OA
ATOM     24  O   LIG d   1       3.714  59.903 119.291  0.00  0.00    -0.241 OA
ENDBRANCH   3  22
TORSDOF 7
ENDMDL
MODEL 2
REMARK VINA RESULT:      -4.9     33.338     35.087
REMARK  7 active torsions:
REMARK  status: ('A' for Active; 'I' for Inactive)
REMARK    1  A    between atoms: C_2  and  C_3 
REMARK    2  A    between atoms: C_3  and  O_6 
REMARK    3  A    between atoms: C_3  and  C_4 
REMARK    4  A    between atoms: C_7  and  O_6 
REMARK    5  A    between atoms: C_9  and  C_10 
REMARK    6  A    between atoms: N_15  and  C_14 
REMARK    7  A    between atoms: N_20  and  C_19 
REMARK       I    between atoms: C_22  and  N_20 
ROOT
ATOM      1  C   LIG d   1      -6.398  92.730 118.987  0.00  0.00     0.161 C 
ATOM      2  C   LIG d   1      -6.182  91.575 118.217  0.00  0.00     0.016 C 
ATOM      3  C   LIG d   1      -6.655  91.422 116.893  0.00  0.00     0.038 C 
ATOM      4  C   LIG d   1      -7.250  92.481 116.192  0.00  0.00     0.028 C 
ATOM      5  C   LIG d   1      -7.938  93.497 117.098  0.00  0.00    -0.047 C 
ATOM      6  C   LIG d   1      -6.949  93.938 118.200  0.00  0.00     0.091 C 
ENDROOT
BRANCH   1   7
ATOM      7  O   LIG d   1      -5.186  93.092 119.676  0.00  0.00    -0.368 OA
BRANCH   7   8
ATOM      8  C   LIG d   1      -4.263  93.935 118.944  0.00  0.00     0.119 C 
BRANCH   8   9
ATOM      9  C   LIG d   1      -3.035  93.076 118.586  0.00  0.00     0.028 C 
ATOM     10  C   LIG d   1      -2.000  93.031 119.723  0.00  0.00     0.006 C 
ENDBRANCH   8   9
BRANCH   8  11
ATOM     11  C   LIG d   1      -3.724  95.067 119.823  0.00  0.00     0.028 C 
ATOM     12  C   LIG d   1      -3.877  96.451 119.172  0.00  0.00     0.006 C 
ENDBRANCH   8  11
ENDBRANCH   7   8
ENDBRANCH   1   7
BRANCH   6  13
ATOM     13  N   LIG d   1      -7.569  94.868 119.179  0.00  0.00    -0.311 N 
ATOM     14  C   LIG d   1      -7.582  96.191 119.027  0.00  0.00     0.210 C 
ATOM     15  C   LIG d   1      -8.256  96.966 120.164  0.00  0.00     0.109 C 
ATOM     16  O   LIG d   1      -7.128  96.794 118.044  0.00  0.00    -0.276 OA
ATOM     17  H   LIG d   1      -7.989  94.461 119.992  0.00  0.00     0.149 HD
ENDBRANCH   6  13
BRANCH   5  18
ATOM     18  N   LIG d   1      -8.394  94.614 116.249  0.00  0.00     0.381 N 
ATOM     19  H   LIG d   1      -8.687  94.265 115.358  0.00  0.00    -0.090 HD
ATOM     20  H   LIG d   1      -7.626  95.245 116.103  0.00  0.00    -0.090 HD
ATOM     21  H   LIG d   1      -9.148  95.092 116.691  0.00  0.00    -0.090 HD
ENDBRANCH   5  18
BRANCH   3  22
ATOM     22  C   LIG d   1      -6.569  90.186 116.272  0.00  0.00     0.382 C 
ATOM     23  O   LIG d   1      -5.473  89.792 115.807  0.00  0.00    -0.241 OA
ATOM     24  O   LIG d   1      -7.585  89.478 116.130  0.00  0.00    -0.241 OA
ENDBRANCH   3  22
TORSDOF 7
ENDMDL
MODEL 3
REMARK VINA RESULT:      -4.9      2.482      4.192
REMARK  7 active torsions:
REMARK  status: ('A' for Active; 'I' for Inactive)
REMARK    1  A    between atoms: C_2  and  C_3 
REMARK    2  A    between atoms: C_3  and  O_6 
REMARK    3  A    between atoms: C_3  and  C_4 
REMARK    4  A    between atoms: C_7  and  O_6 
REMARK    5  A    between atoms: C_9  and  C_10 
REMARK    6  A    between atoms: N_15  and  C_14 
REMARK    7  A    between atoms: N_20  and  C_19 
REMARK       I    between atoms: C_22  and  N_20 
ROOT
ATOM      1  C   LIG d   1      -0.502  59.088 119.093  0.00  0.00     0.161 C 
ATOM      2  C   LIG d   1      -0.326  60.000 120.148  0.00  0.00     0.016 C 
ATOM      3  C   LIG d   1       0.941  60.452 120.583  0.00  0.00     0.038 C 
ATOM      4  C   LIG d   1       2.119  60.136 119.890  0.00  0.00     0.028 C 
ATOM      5  C   LIG d   1       2.039  58.817 119.129  0.00  0.00    -0.047 C 
ATOM      6  C   LIG d   1       0.765  58.819 118.254  0.00  0.00     0.091 C 
ENDROOT
BRANCH   1   7
ATOM      7  O   LIG d   1      -1.582  59.524 118.245  0.00  0.00    -0.368 OA
BRANCH   7   8
ATOM      8  C   LIG d   1      -2.879  58.935 118.511  0.00  0.00     0.119 C 
BRANCH   8   9
ATOM      9  C   LIG d   1      -3.083  57.789 117.503  0.00  0.00     0.028 C 
ATOM     10  C   LIG d   1      -4.057  56.717 118.021  0.00  0.00     0.006 C 
ENDBRANCH   8   9
BRANCH   8  11
ATOM     11  C   LIG d   1      -4.010  59.929 118.230  0.00  0.00     0.028 C 
ATOM     12  C   LIG d   1      -4.757  60.359 119.503  0.00  0.00     0.006 C 
ENDBRANCH   8  11
ENDBRANCH   7   8
ENDBRANCH   1   7
BRANCH   6  13
ATOM     13  N   LIG d   1       0.566  57.531 117.540  0.00  0.00    -0.311 N 
ATOM     14  C   LIG d   1       0.382  56.368 118.163  0.00  0.00     0.210 C 
ATOM     15  C   LIG d   1       0.216  55.158 117.238  0.00  0.00     0.109 C 
ATOM     16  O   LIG d   1       0.308  56.228 119.393  0.00  0.00    -0.276 OA
ATOM     17  H   LIG d   1       0.580  57.557 116.539  0.00  0.00     0.149 HD
ENDBRANCH   6  13
BRANCH   5  18
ATOM     18  N   LIG d   1       3.280  58.680 118.343  0.00  0.00     0.381 N 
ATOM     19  H   LIG d   1       3.510  57.712 118.240  0.00  0.00    -0.090 HD
ATOM     20  H   LIG d   1       4.029  59.132 118.837  0.00  0.00    -0.090 HD
ATOM     21  H   LIG d   1       3.164  59.099 117.447  0.00  0.00    -0.090 HD
ENDBRANCH   5  18
BRANCH   3  22
ATOM     22  C   LIG d   1       1.041  61.197 121.748  0.00  0.00     0.382 C 
ATOM     23  O   LIG d   1       1.976  60.975 122.555  0.00  0.00    -0.241 OA
ATOM     24  O   LIG d   1       0.184  62.057 122.024  0.00  0.00    -0.241 OA
ENDBRANCH   3  22
TORSDOF 7
ENDMDL
MODEL 4
REMARK VINA RESULT:      -4.9     33.358     35.088
REMARK  7 active torsions:
REMARK  status: ('A' for Active; 'I' for Inactive)
REMARK    1  A    between atoms: C_2  and  C_3 
REMARK    2  A    between atoms: C_3  and  O_6 
REMARK    3  A    between atoms: C_3  and  C_4 
REMARK    4  A    between atoms: C_7  and  O_6 
REMARK    5  A    between atoms: C_9  and  C_10 
REMARK    6  A    between atoms: N_15  and  C_14 
REMARK    7  A    between atoms: N_20  and  C_19 
REMARK       I    between atoms: C_22  and  N_20 
ROOT
ATOM      1  C   LIG d   1      -5.444  93.263 118.271  0.00  0.00     0.161 C 
ATOM      2  C   LIG d   1      -5.373  92.010 117.641  0.00  0.00     0.016 C 
ATOM      3  C   LIG d   1      -6.268  91.597 116.627  0.00  0.00     0.038 C 
ATOM      4  C   LIG d   1      -7.206  92.475 116.064  0.00  0.00     0.028 C 
ATOM      5  C   LIG d   1      -7.646  93.582 117.016  0.00  0.00    -0.047 C 
ATOM      6  C   LIG d   1      -6.391  94.275 117.594  0.00  0.00     0.091 C 
ENDROOT
BRANCH   1   7
ATOM      7  O   LIG d   1      -4.121  93.822 118.398  0.00  0.00    -0.368 OA
BRANCH   7   8
ATOM      8  C   LIG d   1      -3.357  93.395 119.552  0.00  0.00     0.119 C 
BRANCH   8   9
ATOM      9  C   LIG d   1      -3.187  94.619 120.473  0.00  0.00     0.028 C 
ATOM     10  C   LIG d   1      -3.415  95.947 119.732  0.00  0.00     0.006 C 
ENDBRANCH   8   9
BRANCH   8  11
ATOM     11  C   LIG d   1      -1.935  92.984 119.158  0.00  0.00     0.028 C 
ATOM     12  C   LIG d   1      -1.820  91.491 118.814  0.00  0.00     0.006 C 
ENDBRANCH   8  11
ENDBRANCH   7   8
ENDBRANCH   1   7
BRANCH   6  13
ATOM     13  N   LIG d   1      -6.731  95.316 118.599  0.00  0.00    -0.311 N 
ATOM     14  C   LIG d   1      -7.052  96.568 118.277  0.00  0.00     0.210 C 
ATOM     15  C   LIG d   1      -7.347  97.486 119.468  0.00  0.00     0.109 C 
ATOM     16  O   LIG d   1      -7.152  96.997 117.118  0.00  0.00    -0.276 OA
ATOM     17  H   LIG d   1      -6.705  95.046 119.562  0.00  0.00     0.149 HD
ENDBRANCH   6  13
BRANCH   5  18
ATOM     18  N   LIG d   1      -8.517  94.501 116.258  0.00  0.00     0.381 N 
ATOM     19  H   LIG d   1      -9.293  93.997 115.878  0.00  0.00    -0.090 HD
ATOM     20  H   LIG d   1      -7.991  94.892 115.496  0.00  0.00    -0.090 HD
ATOM     21  H   LIG d   1      -8.844  95.230 116.854  0.00  0.00    -0.090 HD
ENDBRANCH   5  18
BRANCH   3  22
ATOM     22  C   LIG d   1      -6.254  90.280 116.192  0.00  0.00     0.382 C 
ATOM     23  O   LIG d   1      -5.180  89.758 115.808  0.00  0.00    -0.241 OA
ATOM     24  O   LIG d   1      -7.310  89.622 116.139  0.00  0.00    -0.241 OA
ENDBRANCH   3  22
TORSDOF 7
ENDMDL
MODEL 5
REMARK VINA RESULT:      -4.8      2.548      4.402
REMARK  7 active torsions:
REMARK  status: ('A' for Active; 'I' for Inactive)
REMARK    1  A    between atoms: C_2  and  C_3 
REMARK    2  A    between atoms: C_3  and  O_6 
REMARK    3  A    between atoms: C_3  and  C_4 
REMARK    4  A    between atoms: C_7  and  O_6 
REMARK    5  A    between atoms: C_9  and  C_10 
REMARK    6  A    between atoms: N_15  and  C_14 
REMARK    7  A    between atoms: N_20  and  C_19 
REMARK       I    between atoms: C_22  and  N_20 
ROOT
ATOM      1  C   LIG d   1      -1.170  58.207 120.291  0.00  0.00     0.161 C 
ATOM      2  C   LIG d   1      -0.851  59.445 120.874  0.00  0.00     0.016 C 
ATOM      3  C   LIG d   1       0.423  60.049 120.770  0.00  0.00     0.038 C 
ATOM      4  C   LIG d   1       1.427  59.524 119.944  0.00  0.00     0.028 C 
ATOM      5  C   LIG d   1       1.318  58.016 119.742  0.00  0.00    -0.047 C 
ATOM      6  C   LIG d   1      -0.121  57.673 119.294  0.00  0.00     0.091 C 
ENDROOT
BRANCH   1   7
ATOM      7  O   LIG d   1      -2.466  58.281 119.664  0.00  0.00    -0.368 OA
BRANCH   7   8
ATOM      8  C   LIG d   1      -2.487  58.777 118.303  0.00  0.00     0.119 C 
BRANCH   8   9
ATOM      9  C   LIG d   1      -3.394  60.023 118.279  0.00  0.00     0.028 C 
ATOM     10  C   LIG d   1      -4.381  60.054 119.458  0.00  0.00     0.006 C 
ENDBRANCH   8   9
BRANCH   8  11
ATOM     11  C   LIG d   1      -3.151  57.774 117.355  0.00  0.00     0.028 C 
ATOM     12  C   LIG d   1      -3.933  56.680 118.098  0.00  0.00     0.006 C 
ENDBRANCH   8  11
ENDBRANCH   7   8
ENDBRANCH   1   7
BRANCH   6  13
ATOM     13  N   LIG d   1      -0.337  56.209 119.155  0.00  0.00    -0.311 N 
ATOM     14  C   LIG d   1      -0.253  55.563 117.993  0.00  0.00     0.210 C 
ATOM     15  C   LIG d   1      -0.532  54.058 118.069  0.00  0.00     0.109 C 
ATOM     16  O   LIG d   1       0.059  56.087 116.913  0.00  0.00    -0.276 OA
ATOM     17  H   LIG d   1      -0.564  55.700 119.987  0.00  0.00     0.149 HD
ENDBRANCH   6  13
BRANCH   5  18
ATOM     18  N   LIG d   1       2.341  57.624 118.753  0.00  0.00     0.381 N 
ATOM     19  H   LIG d   1       2.111  56.731 118.365  0.00  0.00    -0.090 HD
ATOM     20  H   LIG d   1       3.229  57.548 119.217  0.00  0.00    -0.090 HD
ATOM     21  H   LIG d   1       2.393  58.305 118.029  0.00  0.00    -0.090 HD
ENDBRANCH   5  18
BRANCH   3  22
ATOM     22  C   LIG d   1       0.715  61.171 121.530  0.00  0.00     0.382 C 
ATOM     23  O   LIG d   1      -0.156  62.058 121.700  0.00  0.00    -0.241 OA
ATOM     24  O   LIG d   1       1.853  61.330 122.011  0.00  0.00    -0.241 OA
ENDBRANCH   3  22
TORSDOF 7
ENDMDL
MODEL 6
REMARK VINA RESULT:      -4.8     32.662     34.421
REMARK  7 active torsions:
REMARK  status: ('A' for Active; 'I' for Inactive)
REMARK    1  A    between atoms: C_2  and  C_3 
REMARK    2  A    between atoms: C_3  and  O_6 
REMARK    3  A    between atoms: C_3  and  C_4 
REMARK    4  A    between atoms: C_7  and  O_6 
REMARK    5  A    between atoms: C_9  and  C_10 
REMARK    6  A    between atoms: N_15  and  C_14 
REMARK    7  A    between atoms: N_20  and  C_19 
REMARK       I    between atoms: C_22  and  N_20 
ROOT
ATOM      1  C   LIG d   1      -6.910  92.660 119.493  0.00  0.00     0.161 C 
ATOM      2  C   LIG d   1      -6.356  91.627 118.719  0.00  0.00     0.016 C 
ATOM      3  C   LIG d   1      -6.450  91.574 117.309  0.00  0.00     0.038 C 
ATOM      4  C   LIG d   1      -6.978  92.637 116.561  0.00  0.00     0.028 C 
ATOM      5  C   LIG d   1      -8.001  93.469 117.328  0.00  0.00    -0.047 C 
ATOM      6  C   LIG d   1      -7.392  93.885 118.687  0.00  0.00     0.091 C 
ENDROOT
BRANCH   1   7
ATOM      7  O   LIG d   1      -5.971  93.067 120.508  0.00  0.00    -0.368 OA
BRANCH   7   8
ATOM      8  C   LIG d   1      -4.571  92.847 120.206  0.00  0.00     0.119 C 
BRANCH   8   9
ATOM      9  C   LIG d   1      -3.888  92.368 121.502  0.00  0.00     0.028 C 
ATOM     10  C   LIG d   1      -3.304  90.951 121.368  0.00  0.00     0.006 C 
ENDBRANCH   8   9
BRANCH   8  11
ATOM     11  C   LIG d   1      -3.868  94.157 119.838  0.00  0.00     0.028 C 
ATOM     12  C   LIG d   1      -3.848  94.416 118.323  0.00  0.00     0.006 C 
ENDBRANCH   8  11
ENDBRANCH   7   8
ENDBRANCH   1   7
BRANCH   6  13
ATOM     13  N   LIG d   1      -8.357  94.630 119.536  0.00  0.00    -0.311 N 
ATOM     14  C   LIG d   1      -9.550  94.150 119.884  0.00  0.00     0.210 C 
ATOM     15  C   LIG d   1     -10.398  95.090 120.748  0.00  0.00     0.109 C 
ATOM     16  O   LIG d   1      -9.974  93.023 119.587  0.00  0.00    -0.276 OA
ATOM     17  H   LIG d   1      -8.082  95.541 119.848  0.00  0.00     0.149 HD
ENDBRANCH   6  13
BRANCH   5  18
ATOM     18  N   LIG d   1      -8.365  94.620 116.481  0.00  0.00     0.381 N 
ATOM     19  H   LIG d   1      -8.258  95.469 116.999  0.00  0.00    -0.090 HD
ATOM     20  H   LIG d   1      -9.330  94.534 116.213  0.00  0.00    -0.090 HD
ATOM     21  H   LIG d   1      -7.788  94.642 115.670  0.00  0.00    -0.090 HD
ENDBRANCH   5  18
BRANCH   3  22
ATOM     22  C   LIG d   1      -6.050  90.431 116.635  0.00  0.00     0.382 C 
ATOM     23  O   LIG d   1      -4.844  90.084 116.651  0.00  0.00    -0.241 OA
ATOM     24  O   LIG d   1      -6.870  89.766 115.975  0.00  0.00    -0.241 OA
ENDBRANCH   3  22
TORSDOF 7
ENDMDL
MODEL 7
REMARK VINA RESULT:      -4.7     31.761     33.636
REMARK  7 active torsions:
REMARK  status: ('A' for Active; 'I' for Inactive)
REMARK    1  A    between atoms: C_2  and  C_3 
REMARK    2  A    between atoms: C_3  and  O_6 
REMARK    3  A    between atoms: C_3  and  C_4 
REMARK    4  A    between atoms: C_7  and  O_6 
REMARK    5  A    between atoms: C_9  and  C_10 
REMARK    6  A    between atoms: N_15  and  C_14 
REMARK    7  A    between atoms: N_20  and  C_19 
REMARK       I    between atoms: C_22  and  N_20 
ROOT
ATOM      1  C   LIG d   1      -5.040  92.496 118.830  0.00  0.00     0.161 C 
ATOM      2  C   LIG d   1      -6.256  93.199 118.806  0.00  0.00     0.016 C 
ATOM      3  C   LIG d   1      -7.285  92.944 117.870  0.00  0.00     0.038 C 
ATOM      4  C   LIG d   1      -7.227  91.859 116.983  0.00  0.00     0.028 C 
ATOM      5  C   LIG d   1      -5.804  91.436 116.634  0.00  0.00    -0.047 C 
ATOM      6  C   LIG d   1      -5.005  91.235 117.942  0.00  0.00     0.091 C 
ENDROOT
BRANCH   1   7
ATOM      7  O   LIG d   1      -4.696  92.162 120.189  0.00  0.00    -0.368 OA
BRANCH   7   8
ATOM      8  C   LIG d   1      -3.595  92.905 120.769  0.00  0.00     0.119 C 
BRANCH   8   9
ATOM      9  C   LIG d   1      -2.896  93.664 119.625  0.00  0.00     0.028 C 
ATOM     10  C   LIG d   1      -1.404  93.310 119.511  0.00  0.00     0.006 C 
ENDBRANCH   8   9
BRANCH   8  11
ATOM     11  C   LIG d   1      -2.530  91.966 121.343  0.00  0.00     0.028 C 
ATOM     12  C   LIG d   1      -3.134  90.752 122.068  0.00  0.00     0.006 C 
ENDBRANCH   8  11
ENDBRANCH   7   8
ENDBRANCH   1   7
BRANCH   6  13
ATOM     13  N   LIG d   1      -3.579  90.902 117.689  0.00  0.00    -0.311 N 
ATOM     14  C   LIG d   1      -2.966  89.849 118.226  0.00  0.00     0.210 C 
ATOM     15  C   LIG d   1      -1.488  89.700 117.851  0.00  0.00     0.109 C 
ATOM     16  O   LIG d   1      -3.514  89.005 118.952  0.00  0.00    -0.276 OA
ATOM     17  H   LIG d   1      -3.067  91.516 117.087  0.00  0.00     0.149 HD
ENDBRANCH   6  13
BRANCH   5  18
ATOM     18  N   LIG d   1      -5.891  90.212 115.815  0.00  0.00     0.381 N 
ATOM     19  H   LIG d   1      -5.474  90.373 114.920  0.00  0.00    -0.090 HD
ATOM     20  H   LIG d   1      -6.859  89.983 115.675  0.00  0.00    -0.090 HD
ATOM     21  H   LIG d   1      -5.427  89.460 116.276  0.00  0.00    -0.090 HD
ENDBRANCH   5  18
BRANCH   3  22
ATOM     22  C   LIG d   1      -8.369  93.805 117.788  0.00  0.00     0.382 C 
ATOM     23  O   LIG d   1      -8.637  94.373 116.702  0.00  0.00    -0.241 OA
ATOM     24  O   LIG d   1      -9.054  94.055 118.798  0.00  0.00    -0.241 OA
ENDBRANCH   3  22
TORSDOF 7
ENDMDL
MODEL 8
REMARK VINA RESULT:      -4.7      1.941      5.179
REMARK  7 active torsions:
REMARK  status: ('A' for Active; 'I' for Inactive)
REMARK    1  A    between atoms: C_2  and  C_3 
REMARK    2  A    between atoms: C_3  and  O_6 
REMARK    3  A    between atoms: C_3  and  C_4 
REMARK    4  A    between atoms: C_7  and  O_6 
REMARK    5  A    between atoms: C_9  and  C_10 
REMARK    6  A    between atoms: N_15  and  C_14 
REMARK    7  A    between atoms: N_20  and  C_19 
REMARK       I    between atoms: C_22  and  N_20 
ROOT
ATOM      1  C   LIG d   1      -0.615  57.424 118.650  0.00  0.00     0.161 C 
ATOM      2  C   LIG d   1      -1.955  57.096 118.386  0.00  0.00     0.016 C 
ATOM      3  C   LIG d   1      -3.005  58.042 118.398  0.00  0.00     0.038 C 
ATOM      4  C   LIG d   1      -2.762  59.418 118.529  0.00  0.00     0.028 C 
ATOM      5  C   LIG d   1      -1.486  59.737 119.301  0.00  0.00    -0.047 C 
ATOM      6  C   LIG d   1      -0.315  58.938 118.685  0.00  0.00     0.091 C 
ENDROOT
BRANCH   1   7
ATOM      7  O   LIG d   1       0.247  56.765 117.701  0.00  0.00    -0.368 OA
BRANCH   7   8
ATOM      8  C   LIG d   1       0.767  55.474 118.103  0.00  0.00     0.119 C 
BRANCH   8   9
ATOM      9  C   LIG d   1       2.218  55.686 118.576  0.00  0.00     0.028 C 
ATOM     10  C   LIG d   1       2.327  55.791 120.107  0.00  0.00     0.006 C 
ENDBRANCH   8   9
BRANCH   8  11
ATOM     11  C   LIG d   1       0.865  54.517 116.911  0.00  0.00     0.028 C 
ATOM     12  C   LIG d   1       2.075  53.573 117.003  0.00  0.00     0.006 C 
ENDBRANCH   8  11
ENDBRANCH   7   8
ENDBRANCH   1   7
BRANCH   6  13
ATOM     13  N   LIG d   1       0.955  59.127 119.433  0.00  0.00    -0.311 N 
ATOM     14  C   LIG d   1       2.060  59.634 118.887  0.00  0.00     0.210 C 
ATOM     15  C   LIG d   1       3.264  59.725 119.829  0.00  0.00     0.109 C 
ATOM     16  O   LIG d   1       2.146  60.046 117.721  0.00  0.00    -0.276 OA
ATOM     17  H   LIG d   1       0.965  58.848 120.395  0.00  0.00     0.149 HD
ENDBRANCH   6  13
BRANCH   5  18
ATOM     18  N   LIG d   1      -1.284  61.197 119.242  0.00  0.00     0.381 N 
ATOM     19  H   LIG d   1      -0.928  61.524 120.118  0.00  0.00    -0.090 HD
ATOM     20  H   LIG d   1      -2.169  61.641 119.076  0.00  0.00    -0.090 HD
ATOM     21  H   LIG d   1      -0.647  61.424 118.511  0.00  0.00    -0.090 HD
ENDBRANCH   5  18
BRANCH   3  22
ATOM     22  C   LIG d   1      -4.320  57.610 118.319  0.00  0.00     0.382 C 
ATOM     23  O   LIG d   1      -5.254  58.447 118.293  0.00  0.00    -0.241 OA
ATOM     24  O   LIG d   1      -4.586  56.393 118.318  0.00  0.00    -0.241 OA
ENDBRANCH   3  22
TORSDOF 7
ENDMDL
MODEL 9
REMARK VINA RESULT:      -4.7     33.095     34.915
REMARK  7 active torsions:
REMARK  status: ('A' for Active; 'I' for Inactive)
REMARK    1  A    between atoms: C_2  and  C_3 
REMARK    2  A    between atoms: C_3  and  O_6 
REMARK    3  A    between atoms: C_3  and  C_4 
REMARK    4  A    between atoms: C_7  and  O_6 
REMARK    5  A    between atoms: C_9  and  C_10 
REMARK    6  A    between atoms: N_15  and  C_14 
REMARK    7  A    between atoms: N_20  and  C_19 
REMARK       I    between atoms: C_22  and  N_20 
ROOT
ATOM      1  C   LIG d   1      -4.530  93.691 118.256  0.00  0.00     0.161 C 
ATOM      2  C   LIG d   1      -5.650  94.509 118.036  0.00  0.00     0.016 C 
ATOM      3  C   LIG d   1      -6.823  94.064 117.382  0.00  0.00     0.038 C 
ATOM      4  C   LIG d   1      -7.013  92.718 117.036  0.00  0.00     0.028 C 
ATOM      5  C   LIG d   1      -5.710  91.968 116.784  0.00  0.00    -0.047 C 
ATOM      6  C   LIG d   1      -4.762  92.190 117.985  0.00  0.00     0.091 C 
ENDROOT
BRANCH   1   7
ATOM      7  O   LIG d   1      -4.037  93.887 119.596  0.00  0.00    -0.368 OA
BRANCH   7   8
ATOM      8  C   LIG d   1      -2.929  94.809 119.739  0.00  0.00     0.119 C 
BRANCH   8   9
ATOM      9  C   LIG d   1      -1.823  94.084 120.530  0.00  0.00     0.028 C 
ATOM     10  C   LIG d   1      -0.818  93.369 119.612  0.00  0.00     0.006 C 
ENDBRANCH   8   9
BRANCH   8  11
ATOM     11  C   LIG d   1      -3.316  96.017 120.597  0.00  0.00     0.028 C 
ATOM     12  C   LIG d   1      -3.544  97.290 119.767  0.00  0.00     0.006 C 
ENDBRANCH   8  11
ENDBRANCH   7   8
ENDBRANCH   1   7
BRANCH   6  13
ATOM     13  N   LIG d   1      -3.432  91.558 117.782  0.00  0.00    -0.311 N 
ATOM     14  C   LIG d   1      -3.127  90.337 118.215  0.00  0.00     0.210 C 
ATOM     15  C   LIG d   1      -1.693  89.885 117.918  0.00  0.00     0.109 C 
ATOM     16  O   LIG d   1      -3.916  89.572 118.789  0.00  0.00    -0.276 OA
ATOM     17  H   LIG d   1      -2.741  92.097 117.297  0.00  0.00     0.149 HD
ENDBRANCH   6  13
BRANCH   5  18
ATOM     18  N   LIG d   1      -6.048  90.548 116.568  0.00  0.00     0.381 N 
ATOM     19  H   LIG d   1      -5.326  89.967 116.946  0.00  0.00    -0.090 HD
ATOM     20  H   LIG d   1      -6.108  90.374 115.581  0.00  0.00    -0.090 HD
ATOM     21  H   LIG d   1      -6.918  90.335 117.004  0.00  0.00    -0.090 HD
ENDBRANCH   5  18
BRANCH   3  22
ATOM     22  C   LIG d   1      -7.804  94.980 117.033  0.00  0.00     0.382 C 
ATOM     23  O   LIG d   1      -8.877  94.582 116.518  0.00  0.00    -0.241 OA
ATOM     24  O   LIG d   1      -7.611  96.201 117.184  0.00  0.00    -0.241 OA
ENDBRANCH   3  22
TORSDOF 7
ENDMDL
