MODEL 1
REMARK VINA RESULT:      -5.1      0.000      0.000
REMARK  7 active torsions:
REMARK  status: ('A' for Active; 'I' for Inactive)
REMARK    1  A    between atoms: C_2  and  C_3 
REMARK    2  A    between atoms: C_3  and  O_6 
REMARK    3  A    between atoms: C_3  and  C_4 
REMARK    4  A    between atoms: C_7  and  O_6 
REMARK    5  A    between atoms: C_9  and  C_10 
REMARK    6  A    between atoms: N_15  and  C_14 
REMARK    7  A    between atoms: N_20  and  C_19 
REMARK       I    between atoms: C_22  and  N_20 
ROOT
ATOM      1  C   LIG d   1      -6.678  77.473 117.633  0.00  0.00     0.161 C 
ATOM      2  C   LIG d   1      -8.009  77.807 117.934  0.00  0.00     0.016 C 
ATOM      3  C   LIG d   1      -8.438  79.126 118.209  0.00  0.00     0.038 C 
ATOM      4  C   LIG d   1      -7.587  80.230 118.052  0.00  0.00     0.028 C 
ATOM      5  C   LIG d   1      -6.112  79.890 118.241  0.00  0.00    -0.047 C 
ATOM      6  C   LIG d   1      -5.758  78.679 117.348  0.00  0.00     0.091 C 
ENDROOT
BRANCH   1   7
ATOM      7  O   LIG d   1      -6.644  76.546 116.530  0.00  0.00    -0.368 OA
BRANCH   7   8
ATOM      8  C   LIG d   1      -6.293  75.179 116.858  0.00  0.00     0.119 C 
BRANCH   8   9
ATOM      9  C   LIG d   1      -5.275  74.697 115.806  0.00  0.00     0.028 C 
ATOM     10  C   LIG d   1      -3.826  74.772 116.315  0.00  0.00     0.006 C 
ENDBRANCH   8   9
BRANCH   8  11
ATOM     11  C   LIG d   1      -7.499  74.245 116.714  0.00  0.00     0.028 C 
ATOM     12  C   LIG d   1      -7.094  72.773 116.533  0.00  0.00     0.006 C 
ENDBRANCH   8  11
ENDBRANCH   7   8
ENDBRANCH   1   7
BRANCH   6  13
ATOM     13  N   LIG d   1      -4.354  78.228 117.536  0.00  0.00    -0.311 N 
ATOM     14  C   LIG d   1      -3.350  78.608 116.748  0.00  0.00     0.210 C 
ATOM     15  C   LIG d   1      -1.986  78.011 117.105  0.00  0.00     0.109 C 
ATOM     16  O   LIG d   1      -3.454  79.409 115.807  0.00  0.00    -0.276 OA
ATOM     17  H   LIG d   1      -4.174  77.601 118.296  0.00  0.00     0.149 HD
ENDBRANCH   6  13
BRANCH   5  18
ATOM     18  N   LIG d   1      -5.331  81.098 117.915  0.00  0.00     0.381 N 
ATOM     19  H   LIG d   1      -4.801  81.385 118.713  0.00  0.00    -0.090 HD
ATOM     20  H   LIG d   1      -5.964  81.839 117.674  0.00  0.00    -0.090 HD
ATOM     21  H   LIG d   1      -4.719  80.912 117.151  0.00  0.00    -0.090 HD
ENDBRANCH   5  18
BRANCH   3  22
ATOM     22  C   LIG d   1      -9.721  79.346 118.685  0.00  0.00     0.382 C 
ATOM     23  O   LIG d   1     -10.049  80.483 119.102  0.00  0.00    -0.241 OA
ATOM     24  O   LIG d   1     -10.542  78.411 118.743  0.00  0.00    -0.241 OA
ENDBRANCH   3  22
TORSDOF 7
ENDMDL
MODEL 2
REMARK VINA RESULT:      -5.1      2.106      5.234
REMARK  7 active torsions:
REMARK  status: ('A' for Active; 'I' for Inactive)
REMARK    1  A    between atoms: C_2  and  C_3 
REMARK    2  A    between atoms: C_3  and  O_6 
REMARK    3  A    between atoms: C_3  and  C_4 
REMARK    4  A    between atoms: C_7  and  O_6 
REMARK    5  A    between atoms: C_9  and  C_10 
REMARK    6  A    between atoms: N_15  and  C_14 
REMARK    7  A    between atoms: N_20  and  C_19 
REMARK       I    between atoms: C_22  and  N_20 
ROOT
ATOM      1  C   LIG d   1      -6.863  76.212 116.896  0.00  0.00     0.161 C 
ATOM      2  C   LIG d   1      -7.573  75.001 116.964  0.00  0.00     0.016 C 
ATOM      3  C   LIG d   1      -6.979  73.737 116.741  0.00  0.00     0.038 C 
ATOM      4  C   LIG d   1      -5.593  73.587 116.582  0.00  0.00     0.028 C 
ATOM      5  C   LIG d   1      -4.912  74.823 116.004  0.00  0.00    -0.047 C 
ATOM      6  C   LIG d   1      -5.329  76.059 116.834  0.00  0.00     0.091 C 
ENDROOT
BRANCH   1   7
ATOM      7  O   LIG d   1      -7.238  77.060 117.999  0.00  0.00    -0.368 OA
BRANCH   7   8
ATOM      8  C   LIG d   1      -7.814  78.343 117.650  0.00  0.00     0.119 C 
BRANCH   8   9
ATOM      9  C   LIG d   1      -6.839  79.435 118.133  0.00  0.00     0.028 C 
ATOM     10  C   LIG d   1      -6.009  78.985 119.347  0.00  0.00     0.006 C 
ENDBRANCH   8   9
BRANCH   8  11
ATOM     11  C   LIG d   1      -9.117  78.596 118.414  0.00  0.00     0.028 C 
ATOM     12  C   LIG d   1      -9.509  80.082 118.447  0.00  0.00     0.006 C 
ENDBRANCH   8  11
ENDBRANCH   7   8
ENDBRANCH   1   7
BRANCH   6  13
ATOM     13  N   LIG d   1      -4.774  77.324 116.285  0.00  0.00    -0.311 N 
ATOM     14  C   LIG d   1      -3.647  77.882 116.726  0.00  0.00     0.210 C 
ATOM     15  C   LIG d   1      -3.264  79.195 116.036  0.00  0.00     0.109 C 
ATOM     16  O   LIG d   1      -2.913  77.398 117.600  0.00  0.00    -0.276 OA
ATOM     17  H   LIG d   1      -5.290  77.768 115.551  0.00  0.00     0.149 HD
ENDBRANCH   6  13
BRANCH   5  18
ATOM     18  N   LIG d   1      -3.457  74.580 116.021  0.00  0.00     0.381 N 
ATOM     19  H   LIG d   1      -3.265  73.711 116.479  0.00  0.00    -0.090 HD
ATOM     20  H   LIG d   1      -3.010  75.315 116.539  0.00  0.00    -0.090 HD
ATOM     21  H   LIG d   1      -3.105  74.558 115.090  0.00  0.00    -0.090 HD
ENDBRANCH   5  18
BRANCH   3  22
ATOM     22  C   LIG d   1      -7.780  72.611 116.635  0.00  0.00     0.382 C 
ATOM     23  O   LIG d   1      -9.027  72.732 116.574  0.00  0.00    -0.241 OA
ATOM     24  O   LIG d   1      -7.274  71.473 116.644  0.00  0.00    -0.241 OA
ENDBRANCH   3  22
TORSDOF 7
ENDMDL
MODEL 3
REMARK VINA RESULT:      -5.0      3.036      4.834
REMARK  7 active torsions:
REMARK  status: ('A' for Active; 'I' for Inactive)
REMARK    1  A    between atoms: C_2  and  C_3 
REMARK    2  A    between atoms: C_3  and  O_6 
REMARK    3  A    between atoms: C_3  and  C_4 
REMARK    4  A    between atoms: C_7  and  O_6 
REMARK    5  A    between atoms: C_9  and  C_10 
REMARK    6  A    between atoms: N_15  and  C_14 
REMARK    7  A    between atoms: N_20  and  C_19 
REMARK       I    between atoms: C_22  and  N_20 
ROOT
ATOM      1  C   LIG d   1      -4.658  75.243 116.948  0.00  0.00     0.161 C 
ATOM      2  C   LIG d   1      -5.371  74.055 116.715  0.00  0.00     0.016 C 
ATOM      3  C   LIG d   1      -6.783  73.983 116.712  0.00  0.00     0.038 C 
ATOM      4  C   LIG d   1      -7.585  75.131 116.793  0.00  0.00     0.028 C 
ATOM      5  C   LIG d   1      -6.917  76.285 117.533  0.00  0.00    -0.047 C 
ATOM      6  C   LIG d   1      -5.515  76.526 116.927  0.00  0.00     0.091 C 
ENDROOT
BRANCH   1   7
ATOM      7  O   LIG d   1      -3.570  75.352 116.009  0.00  0.00    -0.368 OA
BRANCH   7   8
ATOM      8  C   LIG d   1      -2.237  75.337 116.574  0.00  0.00     0.119 C 
BRANCH   8   9
ATOM      9  C   LIG d   1      -1.397  76.376 115.805  0.00  0.00     0.028 C 
ATOM     10  C   LIG d   1      -0.604  77.300 116.744  0.00  0.00     0.006 C 
ENDBRANCH   8   9
BRANCH   8  11
ATOM     11  C   LIG d   1      -1.542  73.994 116.330  0.00  0.00     0.028 C 
ATOM     12  C   LIG d   1      -0.595  73.597 117.473  0.00  0.00     0.006 C 
ENDBRANCH   8  11
ENDBRANCH   7   8
ENDBRANCH   1   7
BRANCH   6  13
ATOM     13  N   LIG d   1      -4.760  77.583 117.648  0.00  0.00    -0.311 N 
ATOM     14  C   LIG d   1      -4.115  78.573 117.033  0.00  0.00     0.210 C 
ATOM     15  C   LIG d   1      -3.383  79.544 117.964  0.00  0.00     0.109 C 
ATOM     16  O   LIG d   1      -4.106  78.756 115.807  0.00  0.00    -0.276 OA
ATOM     17  H   LIG d   1      -4.740  77.528 118.648  0.00  0.00     0.149 HD
ENDBRANCH   6  13
BRANCH   5  18
ATOM     18  N   LIG d   1      -7.804  77.458 117.422  0.00  0.00     0.381 N 
ATOM     19  H   LIG d   1      -7.565  78.131 118.124  0.00  0.00    -0.090 HD
ATOM     20  H   LIG d   1      -8.752  77.165 117.576  0.00  0.00    -0.090 HD
ATOM     21  H   LIG d   1      -7.718  77.867 116.518  0.00  0.00    -0.090 HD
ENDBRANCH   5  18
BRANCH   3  22
ATOM     22  C   LIG d   1      -7.408  72.745 116.668  0.00  0.00     0.382 C 
ATOM     23  O   LIG d   1      -6.721  71.696 116.685  0.00  0.00    -0.241 OA
ATOM     24  O   LIG d   1      -8.647  72.667 116.567  0.00  0.00    -0.241 OA
ENDBRANCH   3  22
TORSDOF 7
ENDMDL
MODEL 4
REMARK VINA RESULT:      -5.0     13.554     16.225
REMARK  7 active torsions:
REMARK  status: ('A' for Active; 'I' for Inactive)
REMARK    1  A    between atoms: C_2  and  C_3 
REMARK    2  A    between atoms: C_3  and  O_6 
REMARK    3  A    between atoms: C_3  and  C_4 
REMARK    4  A    between atoms: C_7  and  O_6 
REMARK    5  A    between atoms: C_9  and  C_10 
REMARK    6  A    between atoms: N_15  and  C_14 
REMARK    7  A    between atoms: N_20  and  C_19 
REMARK       I    between atoms: C_22  and  N_20 
ROOT
ATOM      1  C   LIG d   1      -1.138  92.246 117.606  0.00  0.00     0.161 C 
ATOM      2  C   LIG d   1       0.234  92.530 117.706  0.00  0.00     0.016 C 
ATOM      3  C   LIG d   1       0.749  93.838 117.857  0.00  0.00     0.038 C 
ATOM      4  C   LIG d   1      -0.087  94.943 118.071  0.00  0.00     0.028 C 
ATOM      5  C   LIG d   1      -1.480  94.775 117.473  0.00  0.00    -0.047 C 
ATOM      6  C   LIG d   1      -2.069  93.427 117.949  0.00  0.00     0.091 C 
ENDROOT
BRANCH   1   7
ATOM      7  O   LIG d   1      -1.461  91.101 118.419  0.00  0.00    -0.368 OA
BRANCH   7   8
ATOM      8  C   LIG d   1      -1.607  89.841 117.718  0.00  0.00     0.119 C 
BRANCH   8   9
ATOM      9  C   LIG d   1      -3.096  89.448 117.779  0.00  0.00     0.028 C 
ATOM     10  C   LIG d   1      -3.796  89.591 116.417  0.00  0.00     0.006 C 
ENDBRANCH   8   9
BRANCH   8  11
ATOM     11  C   LIG d   1      -0.860  88.713 118.436  0.00  0.00     0.028 C 
ATOM     12  C   LIG d   1      -1.505  88.333 119.779  0.00  0.00     0.006 C 
ENDBRANCH   8  11
ENDBRANCH   7   8
ENDBRANCH   1   7
BRANCH   6  13
ATOM     13  N   LIG d   1      -3.397  93.144 117.342  0.00  0.00    -0.311 N 
ATOM     14  C   LIG d   1      -4.487  92.874 118.058  0.00  0.00     0.210 C 
ATOM     15  C   LIG d   1      -5.747  92.592 117.234  0.00  0.00     0.109 C 
ATOM     16  O   LIG d   1      -4.537  92.873 119.297  0.00  0.00    -0.276 OA
ATOM     17  H   LIG d   1      -3.453  93.155 116.343  0.00  0.00     0.149 HD
ENDBRANCH   6  13
BRANCH   5  18
ATOM     18  N   LIG d   1      -2.287  95.937 117.888  0.00  0.00     0.381 N 
ATOM     19  H   LIG d   1      -3.102  95.627 118.378  0.00  0.00    -0.090 HD
ATOM     20  H   LIG d   1      -2.583  96.437 117.068  0.00  0.00    -0.090 HD
ATOM     21  H   LIG d   1      -1.747  96.536 118.474  0.00  0.00    -0.090 HD
ENDBRANCH   5  18
BRANCH   3  22
ATOM     22  C   LIG d   1       2.115  94.054 117.755  0.00  0.00     0.382 C 
ATOM     23  O   LIG d   1       2.623  94.336 116.643  0.00  0.00    -0.241 OA
ATOM     24  O   LIG d   1       2.851  93.928 118.752  0.00  0.00    -0.241 OA
ENDBRANCH   3  22
TORSDOF 7
ENDMDL
MODEL 5
REMARK VINA RESULT:      -4.7      2.035      5.145
REMARK  7 active torsions:
REMARK  status: ('A' for Active; 'I' for Inactive)
REMARK    1  A    between atoms: C_2  and  C_3 
REMARK    2  A    between atoms: C_3  and  O_6 
REMARK    3  A    between atoms: C_3  and  C_4 
REMARK    4  A    between atoms: C_7  and  O_6 
REMARK    5  A    between atoms: C_9  and  C_10 
REMARK    6  A    between atoms: N_15  and  C_14 
REMARK    7  A    between atoms: N_20  and  C_19 
REMARK       I    between atoms: C_22  and  N_20 
ROOT
ATOM      1  C   LIG d   1      -5.166  78.051 117.188  0.00  0.00     0.161 C 
ATOM      2  C   LIG d   1      -5.316  76.732 116.728  0.00  0.00     0.016 C 
ATOM      3  C   LIG d   1      -6.556  76.054 116.702  0.00  0.00     0.038 C 
ATOM      4  C   LIG d   1      -7.764  76.704 116.995  0.00  0.00     0.028 C 
ATOM      5  C   LIG d   1      -7.601  77.885 117.946  0.00  0.00    -0.047 C 
ATOM      6  C   LIG d   1      -6.490  78.814 117.407  0.00  0.00     0.091 C 
ENDROOT
BRANCH   1   7
ATOM      7  O   LIG d   1      -4.307  78.786 116.294  0.00  0.00    -0.368 OA
BRANCH   7   8
ATOM      8  C   LIG d   1      -2.998  79.133 116.811  0.00  0.00     0.119 C 
BRANCH   8   9
ATOM      9  C   LIG d   1      -2.954  80.666 116.964  0.00  0.00     0.028 C 
ATOM     10  C   LIG d   1      -2.287  81.106 118.278  0.00  0.00     0.006 C 
ENDBRANCH   8   9
BRANCH   8  11
ATOM     11  C   LIG d   1      -1.894  78.794 115.805  0.00  0.00     0.028 C 
ATOM     12  C   LIG d   1      -1.506  77.307 115.827  0.00  0.00     0.006 C 
ENDBRANCH   8  11
ENDBRANCH   7   8
ENDBRANCH   1   7
BRANCH   6  13
ATOM     13  N   LIG d   1      -6.208  79.951 118.322  0.00  0.00    -0.311 N 
ATOM     14  C   LIG d   1      -6.765  81.153 118.191  0.00  0.00     0.210 C 
ATOM     15  C   LIG d   1      -6.321  82.188 119.230  0.00  0.00     0.109 C 
ATOM     16  O   LIG d   1      -7.610  81.452 117.333  0.00  0.00    -0.276 OA
ATOM     17  H   LIG d   1      -5.557  79.787 119.066  0.00  0.00     0.149 HD
ENDBRANCH   6  13
BRANCH   5  18
ATOM     18  N   LIG d   1      -8.911  78.553 118.056  0.00  0.00     0.381 N 
ATOM     19  H   LIG d   1      -9.630  77.948 117.713  0.00  0.00    -0.090 HD
ATOM     20  H   LIG d   1      -8.901  79.383 117.490  0.00  0.00    -0.090 HD
ATOM     21  H   LIG d   1      -9.094  78.792 119.006  0.00  0.00    -0.090 HD
ENDBRANCH   5  18
BRANCH   3  22
ATOM     22  C   LIG d   1      -6.591  74.697 116.418  0.00  0.00     0.382 C 
ATOM     23  O   LIG d   1      -5.567  74.122 115.977  0.00  0.00    -0.241 OA
ATOM     24  O   LIG d   1      -7.647  74.050 116.555  0.00  0.00    -0.241 OA
ENDBRANCH   3  22
TORSDOF 7
ENDMDL
MODEL 6
REMARK VINA RESULT:      -4.7     19.293     21.497
REMARK  7 active torsions:
REMARK  status: ('A' for Active; 'I' for Inactive)
REMARK    1  A    between atoms: C_2  and  C_3 
REMARK    2  A    between atoms: C_3  and  O_6 
REMARK    3  A    between atoms: C_3  and  C_4 
REMARK    4  A    between atoms: C_7  and  O_6 
REMARK    5  A    between atoms: C_9  and  C_10 
REMARK    6  A    between atoms: N_15  and  C_14 
REMARK    7  A    between atoms: N_20  and  C_19 
REMARK       I    between atoms: C_22  and  N_20 
ROOT
ATOM      1  C   LIG d   1      -1.432  57.663 116.914  0.00  0.00     0.161 C 
ATOM      2  C   LIG d   1      -2.350  58.616 117.384  0.00  0.00     0.016 C 
ATOM      3  C   LIG d   1      -3.401  58.309 118.279  0.00  0.00     0.038 C 
ATOM      4  C   LIG d   1      -3.514  57.049 118.885  0.00  0.00     0.028 C 
ATOM      5  C   LIG d   1      -2.912  55.921 118.054  0.00  0.00    -0.047 C 
ATOM      6  C   LIG d   1      -1.471  56.308 117.651  0.00  0.00     0.091 C 
ENDROOT
BRANCH   1   7
ATOM      7  O   LIG d   1      -0.099  58.212 116.945  0.00  0.00    -0.368 OA
BRANCH   7   8
ATOM      8  C   LIG d   1       0.595  58.128 118.214  0.00  0.00     0.119 C 
BRANCH   8   9
ATOM      9  C   LIG d   1       0.727  59.561 118.765  0.00  0.00     0.028 C 
ATOM     10  C   LIG d   1      -0.182  59.809 119.981  0.00  0.00     0.006 C 
ENDBRANCH   8   9
BRANCH   8  11
ATOM     11  C   LIG d   1       2.031  57.629 118.032  0.00  0.00     0.028 C 
ATOM     12  C   LIG d   1       3.071  58.757 118.133  0.00  0.00     0.006 C 
ENDBRANCH   8  11
ENDBRANCH   7   8
ENDBRANCH   1   7
BRANCH   6  13
ATOM     13  N   LIG d   1      -0.839  55.296 116.765  0.00  0.00    -0.311 N 
ATOM     14  C   LIG d   1       0.003  54.362 117.203  0.00  0.00     0.210 C 
ATOM     15  C   LIG d   1       0.556  53.430 116.120  0.00  0.00     0.109 C 
ATOM     16  O   LIG d   1       0.320  54.197 118.390  0.00  0.00    -0.276 OA
ATOM     17  H   LIG d   1      -1.066  55.337 115.790  0.00  0.00     0.149 HD
ENDBRANCH   6  13
BRANCH   5  18
ATOM     18  N   LIG d   1      -2.975  54.689 118.863  0.00  0.00     0.381 N 
ATOM     19  H   LIG d   1      -2.421  54.797 119.689  0.00  0.00    -0.090 HD
ATOM     20  H   LIG d   1      -2.596  53.928 118.327  0.00  0.00    -0.090 HD
ATOM     21  H   LIG d   1      -3.920  54.492 119.112  0.00  0.00    -0.090 HD
ENDBRANCH   5  18
BRANCH   3  22
ATOM     22  C   LIG d   1      -4.378  59.257 118.544  0.00  0.00     0.382 C 
ATOM     23  O   LIG d   1      -5.305  59.449 117.721  0.00  0.00    -0.241 OA
ATOM     24  O   LIG d   1      -4.318  59.954 119.574  0.00  0.00    -0.241 OA
ENDBRANCH   3  22
TORSDOF 7
ENDMDL
MODEL 7
REMARK VINA RESULT:      -4.7     13.200     15.645
REMARK  7 active torsions:
REMARK  status: ('A' for Active; 'I' for Inactive)
REMARK    1  A    between atoms: C_2  and  C_3 
REMARK    2  A    between atoms: C_3  and  O_6 
REMARK    3  A    between atoms: C_3  and  C_4 
REMARK    4  A    between atoms: C_7  and  O_6 
REMARK    5  A    between atoms: C_9  and  C_10 
REMARK    6  A    between atoms: N_15  and  C_14 
REMARK    7  A    between atoms: N_20  and  C_19 
REMARK       I    between atoms: C_22  and  N_20 
ROOT
ATOM      1  C   LIG d   1      -2.378  91.958 117.862  0.00  0.00     0.161 C 
ATOM      2  C   LIG d   1      -2.911  90.872 117.149  0.00  0.00     0.016 C 
ATOM      3  C   LIG d   1      -4.269  90.782 116.768  0.00  0.00     0.038 C 
ATOM      4  C   LIG d   1      -5.161  91.851 116.943  0.00  0.00     0.028 C 
ATOM      5  C   LIG d   1      -4.791  92.764 118.108  0.00  0.00    -0.047 C 
ATOM      6  C   LIG d   1      -3.310  93.184 117.965  0.00  0.00     0.091 C 
ENDROOT
BRANCH   1   7
ATOM      7  O   LIG d   1      -1.109  92.340 117.295  0.00  0.00    -0.368 OA
BRANCH   7   8
ATOM      8  C   LIG d   1       0.061  92.050 118.098  0.00  0.00     0.119 C 
BRANCH   8   9
ATOM      9  C   LIG d   1       0.960  93.302 118.076  0.00  0.00     0.028 C 
ATOM     10  C   LIG d   1       1.410  93.727 119.484  0.00  0.00     0.006 C 
ENDBRANCH   8   9
BRANCH   8  11
ATOM     11  C   LIG d   1       0.904  90.935 117.473  0.00  0.00     0.028 C 
ATOM     12  C   LIG d   1       0.893  89.643 118.304  0.00  0.00     0.006 C 
ENDBRANCH   8  11
ENDBRANCH   7   8
ENDBRANCH   1   7
BRANCH   6  13
ATOM     13  N   LIG d   1      -2.842  94.010 119.109  0.00  0.00    -0.311 N 
ATOM     14  C   LIG d   1      -2.135  95.129 118.964  0.00  0.00     0.210 C 
ATOM     15  C   LIG d   1      -1.737  95.817 120.274  0.00  0.00     0.109 C 
ATOM     16  O   LIG d   1      -1.827  95.635 117.874  0.00  0.00    -0.276 OA
ATOM     17  H   LIG d   1      -3.075  93.689 120.028  0.00  0.00     0.149 HD
ENDBRANCH   6  13
BRANCH   5  18
ATOM     18  N   LIG d   1      -5.721  93.908 118.090  0.00  0.00     0.381 N 
ATOM     19  H   LIG d   1      -6.419  93.766 117.388  0.00  0.00    -0.090 HD
ATOM     20  H   LIG d   1      -5.207  94.741 117.860  0.00  0.00    -0.090 HD
ATOM     21  H   LIG d   1      -6.152  94.011 118.982  0.00  0.00    -0.090 HD
ENDBRANCH   5  18
BRANCH   3  22
ATOM     22  C   LIG d   1      -4.758  89.597 116.239  0.00  0.00     0.382 C 
ATOM     23  O   LIG d   1      -5.993  89.374 116.237  0.00  0.00    -0.241 OA
ATOM     24  O   LIG d   1      -3.977  88.729 115.805  0.00  0.00    -0.241 OA
ENDBRANCH   3  22
TORSDOF 7
ENDMDL
MODEL 8
REMARK VINA RESULT:      -4.7     18.833     20.845
REMARK  7 active torsions:
REMARK  status: ('A' for Active; 'I' for Inactive)
REMARK    1  A    between atoms: C_2  and  C_3 
REMARK    2  A    between atoms: C_3  and  O_6 
REMARK    3  A    between atoms: C_3  and  C_4 
REMARK    4  A    between atoms: C_7  and  O_6 
REMARK    5  A    between atoms: C_9  and  C_10 
REMARK    6  A    between atoms: N_15  and  C_14 
REMARK    7  A    between atoms: N_20  and  C_19 
REMARK       I    between atoms: C_22  and  N_20 
ROOT
ATOM      1  C   LIG d   1       0.632  58.088 119.711  0.00  0.00     0.161 C 
ATOM      2  C   LIG d   1       2.005  58.380 119.769  0.00  0.00     0.016 C 
ATOM      3  C   LIG d   1       2.744  58.869 118.667  0.00  0.00     0.038 C 
ATOM      4  C   LIG d   1       2.124  59.245 117.466  0.00  0.00     0.028 C 
ATOM      5  C   LIG d   1       0.824  58.495 117.195  0.00  0.00    -0.047 C 
ATOM      6  C   LIG d   1      -0.084  58.597 118.442  0.00  0.00     0.091 C 
ENDROOT
BRANCH   1   7
ATOM      7  O   LIG d   1      -0.024  58.590 120.892  0.00  0.00    -0.368 OA
BRANCH   7   8
ATOM      8  C   LIG d   1      -0.185  60.028 120.970  0.00  0.00     0.119 C 
BRANCH   8   9
ATOM      9  C   LIG d   1       0.310  60.474 122.359  0.00  0.00     0.028 C 
ATOM     10  C   LIG d   1       1.808  60.820 122.365  0.00  0.00     0.006 C 
ENDBRANCH   8   9
BRANCH   8  11
ATOM     11  C   LIG d   1      -1.663  60.426 120.918  0.00  0.00     0.028 C 
ATOM     12  C   LIG d   1      -2.595  59.332 121.461  0.00  0.00     0.006 C 
ENDBRANCH   8  11
ENDBRANCH   7   8
ENDBRANCH   1   7
BRANCH   6  13
ATOM     13  N   LIG d   1      -1.341  57.819 118.293  0.00  0.00    -0.311 N 
ATOM     14  C   LIG d   1      -2.485  58.349 117.862  0.00  0.00     0.210 C 
ATOM     15  C   LIG d   1      -3.666  57.377 117.801  0.00  0.00     0.109 C 
ATOM     16  O   LIG d   1      -2.624  59.525 117.493  0.00  0.00    -0.276 OA
ATOM     17  H   LIG d   1      -1.310  56.850 118.541  0.00  0.00     0.149 HD
ENDBRANCH   6  13
BRANCH   5  18
ATOM     18  N   LIG d   1       0.215  59.081 115.987  0.00  0.00     0.381 N 
ATOM     19  H   LIG d   1      -0.782  59.064 116.068  0.00  0.00    -0.090 HD
ATOM     20  H   LIG d   1       0.476  58.527 115.190  0.00  0.00    -0.090 HD
ATOM     21  H   LIG d   1       0.529  60.019 115.867  0.00  0.00    -0.090 HD
ENDBRANCH   5  18
BRANCH   3  22
ATOM     22  C   LIG d   1       4.126  58.948 118.747  0.00  0.00     0.382 C 
ATOM     23  O   LIG d   1       4.677  59.197 119.847  0.00  0.00    -0.241 OA
ATOM     24  O   LIG d   1       4.827  58.819 117.725  0.00  0.00    -0.241 OA
ENDBRANCH   3  22
TORSDOF 7
ENDMDL
MODEL 9
REMARK VINA RESULT:      -4.7      2.745      5.831
REMARK  7 active torsions:
REMARK  status: ('A' for Active; 'I' for Inactive)
REMARK    1  A    between atoms: C_2  and  C_3 
REMARK    2  A    between atoms: C_3  and  O_6 
REMARK    3  A    between atoms: C_3  and  C_4 
REMARK    4  A    between atoms: C_7  and  O_6 
REMARK    5  A    between atoms: C_9  and  C_10 
REMARK    6  A    between atoms: N_15  and  C_14 
REMARK    7  A    between atoms: N_20  and  C_19 
REMARK       I    between atoms: C_22  and  N_20 
ROOT
ATOM      1  C   LIG d   1      -3.825  76.198 116.193  0.00  0.00     0.161 C 
ATOM      2  C   LIG d   1      -2.904  75.139 116.128  0.00  0.00     0.016 C 
ATOM      3  C   LIG d   1      -1.895  74.925 117.095  0.00  0.00     0.038 C 
ATOM      4  C   LIG d   1      -1.834  75.672 118.281  0.00  0.00     0.028 C 
ATOM      5  C   LIG d   1      -2.429  77.070 118.148  0.00  0.00    -0.047 C 
ATOM      6  C   LIG d   1      -3.844  76.957 117.537  0.00  0.00     0.091 C 
ENDROOT
BRANCH   1   7
ATOM      7  O   LIG d   1      -5.145  75.718 115.870  0.00  0.00    -0.368 OA
BRANCH   7   8
ATOM      8  C   LIG d   1      -5.706  74.738 116.777  0.00  0.00     0.119 C 
BRANCH   8   9
ATOM      9  C   LIG d   1      -6.390  73.654 115.922  0.00  0.00     0.028 C 
ATOM     10  C   LIG d   1      -6.880  72.464 116.765  0.00  0.00     0.006 C 
ENDBRANCH   8   9
BRANCH   8  11
ATOM     11  C   LIG d   1      -6.823  75.345 117.631  0.00  0.00     0.028 C 
ATOM     12  C   LIG d   1      -7.719  76.312 116.841  0.00  0.00     0.006 C 
ENDBRANCH   8  11
ENDBRANCH   7   8
ENDBRANCH   1   7
BRANCH   6  13
ATOM     13  N   LIG d   1      -4.464  78.285 117.294  0.00  0.00    -0.311 N 
ATOM     14  C   LIG d   1      -5.315  78.863 118.141  0.00  0.00     0.210 C 
ATOM     15  C   LIG d   1      -5.853  80.224 117.689  0.00  0.00     0.109 C 
ATOM     16  O   LIG d   1      -5.650  78.391 119.238  0.00  0.00    -0.276 OA
ATOM     17  H   LIG d   1      -4.223  78.753 116.442  0.00  0.00     0.149 HD
ENDBRANCH   6  13
BRANCH   5  18
ATOM     18  N   LIG d   1      -2.425  77.685 119.488  0.00  0.00     0.381 N 
ATOM     19  H   LIG d   1      -1.526  78.082 119.676  0.00  0.00    -0.090 HD
ATOM     20  H   LIG d   1      -2.605  76.973 120.173  0.00  0.00    -0.090 HD
ATOM     21  H   LIG d   1      -3.125  78.391 119.541  0.00  0.00    -0.090 HD
ENDBRANCH   5  18
BRANCH   3  22
ATOM     22  C   LIG d   1      -0.908  73.979 116.861  0.00  0.00     0.382 C 
ATOM     23  O   LIG d   1       0.017  73.819 117.692  0.00  0.00    -0.241 OA
ATOM     24  O   LIG d   1      -0.907  73.315 115.807  0.00  0.00    -0.241 OA
ENDBRANCH   3  22
TORSDOF 7
ENDMDL
