MODEL 1
REMARK VINA RESULT:      -5.2      0.000      0.000
REMARK  7 active torsions:
REMARK  status: ('A' for Active; 'I' for Inactive)
REMARK    1  A    between atoms: C_2  and  C_3 
REMARK    2  A    between atoms: C_3  and  O_6 
REMARK    3  A    between atoms: C_3  and  C_4 
REMARK    4  A    between atoms: C_7  and  O_6 
REMARK    5  A    between atoms: C_9  and  C_10 
REMARK    6  A    between atoms: N_15  and  C_14 
REMARK    7  A    between atoms: N_20  and  C_19 
REMARK       I    between atoms: C_22  and  N_20 
ROOT
ATOM      1  C   LIG d   1       0.209  58.462 119.522  0.00  0.00     0.161 C 
ATOM      2  C   LIG d   1      -1.158  58.194 119.343  0.00  0.00     0.016 C 
ATOM      3  C   LIG d   1      -1.843  58.419 118.126  0.00  0.00     0.038 C 
ATOM      4  C   LIG d   1      -1.167  58.786 116.953  0.00  0.00     0.028 C 
ATOM      5  C   LIG d   1       0.125  59.553 117.213  0.00  0.00    -0.047 C 
ATOM      6  C   LIG d   1       0.986  58.758 118.222  0.00  0.00     0.091 C 
ENDROOT
BRANCH   1   7
ATOM      7  O   LIG d   1       0.829  57.377 120.240  0.00  0.00    -0.368 OA
BRANCH   7   8
ATOM      8  C   LIG d   1       0.262  56.062 120.021  0.00  0.00     0.119 C 
BRANCH   8   9
ATOM      9  C   LIG d   1       0.206  55.349 121.387  0.00  0.00     0.028 C 
ATOM     10  C   LIG d   1       0.051  53.825 121.248  0.00  0.00     0.006 C 
ENDBRANCH   8   9
BRANCH   8  11
ATOM     11  C   LIG d   1       1.178  55.197 119.150  0.00  0.00     0.028 C 
ATOM     12  C   LIG d   1       0.745  55.169 117.676  0.00  0.00     0.006 C 
ENDBRANCH   8  11
ENDBRANCH   7   8
ENDBRANCH   1   7
BRANCH   6  13
ATOM     13  N   LIG d   1       2.231  59.478 118.596  0.00  0.00    -0.311 N 
ATOM     14  C   LIG d   1       3.417  58.883 118.707  0.00  0.00     0.210 C 
ATOM     15  C   LIG d   1       4.567  59.805 119.123  0.00  0.00     0.109 C 
ATOM     16  O   LIG d   1       3.631  57.684 118.471  0.00  0.00    -0.276 OA
ATOM     17  H   LIG d   1       2.153  60.460 118.775  0.00  0.00     0.149 HD
ENDBRANCH   6  13
BRANCH   5  18
ATOM     18  N   LIG d   1       0.795  59.752 115.913  0.00  0.00     0.381 N 
ATOM     19  H   LIG d   1       0.463  60.594 115.487  0.00  0.00    -0.090 HD
ATOM     20  H   LIG d   1       0.567  58.982 115.309  0.00  0.00    -0.090 HD
ATOM     21  H   LIG d   1       1.781  59.802 116.042  0.00  0.00    -0.090 HD
ENDBRANCH   5  18
BRANCH   3  22
ATOM     22  C   LIG d   1      -3.225  58.314 118.085  0.00  0.00     0.382 C 
ATOM     23  O   LIG d   1      -3.908  59.229 117.566  0.00  0.00    -0.241 OA
ATOM     24  O   LIG d   1      -3.799  57.336 118.600  0.00  0.00    -0.241 OA
ENDBRANCH   3  22
TORSDOF 7
ENDMDL
MODEL 2
REMARK VINA RESULT:      -5.1     19.938     21.767
REMARK  7 active torsions:
REMARK  status: ('A' for Active; 'I' for Inactive)
REMARK    1  A    between atoms: C_2  and  C_3 
REMARK    2  A    between atoms: C_3  and  O_6 
REMARK    3  A    between atoms: C_3  and  C_4 
REMARK    4  A    between atoms: C_7  and  O_6 
REMARK    5  A    between atoms: C_9  and  C_10 
REMARK    6  A    between atoms: N_15  and  C_14 
REMARK    7  A    between atoms: N_20  and  C_19 
REMARK       I    between atoms: C_22  and  N_20 
ROOT
ATOM      1  C   LIG d   1      -7.187  77.815 117.960  0.00  0.00     0.161 C 
ATOM      2  C   LIG d   1      -8.343  78.543 118.288  0.00  0.00     0.016 C 
ATOM      3  C   LIG d   1      -8.359  79.948 118.445  0.00  0.00     0.038 C 
ATOM      4  C   LIG d   1      -7.246  80.742 118.134  0.00  0.00     0.028 C 
ATOM      5  C   LIG d   1      -5.917  80.008 118.286  0.00  0.00    -0.047 C 
ATOM      6  C   LIG d   1      -5.988  78.675 117.507  0.00  0.00     0.091 C 
ENDROOT
BRANCH   1   7
ATOM      7  O   LIG d   1      -7.500  76.826 116.959  0.00  0.00    -0.368 OA
BRANCH   7   8
ATOM      8  C   LIG d   1      -8.248  75.672 117.415  0.00  0.00     0.119 C 
BRANCH   8   9
ATOM      9  C   LIG d   1      -7.413  74.420 117.085  0.00  0.00     0.028 C 
ATOM     10  C   LIG d   1      -6.212  74.737 116.179  0.00  0.00     0.006 C 
ENDBRANCH   8   9
BRANCH   8  11
ATOM     11  C   LIG d   1      -9.553  75.508 116.631  0.00  0.00     0.028 C 
ATOM     12  C   LIG d   1     -10.268  74.182 116.935  0.00  0.00     0.006 C 
ENDBRANCH   8  11
ENDBRANCH   7   8
ENDBRANCH   1   7
BRANCH   6  13
ATOM     13  N   LIG d   1      -4.759  77.856 117.673  0.00  0.00    -0.311 N 
ATOM     14  C   LIG d   1      -3.739  77.883 116.817  0.00  0.00     0.210 C 
ATOM     15  C   LIG d   1      -2.578  76.946 117.164  0.00  0.00     0.109 C 
ATOM     16  O   LIG d   1      -3.672  78.618 115.820  0.00  0.00    -0.276 OA
ATOM     17  H   LIG d   1      -4.717  77.254 118.472  0.00  0.00     0.149 HD
ENDBRANCH   6  13
BRANCH   5  18
ATOM     18  N   LIG d   1      -4.854  80.907 117.799  0.00  0.00     0.381 N 
ATOM     19  H   LIG d   1      -4.522  80.588 116.910  0.00  0.00    -0.090 HD
ATOM     20  H   LIG d   1      -4.087  80.886 118.448  0.00  0.00    -0.090 HD
ATOM     21  H   LIG d   1      -5.204  81.836 117.716  0.00  0.00    -0.090 HD
ENDBRANCH   5  18
BRANCH   3  22
ATOM     22  C   LIG d   1      -9.489  80.569 118.957  0.00  0.00     0.382 C 
ATOM     23  O   LIG d   1      -9.427  81.760 119.347  0.00  0.00    -0.241 OA
ATOM     24  O   LIG d   1     -10.557  79.939 119.076  0.00  0.00    -0.241 OA
ENDBRANCH   3  22
TORSDOF 7
ENDMDL
MODEL 3
REMARK VINA RESULT:      -5.0     20.994     22.769
REMARK  7 active torsions:
REMARK  status: ('A' for Active; 'I' for Inactive)
REMARK    1  A    between atoms: C_2  and  C_3 
REMARK    2  A    between atoms: C_3  and  O_6 
REMARK    3  A    between atoms: C_3  and  C_4 
REMARK    4  A    between atoms: C_7  and  O_6 
REMARK    5  A    between atoms: C_9  and  C_10 
REMARK    6  A    between atoms: N_15  and  C_14 
REMARK    7  A    between atoms: N_20  and  C_19 
REMARK       I    between atoms: C_22  and  N_20 
ROOT
ATOM      1  C   LIG d   1      -6.070  79.254 117.854  0.00  0.00     0.161 C 
ATOM      2  C   LIG d   1      -7.450  79.120 118.083  0.00  0.00     0.016 C 
ATOM      3  C   LIG d   1      -8.289  80.203 118.431  0.00  0.00     0.038 C 
ATOM      4  C   LIG d   1      -7.830  81.528 118.426  0.00  0.00     0.028 C 
ATOM      5  C   LIG d   1      -6.334  81.652 118.694  0.00  0.00    -0.047 C 
ATOM      6  C   LIG d   1      -5.572  80.709 117.735  0.00  0.00     0.091 C 
ENDROOT
BRANCH   1   7
ATOM      7  O   LIG d   1      -5.694  78.498 116.685  0.00  0.00    -0.368 OA
BRANCH   7   8
ATOM      8  C   LIG d   1      -5.583  77.064 116.861  0.00  0.00     0.119 C 
BRANCH   8   9
ATOM      9  C   LIG d   1      -4.154  76.657 116.455  0.00  0.00     0.028 C 
ATOM     10  C   LIG d   1      -3.107  77.056 117.509  0.00  0.00     0.006 C 
ENDBRANCH   8   9
BRANCH   8  11
ATOM     11  C   LIG d   1      -6.508  76.312 115.900  0.00  0.00     0.028 C 
ATOM     12  C   LIG d   1      -7.825  75.874 116.561  0.00  0.00     0.006 C 
ENDBRANCH   8  11
ENDBRANCH   7   8
ENDBRANCH   1   7
BRANCH   6  13
ATOM     13  N   LIG d   1      -4.108  80.706 117.987  0.00  0.00    -0.311 N 
ATOM     14  C   LIG d   1      -3.197  80.728 117.016  0.00  0.00     0.210 C 
ATOM     15  C   LIG d   1      -1.741  80.699 117.494  0.00  0.00     0.109 C 
ATOM     16  O   LIG d   1      -3.455  80.801 115.805  0.00  0.00    -0.276 OA
ATOM     17  H   LIG d   1      -3.810  80.679 118.942  0.00  0.00     0.149 HD
ENDBRANCH   6  13
BRANCH   5  18
ATOM     18  N   LIG d   1      -5.966  83.070 118.524  0.00  0.00     0.381 N 
ATOM     19  H   LIG d   1      -5.193  83.294 119.118  0.00  0.00    -0.090 HD
ATOM     20  H   LIG d   1      -6.746  83.643 118.793  0.00  0.00    -0.090 HD
ATOM     21  H   LIG d   1      -5.727  83.249 117.573  0.00  0.00    -0.090 HD
ENDBRANCH   5  18
BRANCH   3  22
ATOM     22  C   LIG d   1      -9.595  79.960 118.829  0.00  0.00     0.382 C 
ATOM     23  O   LIG d   1     -10.191  78.930 118.430  0.00  0.00    -0.241 OA
ATOM     24  O   LIG d   1     -10.200  80.780 119.545  0.00  0.00    -0.241 OA
ENDBRANCH   3  22
TORSDOF 7
ENDMDL
MODEL 4
REMARK VINA RESULT:      -5.0     19.188     21.257
REMARK  7 active torsions:
REMARK  status: ('A' for Active; 'I' for Inactive)
REMARK    1  A    between atoms: C_2  and  C_3 
REMARK    2  A    between atoms: C_3  and  O_6 
REMARK    3  A    between atoms: C_3  and  C_4 
REMARK    4  A    between atoms: C_7  and  O_6 
REMARK    5  A    between atoms: C_9  and  C_10 
REMARK    6  A    between atoms: N_15  and  C_14 
REMARK    7  A    between atoms: N_20  and  C_19 
REMARK       I    between atoms: C_22  and  N_20 
ROOT
ATOM      1  C   LIG d   1      -7.141  77.469 117.192  0.00  0.00     0.161 C 
ATOM      2  C   LIG d   1      -8.353  76.786 117.387  0.00  0.00     0.016 C 
ATOM      3  C   LIG d   1      -8.526  75.411 117.106  0.00  0.00     0.038 C 
ATOM      4  C   LIG d   1      -7.449  74.586 116.750  0.00  0.00     0.028 C 
ATOM      5  C   LIG d   1      -6.317  75.334 116.054  0.00  0.00    -0.047 C 
ATOM      6  C   LIG d   1      -5.926  76.561 116.910  0.00  0.00     0.091 C 
ENDROOT
BRANCH   1   7
ATOM      7  O   LIG d   1      -6.876  78.325 118.321  0.00  0.00    -0.368 OA
BRANCH   7   8
ATOM      8  C   LIG d   1      -6.915  79.750 118.062  0.00  0.00     0.119 C 
BRANCH   8   9
ATOM      9  C   LIG d   1      -5.809  80.405 118.912  0.00  0.00     0.028 C 
ATOM     10  C   LIG d   1      -4.789  81.174 118.056  0.00  0.00     0.006 C 
ENDBRANCH   8   9
BRANCH   8  11
ATOM     11  C   LIG d   1      -8.226  80.370 118.555  0.00  0.00     0.028 C 
ATOM     12  C   LIG d   1      -8.411  81.822 118.087  0.00  0.00     0.006 C 
ENDBRANCH   8  11
ENDBRANCH   7   8
ENDBRANCH   1   7
BRANCH   6  13
ATOM     13  N   LIG d   1      -4.882  77.396 116.261  0.00  0.00    -0.311 N 
ATOM     14  C   LIG d   1      -3.768  77.787 116.877  0.00  0.00     0.210 C 
ATOM     15  C   LIG d   1      -2.834  78.660 116.032  0.00  0.00     0.109 C 
ATOM     16  O   LIG d   1      -3.449  77.468 118.033  0.00  0.00    -0.276 OA
ATOM     17  H   LIG d   1      -5.045  77.674 115.313  0.00  0.00     0.149 HD
ENDBRANCH   6  13
BRANCH   5  18
ATOM     18  N   LIG d   1      -5.205  74.384 115.864  0.00  0.00     0.381 N 
ATOM     19  H   LIG d   1      -5.441  73.725 115.150  0.00  0.00    -0.090 HD
ATOM     20  H   LIG d   1      -5.057  73.881 116.722  0.00  0.00    -0.090 HD
ATOM     21  H   LIG d   1      -4.375  74.875 115.612  0.00  0.00    -0.090 HD
ENDBRANCH   5  18
BRANCH   3  22
ATOM     22  C   LIG d   1      -9.797  74.857 117.140  0.00  0.00     0.382 C 
ATOM     23  O   LIG d   1      -9.950  73.627 116.942  0.00  0.00    -0.241 OA
ATOM     24  O   LIG d   1     -10.796  75.578 117.323  0.00  0.00    -0.241 OA
ENDBRANCH   3  22
TORSDOF 7
ENDMDL
MODEL 5
REMARK VINA RESULT:      -4.9      2.276      3.128
REMARK  7 active torsions:
REMARK  status: ('A' for Active; 'I' for Inactive)
REMARK    1  A    between atoms: C_2  and  C_3 
REMARK    2  A    between atoms: C_3  and  O_6 
REMARK    3  A    between atoms: C_3  and  C_4 
REMARK    4  A    between atoms: C_7  and  O_6 
REMARK    5  A    between atoms: C_9  and  C_10 
REMARK    6  A    between atoms: N_15  and  C_14 
REMARK    7  A    between atoms: N_20  and  C_19 
REMARK       I    between atoms: C_22  and  N_20 
ROOT
ATOM      1  C   LIG d   1       0.286  58.273 118.943  0.00  0.00     0.161 C 
ATOM      2  C   LIG d   1      -0.931  58.932 118.704  0.00  0.00     0.016 C 
ATOM      3  C   LIG d   1      -1.926  58.437 117.830  0.00  0.00     0.038 C 
ATOM      4  C   LIG d   1      -1.834  57.164 117.248  0.00  0.00     0.028 C 
ATOM      5  C   LIG d   1      -0.398  56.685 117.061  0.00  0.00    -0.047 C 
ATOM      6  C   LIG d   1       0.357  56.829 118.403  0.00  0.00     0.091 C 
ENDROOT
BRANCH   1   7
ATOM      7  O   LIG d   1       0.586  58.296 120.352  0.00  0.00    -0.368 OA
BRANCH   7   8
ATOM      8  C   LIG d   1      -0.042  57.265 121.154  0.00  0.00     0.119 C 
BRANCH   8   9
ATOM      9  C   LIG d   1      -1.118  57.945 122.023  0.00  0.00     0.028 C 
ATOM     10  C   LIG d   1      -0.700  59.352 122.480  0.00  0.00     0.006 C 
ENDBRANCH   8   9
BRANCH   8  11
ATOM     11  C   LIG d   1       0.950  56.649 122.145  0.00  0.00     0.028 C 
ATOM     12  C   LIG d   1       2.370  57.219 122.000  0.00  0.00     0.006 C 
ENDBRANCH   8  11
ENDBRANCH   7   8
ENDBRANCH   1   7
BRANCH   6  13
ATOM     13  N   LIG d   1       1.792  56.462 118.287  0.00  0.00    -0.311 N 
ATOM     14  C   LIG d   1       2.308  55.349 118.807  0.00  0.00     0.210 C 
ATOM     15  C   LIG d   1       3.815  55.173 118.591  0.00  0.00     0.109 C 
ATOM     16  O   LIG d   1       1.656  54.476 119.399  0.00  0.00    -0.276 OA
ATOM     17  H   LIG d   1       2.388  57.099 117.796  0.00  0.00     0.149 HD
ENDBRANCH   6  13
BRANCH   5  18
ATOM     18  N   LIG d   1      -0.452  55.294 116.575  0.00  0.00     0.381 N 
ATOM     19  H   LIG d   1      -0.080  54.677 117.270  0.00  0.00    -0.090 HD
ATOM     20  H   LIG d   1       0.115  55.216 115.749  0.00  0.00    -0.090 HD
ATOM     21  H   LIG d   1      -1.393  55.042 116.365  0.00  0.00    -0.090 HD
ENDBRANCH   5  18
BRANCH   3  22
ATOM     22  C   LIG d   1      -3.010  59.235 117.500  0.00  0.00     0.382 C 
ATOM     23  O   LIG d   1      -4.160  58.927 117.897  0.00  0.00    -0.241 OA
ATOM     24  O   LIG d   1      -2.860  60.235 116.773  0.00  0.00    -0.241 OA
ENDBRANCH   3  22
TORSDOF 7
ENDMDL
MODEL 6
REMARK VINA RESULT:      -4.8      2.219      3.582
REMARK  7 active torsions:
REMARK  status: ('A' for Active; 'I' for Inactive)
REMARK    1  A    between atoms: C_2  and  C_3 
REMARK    2  A    between atoms: C_3  and  O_6 
REMARK    3  A    between atoms: C_3  and  C_4 
REMARK    4  A    between atoms: C_7  and  O_6 
REMARK    5  A    between atoms: C_9  and  C_10 
REMARK    6  A    between atoms: N_15  and  C_14 
REMARK    7  A    between atoms: N_20  and  C_19 
REMARK       I    between atoms: C_22  and  N_20 
ROOT
ATOM      1  C   LIG d   1       0.329  58.088 118.998  0.00  0.00     0.161 C 
ATOM      2  C   LIG d   1      -0.852  58.805 118.743  0.00  0.00     0.016 C 
ATOM      3  C   LIG d   1      -1.851  58.365 117.845  0.00  0.00     0.038 C 
ATOM      4  C   LIG d   1      -1.807  57.095 117.251  0.00  0.00     0.028 C 
ATOM      5  C   LIG d   1      -0.391  56.553 117.086  0.00  0.00    -0.047 C 
ATOM      6  C   LIG d   1       0.343  56.648 118.443  0.00  0.00     0.091 C 
ENDROOT
BRANCH   1   7
ATOM      7  O   LIG d   1       0.602  58.083 120.413  0.00  0.00    -0.368 OA
BRANCH   7   8
ATOM      8  C   LIG d   1       1.616  59.011 120.871  0.00  0.00     0.119 C 
BRANCH   8   9
ATOM      9  C   LIG d   1       2.645  59.169 119.734  0.00  0.00     0.028 C 
ATOM     10  C   LIG d   1       3.845  60.038 120.147  0.00  0.00     0.006 C 
ENDBRANCH   8   9
BRANCH   8  11
ATOM     11  C   LIG d   1       2.402  58.439 122.053  0.00  0.00     0.028 C 
ATOM     12  C   LIG d   1       2.765  56.957 121.867  0.00  0.00     0.006 C 
ENDBRANCH   8  11
ENDBRANCH   7   8
ENDBRANCH   1   7
BRANCH   6  13
ATOM     13  N   LIG d   1       1.762  56.216 118.351  0.00  0.00    -0.311 N 
ATOM     14  C   LIG d   1       2.178  54.991 118.669  0.00  0.00     0.210 C 
ATOM     15  C   LIG d   1       3.685  54.761 118.521  0.00  0.00     0.109 C 
ATOM     16  O   LIG d   1       1.437  54.064 119.029  0.00  0.00    -0.276 OA
ATOM     17  H   LIG d   1       2.427  56.897 118.038  0.00  0.00     0.149 HD
ENDBRANCH   6  13
BRANCH   5  18
ATOM     18  N   LIG d   1      -0.499  55.171 116.583  0.00  0.00     0.381 N 
ATOM     19  H   LIG d   1      -0.292  55.149 115.605  0.00  0.00    -0.090 HD
ATOM     20  H   LIG d   1      -1.443  54.850 116.713  0.00  0.00    -0.090 HD
ATOM     21  H   LIG d   1       0.131  54.578 117.077  0.00  0.00    -0.090 HD
ENDBRANCH   5  18
BRANCH   3  22
ATOM     22  C   LIG d   1      -2.891  59.217 117.503  0.00  0.00     0.382 C 
ATOM     23  O   LIG d   1      -2.657  60.261 116.849  0.00  0.00    -0.241 OA
ATOM     24  O   LIG d   1      -4.054  58.976 117.879  0.00  0.00    -0.241 OA
ENDBRANCH   3  22
TORSDOF 7
ENDMDL
MODEL 7
REMARK VINA RESULT:      -4.7      2.671      4.103
REMARK  7 active torsions:
REMARK  status: ('A' for Active; 'I' for Inactive)
REMARK    1  A    between atoms: C_2  and  C_3 
REMARK    2  A    between atoms: C_3  and  O_6 
REMARK    3  A    between atoms: C_3  and  C_4 
REMARK    4  A    between atoms: C_7  and  O_6 
REMARK    5  A    between atoms: C_9  and  C_10 
REMARK    6  A    between atoms: N_15  and  C_14 
REMARK    7  A    between atoms: N_20  and  C_19 
REMARK       I    between atoms: C_22  and  N_20 
ROOT
ATOM      1  C   LIG d   1       1.221  57.248 118.780  0.00  0.00     0.161 C 
ATOM      2  C   LIG d   1       0.695  58.383 119.420  0.00  0.00     0.016 C 
ATOM      3  C   LIG d   1      -0.613  58.868 119.193  0.00  0.00     0.038 C 
ATOM      4  C   LIG d   1      -1.543  58.158 118.418  0.00  0.00     0.028 C 
ATOM      5  C   LIG d   1      -0.898  57.279 117.353  0.00  0.00    -0.047 C 
ATOM      6  C   LIG d   1       0.184  56.398 118.017  0.00  0.00     0.091 C 
ENDROOT
BRANCH   1   7
ATOM      7  O   LIG d   1       1.932  56.435 119.734  0.00  0.00    -0.368 OA
BRANCH   7   8
ATOM      8  C   LIG d   1       3.328  56.765 119.939  0.00  0.00     0.119 C 
BRANCH   8   9
ATOM      9  C   LIG d   1       3.879  57.292 118.600  0.00  0.00     0.028 C 
ATOM     10  C   LIG d   1       4.746  58.550 118.778  0.00  0.00     0.006 C 
ENDBRANCH   8   9
BRANCH   8  11
ATOM     11  C   LIG d   1       4.155  55.515 120.254  0.00  0.00     0.028 C 
ATOM     12  C   LIG d   1       4.274  54.561 119.055  0.00  0.00     0.006 C 
ENDBRANCH   8  11
ENDBRANCH   7   8
ENDBRANCH   1   7
BRANCH   6  13
ATOM     13  N   LIG d   1       0.923  55.567 117.030  0.00  0.00    -0.311 N 
ATOM     14  C   LIG d   1       0.938  54.235 117.059  0.00  0.00     0.210 C 
ATOM     15  C   LIG d   1       1.778  53.575 115.961  0.00  0.00     0.109 C 
ATOM     16  O   LIG d   1       0.311  53.538 117.870  0.00  0.00    -0.276 OA
ATOM     17  H   LIG d   1       1.434  56.051 116.318  0.00  0.00     0.149 HD
ENDBRANCH   6  13
BRANCH   5  18
ATOM     18  N   LIG d   1      -1.971  56.494 116.714  0.00  0.00     0.381 N 
ATOM     19  H   LIG d   1      -1.885  56.550 115.718  0.00  0.00    -0.090 HD
ATOM     20  H   LIG d   1      -2.859  56.884 116.976  0.00  0.00    -0.090 HD
ATOM     21  H   LIG d   1      -1.918  55.543 117.006  0.00  0.00    -0.090 HD
ENDBRANCH   5  18
BRANCH   3  22
ATOM     22  C   LIG d   1      -0.990  60.098 119.712  0.00  0.00     0.382 C 
ATOM     23  O   LIG d   1      -0.450  61.148 119.289  0.00  0.00    -0.241 OA
ATOM     24  O   LIG d   1      -1.831  60.165 120.628  0.00  0.00    -0.241 OA
ENDBRANCH   3  22
TORSDOF 7
ENDMDL
MODEL 8
REMARK VINA RESULT:      -4.5     20.910     22.938
REMARK  7 active torsions:
REMARK  status: ('A' for Active; 'I' for Inactive)
REMARK    1  A    between atoms: C_2  and  C_3 
REMARK    2  A    between atoms: C_3  and  O_6 
REMARK    3  A    between atoms: C_3  and  C_4 
REMARK    4  A    between atoms: C_7  and  O_6 
REMARK    5  A    between atoms: C_9  and  C_10 
REMARK    6  A    between atoms: N_15  and  C_14 
REMARK    7  A    between atoms: N_20  and  C_19 
REMARK       I    between atoms: C_22  and  N_20 
ROOT
ATOM      1  C   LIG d   1      -8.147  78.823 118.127  0.00  0.00     0.161 C 
ATOM      2  C   LIG d   1      -8.709  77.555 117.905  0.00  0.00     0.016 C 
ATOM      3  C   LIG d   1      -7.960  76.435 117.478  0.00  0.00     0.038 C 
ATOM      4  C   LIG d   1      -6.560  76.470 117.389  0.00  0.00     0.028 C 
ATOM      5  C   LIG d   1      -6.005  77.864 117.116  0.00  0.00    -0.047 C 
ATOM      6  C   LIG d   1      -6.604  78.852 118.142  0.00  0.00     0.091 C 
ENDROOT
BRANCH   1   7
ATOM      7  O   LIG d   1      -8.671  79.383 119.347  0.00  0.00    -0.368 OA
BRANCH   7   8
ATOM      8  C   LIG d   1      -9.910  80.125 119.227  0.00  0.00     0.119 C 
BRANCH   8   9
ATOM      9  C   LIG d   1      -9.617  81.382 118.385  0.00  0.00     0.028 C 
ATOM     10  C   LIG d   1      -9.107  82.555 119.240  0.00  0.00     0.006 C 
ENDBRANCH   8   9
BRANCH   8  11
ATOM     11  C   LIG d   1     -10.379  80.649 120.588  0.00  0.00     0.028 C 
ATOM     12  C   LIG d   1      -9.912  79.769 121.758  0.00  0.00     0.006 C 
ENDBRANCH   8  11
ENDBRANCH   7   8
ENDBRANCH   1   7
BRANCH   6  13
ATOM     13  N   LIG d   1      -6.179  80.254 117.894  0.00  0.00    -0.311 N 
ATOM     14  C   LIG d   1      -5.759  81.074 118.856  0.00  0.00     0.210 C 
ATOM     15  C   LIG d   1      -5.387  82.484 118.387  0.00  0.00     0.109 C 
ATOM     16  O   LIG d   1      -5.630  80.758 120.049  0.00  0.00    -0.276 OA
ATOM     17  H   LIG d   1      -6.222  80.584 116.950  0.00  0.00     0.149 HD
ENDBRANCH   6  13
BRANCH   5  18
ATOM     18  N   LIG d   1      -4.534  77.779 117.186  0.00  0.00     0.381 N 
ATOM     19  H   LIG d   1      -4.130  78.630 116.848  0.00  0.00    -0.090 HD
ATOM     20  H   LIG d   1      -4.223  77.027 116.597  0.00  0.00    -0.090 HD
ATOM     21  H   LIG d   1      -4.246  77.616 118.125  0.00  0.00    -0.090 HD
ENDBRANCH   5  18
BRANCH   3  22
ATOM     22  C   LIG d   1      -8.615  75.274 117.096  0.00  0.00     0.382 C 
ATOM     23  O   LIG d   1      -8.033  74.167 117.187  0.00  0.00    -0.241 OA
ATOM     24  O   LIG d   1      -9.765  75.325 116.619  0.00  0.00    -0.241 OA
ENDBRANCH   3  22
TORSDOF 7
ENDMDL
MODEL 9
REMARK VINA RESULT:      -4.5     19.964     21.922
REMARK  7 active torsions:
REMARK  status: ('A' for Active; 'I' for Inactive)
REMARK    1  A    between atoms: C_2  and  C_3 
REMARK    2  A    between atoms: C_3  and  O_6 
REMARK    3  A    between atoms: C_3  and  C_4 
REMARK    4  A    between atoms: C_7  and  O_6 
REMARK    5  A    between atoms: C_9  and  C_10 
REMARK    6  A    between atoms: N_15  and  C_14 
REMARK    7  A    between atoms: N_20  and  C_19 
REMARK       I    between atoms: C_22  and  N_20 
ROOT
ATOM      1  C   LIG d   1      -7.094  78.262 118.042  0.00  0.00     0.161 C 
ATOM      2  C   LIG d   1      -8.077  77.260 118.027  0.00  0.00     0.016 C 
ATOM      3  C   LIG d   1      -7.931  76.036 117.334  0.00  0.00     0.038 C 
ATOM      4  C   LIG d   1      -6.719  75.667 116.730  0.00  0.00     0.028 C 
ATOM      5  C   LIG d   1      -5.874  76.857 116.291  0.00  0.00    -0.047 C 
ATOM      6  C   LIG d   1      -5.722  77.832 117.481  0.00  0.00     0.091 C 
ENDROOT
BRANCH   1   7
ATOM      7  O   LIG d   1      -6.948  78.783 119.378  0.00  0.00    -0.368 OA
BRANCH   7   8
ATOM      8  C   LIG d   1      -7.510  80.097 119.615  0.00  0.00     0.119 C 
BRANCH   8   9
ATOM      9  C   LIG d   1      -8.909  79.898 120.229  0.00  0.00     0.028 C 
ATOM     10  C   LIG d   1     -10.038  80.259 119.249  0.00  0.00     0.006 C 
ENDBRANCH   8   9
BRANCH   8  11
ATOM     11  C   LIG d   1      -7.747  80.847 118.301  0.00  0.00     0.028 C 
ATOM     12  C   LIG d   1      -6.864  82.097 118.160  0.00  0.00     0.006 C 
ENDBRANCH   8  11
ENDBRANCH   7   8
ENDBRANCH   1   7
BRANCH   6  13
ATOM     13  N   LIG d   1      -4.979  79.065 117.113  0.00  0.00    -0.311 N 
ATOM     14  C   LIG d   1      -3.932  79.522 117.797  0.00  0.00     0.210 C 
ATOM     15  C   LIG d   1      -3.324  80.821 117.259  0.00  0.00     0.109 C 
ATOM     16  O   LIG d   1      -3.428  78.957 118.780  0.00  0.00    -0.276 OA
ATOM     17  H   LIG d   1      -5.301  79.569 116.310  0.00  0.00     0.149 HD
ENDBRANCH   6  13
BRANCH   5  18
ATOM     18  N   LIG d   1      -4.584  76.333 115.805  0.00  0.00     0.381 N 
ATOM     19  H   LIG d   1      -4.356  75.489 116.293  0.00  0.00    -0.090 HD
ATOM     20  H   LIG d   1      -3.866  77.010 115.994  0.00  0.00    -0.090 HD
ATOM     21  H   LIG d   1      -4.635  76.156 114.826  0.00  0.00    -0.090 HD
ENDBRANCH   5  18
BRANCH   3  22
ATOM     22  C   LIG d   1      -9.017  75.183 117.207  0.00  0.00     0.382 C 
ATOM     23  O   LIG d   1      -8.834  73.947 117.099  0.00  0.00    -0.241 OA
ATOM     24  O   LIG d   1     -10.175  75.639 117.155  0.00  0.00    -0.241 OA
ENDBRANCH   3  22
TORSDOF 7
ENDMDL
