MODEL 1
REMARK VINA RESULT:      -4.7      0.000      0.000
REMARK  7 active torsions:
REMARK  status: ('A' for Active; 'I' for Inactive)
REMARK    1  A    between atoms: C_2  and  C_3 
REMARK    2  A    between atoms: C_3  and  O_6 
REMARK    3  A    between atoms: C_3  and  C_4 
REMARK    4  A    between atoms: C_7  and  O_6 
REMARK    5  A    between atoms: C_9  and  C_10 
REMARK    6  A    between atoms: N_15  and  C_14 
REMARK    7  A    between atoms: N_20  and  C_19 
REMARK       I    between atoms: C_22  and  N_20 
ROOT
ATOM      1  C   LIG d   1      -3.259  90.432 117.244  0.00  0.00     0.161 C 
ATOM      2  C   LIG d   1      -2.094  91.136 117.590  0.00  0.00     0.016 C 
ATOM      3  C   LIG d   1      -2.075  92.523 117.865  0.00  0.00     0.038 C 
ATOM      4  C   LIG d   1      -3.255  93.276 117.960  0.00  0.00     0.028 C 
ATOM      5  C   LIG d   1      -4.400  92.715 117.124  0.00  0.00    -0.047 C 
ATOM      6  C   LIG d   1      -4.573  91.214 117.451  0.00  0.00     0.091 C 
ENDROOT
BRANCH   1   7
ATOM      7  O   LIG d   1      -3.304  89.180 117.957  0.00  0.00    -0.368 OA
BRANCH   7   8
ATOM      8  C   LIG d   1      -2.219  88.937 118.886  0.00  0.00     0.119 C 
BRANCH   8   9
ATOM      9  C   LIG d   1      -1.496  87.655 118.428  0.00  0.00     0.028 C 
ATOM     10  C   LIG d   1      -0.420  87.936 117.366  0.00  0.00     0.006 C 
ENDBRANCH   8   9
BRANCH   8  11
ATOM     11  C   LIG d   1      -2.747  88.625 120.289  0.00  0.00     0.028 C 
ATOM     12  C   LIG d   1      -2.655  87.132 120.642  0.00  0.00     0.006 C 
ENDBRANCH   8  11
ENDBRANCH   7   8
ENDBRANCH   1   7
BRANCH   6  13
ATOM     13  N   LIG d   1      -5.618  90.568 116.615  0.00  0.00    -0.311 N 
ATOM     14  C   LIG d   1      -6.893  90.468 116.984  0.00  0.00     0.210 C 
ATOM     15  C   LIG d   1      -7.801  89.747 115.982  0.00  0.00     0.109 C 
ATOM     16  O   LIG d   1      -7.366  90.936 118.031  0.00  0.00    -0.276 OA
ATOM     17  H   LIG d   1      -5.328  90.189 115.735  0.00  0.00     0.149 HD
ENDBRANCH   6  13
BRANCH   5  18
ATOM     18  N   LIG d   1      -5.603  93.515 117.423  0.00  0.00     0.381 N 
ATOM     19  H   LIG d   1      -5.944  93.285 118.336  0.00  0.00    -0.090 HD
ATOM     20  H   LIG d   1      -6.318  93.289 116.754  0.00  0.00    -0.090 HD
ATOM     21  H   LIG d   1      -5.388  94.486 117.375  0.00  0.00    -0.090 HD
ENDBRANCH   5  18
BRANCH   3  22
ATOM     22  C   LIG d   1      -0.862  93.179 118.009  0.00  0.00     0.382 C 
ATOM     23  O   LIG d   1      -0.839  94.402 118.288  0.00  0.00    -0.241 OA
ATOM     24  O   LIG d   1       0.210  92.573 117.819  0.00  0.00    -0.241 OA
ENDBRANCH   3  22
TORSDOF 7
ENDMDL
MODEL 2
REMARK VINA RESULT:      -4.7      2.698      6.106
REMARK  7 active torsions:
REMARK  status: ('A' for Active; 'I' for Inactive)
REMARK    1  A    between atoms: C_2  and  C_3 
REMARK    2  A    between atoms: C_3  and  O_6 
REMARK    3  A    between atoms: C_3  and  C_4 
REMARK    4  A    between atoms: C_7  and  O_6 
REMARK    5  A    between atoms: C_9  and  C_10 
REMARK    6  A    between atoms: N_15  and  C_14 
REMARK    7  A    between atoms: N_20  and  C_19 
REMARK       I    between atoms: C_22  and  N_20 
ROOT
ATOM      1  C   LIG d   1      -4.034  92.876 117.341  0.00  0.00     0.161 C 
ATOM      2  C   LIG d   1      -5.306  92.381 117.010  0.00  0.00     0.016 C 
ATOM      3  C   LIG d   1      -5.591  91.004 116.864  0.00  0.00     0.038 C 
ATOM      4  C   LIG d   1      -4.652  90.014 117.189  0.00  0.00     0.028 C 
ATOM      5  C   LIG d   1      -3.207  90.477 117.040  0.00  0.00    -0.047 C 
ATOM      6  C   LIG d   1      -3.025  91.806 117.808  0.00  0.00     0.091 C 
ENDROOT
BRANCH   1   7
ATOM      7  O   LIG d   1      -4.157  93.916 118.332  0.00  0.00    -0.368 OA
BRANCH   7   8
ATOM      8  C   LIG d   1      -5.304  93.825 119.212  0.00  0.00     0.119 C 
BRANCH   8   9
ATOM      9  C   LIG d   1      -5.813  95.258 119.458  0.00  0.00     0.028 C 
ATOM     10  C   LIG d   1      -6.945  95.652 118.495  0.00  0.00     0.006 C 
ENDBRANCH   8   9
BRANCH   8  11
ATOM     11  C   LIG d   1      -4.906  93.293 120.592  0.00  0.00     0.028 C 
ATOM     12  C   LIG d   1      -5.333  91.833 120.814  0.00  0.00     0.006 C 
ENDBRANCH   8  11
ENDBRANCH   7   8
ENDBRANCH   1   7
BRANCH   6  13
ATOM     13  N   LIG d   1      -1.661  92.373 117.644  0.00  0.00    -0.311 N 
ATOM     14  C   LIG d   1      -0.665  92.146 118.498  0.00  0.00     0.210 C 
ATOM     15  C   LIG d   1       0.655  92.843 118.153  0.00  0.00     0.109 C 
ATOM     16  O   LIG d   1      -0.740  91.408 119.492  0.00  0.00    -0.276 OA
ATOM     17  H   LIG d   1      -1.503  92.959 116.847  0.00  0.00     0.149 HD
ENDBRANCH   6  13
BRANCH   5  18
ATOM     18  N   LIG d   1      -2.338  89.396 117.542  0.00  0.00     0.381 N 
ATOM     19  H   LIG d   1      -2.442  88.584 116.967  0.00  0.00    -0.090 HD
ATOM     20  H   LIG d   1      -2.621  89.159 118.476  0.00  0.00    -0.090 HD
ATOM     21  H   LIG d   1      -1.388  89.694 117.540  0.00  0.00    -0.090 HD
ENDBRANCH   5  18
BRANCH   3  22
ATOM     22  C   LIG d   1      -6.816  90.606 116.350  0.00  0.00     0.382 C 
ATOM     23  O   LIG d   1      -7.571  91.448 115.806  0.00  0.00    -0.241 OA
ATOM     24  O   LIG d   1      -7.196  89.425 116.463  0.00  0.00    -0.241 OA
ENDBRANCH   3  22
TORSDOF 7
ENDMDL
MODEL 3
REMARK VINA RESULT:      -4.7      3.380      7.000
REMARK  7 active torsions:
REMARK  status: ('A' for Active; 'I' for Inactive)
REMARK    1  A    between atoms: C_2  and  C_3 
REMARK    2  A    between atoms: C_3  and  O_6 
REMARK    3  A    between atoms: C_3  and  C_4 
REMARK    4  A    between atoms: C_7  and  O_6 
REMARK    5  A    between atoms: C_9  and  C_10 
REMARK    6  A    between atoms: N_15  and  C_14 
REMARK    7  A    between atoms: N_20  and  C_19 
REMARK       I    between atoms: C_22  and  N_20 
ROOT
ATOM      1  C   LIG d   1      -6.092  93.662 118.279  0.00  0.00     0.161 C 
ATOM      2  C   LIG d   1      -6.622  92.438 117.838  0.00  0.00     0.016 C 
ATOM      3  C   LIG d   1      -5.830  91.387 117.321  0.00  0.00     0.038 C 
ATOM      4  C   LIG d   1      -4.428  91.432 117.352  0.00  0.00     0.028 C 
ATOM      5  C   LIG d   1      -3.866  92.849 117.321  0.00  0.00    -0.047 C 
ATOM      6  C   LIG d   1      -4.555  93.686 118.423  0.00  0.00     0.091 C 
ENDROOT
BRANCH   1   7
ATOM      7  O   LIG d   1      -6.717  94.047 119.519  0.00  0.00    -0.368 OA
BRANCH   7   8
ATOM      8  C   LIG d   1      -7.468  95.286 119.496  0.00  0.00     0.119 C 
BRANCH   8   9
ATOM      9  C   LIG d   1      -8.898  94.970 119.978  0.00  0.00     0.028 C 
ATOM     10  C   LIG d   1      -8.971  93.658 120.778  0.00  0.00     0.006 C 
ENDBRANCH   8   9
BRANCH   8  11
ATOM     11  C   LIG d   1      -7.629  95.813 118.067  0.00  0.00     0.028 C 
ATOM     12  C   LIG d   1      -7.235  97.293 117.931  0.00  0.00     0.006 C 
ENDBRANCH   8  11
ENDBRANCH   7   8
ENDBRANCH   1   7
BRANCH   6  13
ATOM     13  N   LIG d   1      -4.125  95.108 118.408  0.00  0.00    -0.311 N 
ATOM     14  C   LIG d   1      -3.752  95.773 119.500  0.00  0.00     0.210 C 
ATOM     15  C   LIG d   1      -3.365  97.237 119.265  0.00  0.00     0.109 C 
ATOM     16  O   LIG d   1      -3.675  95.282 120.636  0.00  0.00    -0.276 OA
ATOM     17  H   LIG d   1      -4.127  95.576 117.522  0.00  0.00     0.149 HD
ENDBRANCH   6  13
BRANCH   5  18
ATOM     18  N   LIG d   1      -2.405  92.753 117.497  0.00  0.00     0.381 N 
ATOM     19  H   LIG d   1      -2.124  93.288 118.294  0.00  0.00    -0.090 HD
ATOM     20  H   LIG d   1      -1.954  93.138 116.685  0.00  0.00    -0.090 HD
ATOM     21  H   LIG d   1      -2.137  91.801 117.615  0.00  0.00    -0.090 HD
ENDBRANCH   5  18
BRANCH   3  22
ATOM     22  C   LIG d   1      -6.441  90.292 116.730  0.00  0.00     0.382 C 
ATOM     23  O   LIG d   1      -7.666  90.087 116.907  0.00  0.00    -0.241 OA
ATOM     24  O   LIG d   1      -5.774  89.483 116.058  0.00  0.00    -0.241 OA
ENDBRANCH   3  22
TORSDOF 7
ENDMDL
MODEL 4
REMARK VINA RESULT:      -4.6      1.777      4.786
REMARK  7 active torsions:
REMARK  status: ('A' for Active; 'I' for Inactive)
REMARK    1  A    between atoms: C_2  and  C_3 
REMARK    2  A    between atoms: C_3  and  O_6 
REMARK    3  A    between atoms: C_3  and  C_4 
REMARK    4  A    between atoms: C_7  and  O_6 
REMARK    5  A    between atoms: C_9  and  C_10 
REMARK    6  A    between atoms: N_15  and  C_14 
REMARK    7  A    between atoms: N_20  and  C_19 
REMARK       I    between atoms: C_22  and  N_20 
ROOT
ATOM      1  C   LIG d   1      -3.552  91.259 118.162  0.00  0.00     0.161 C 
ATOM      2  C   LIG d   1      -4.596  90.691 117.412  0.00  0.00     0.016 C 
ATOM      3  C   LIG d   1      -5.750  91.408 117.017  0.00  0.00     0.038 C 
ATOM      4  C   LIG d   1      -5.868  92.791 117.217  0.00  0.00     0.028 C 
ATOM      5  C   LIG d   1      -5.068  93.301 118.412  0.00  0.00    -0.047 C 
ATOM      6  C   LIG d   1      -3.612  92.795 118.293  0.00  0.00     0.091 C 
ENDROOT
BRANCH   1   7
ATOM      7  O   LIG d   1      -2.282  90.852 117.616  0.00  0.00    -0.368 OA
BRANCH   7   8
ATOM      8  C   LIG d   1      -1.472  89.995 118.458  0.00  0.00     0.119 C 
BRANCH   8   9
ATOM      9  C   LIG d   1       0.000  90.403 118.253  0.00  0.00     0.028 C 
ATOM     10  C   LIG d   1       0.228  91.124 116.913  0.00  0.00     0.006 C 
ENDBRANCH   8   9
BRANCH   8  11
ATOM     11  C   LIG d   1      -1.554  88.533 118.009  0.00  0.00     0.028 C 
ATOM     12  C   LIG d   1      -1.934  87.579 119.152  0.00  0.00     0.006 C 
ENDBRANCH   8  11
ENDBRANCH   7   8
ENDBRANCH   1   7
BRANCH   6  13
ATOM     13  N   LIG d   1      -2.782  93.179 119.465  0.00  0.00    -0.311 N 
ATOM     14  C   LIG d   1      -1.588  93.760 119.359  0.00  0.00     0.210 C 
ATOM     15  C   LIG d   1      -0.891  94.053 120.691  0.00  0.00     0.109 C 
ATOM     16  O   LIG d   1      -1.054  94.089 118.289  0.00  0.00    -0.276 OA
ATOM     17  H   LIG d   1      -3.153  92.976 120.373  0.00  0.00     0.149 HD
ENDBRANCH   6  13
BRANCH   5  18
ATOM     18  N   LIG d   1      -5.170  94.772 118.421  0.00  0.00     0.381 N 
ATOM     19  H   LIG d   1      -4.495  95.155 119.053  0.00  0.00    -0.090 HD
ATOM     20  H   LIG d   1      -6.086  95.033 118.742  0.00  0.00    -0.090 HD
ATOM     21  H   LIG d   1      -5.017  95.131 117.504  0.00  0.00    -0.090 HD
ENDBRANCH   5  18
BRANCH   3  22
ATOM     22  C   LIG d   1      -6.818  90.730 116.450  0.00  0.00     0.382 C 
ATOM     23  O   LIG d   1      -6.891  89.482 116.546  0.00  0.00    -0.241 OA
ATOM     24  O   LIG d   1      -7.687  91.348 115.805  0.00  0.00    -0.241 OA
ENDBRANCH   3  22
TORSDOF 7
ENDMDL
MODEL 5
REMARK VINA RESULT:      -4.6      2.471      5.287
REMARK  7 active torsions:
REMARK  status: ('A' for Active; 'I' for Inactive)
REMARK    1  A    between atoms: C_2  and  C_3 
REMARK    2  A    between atoms: C_3  and  O_6 
REMARK    3  A    between atoms: C_3  and  C_4 
REMARK    4  A    between atoms: C_7  and  O_6 
REMARK    5  A    between atoms: C_9  and  C_10 
REMARK    6  A    between atoms: N_15  and  C_14 
REMARK    7  A    between atoms: N_20  and  C_19 
REMARK       I    between atoms: C_22  and  N_20 
ROOT
ATOM      1  C   LIG d   1      -5.133  92.559 118.930  0.00  0.00     0.161 C 
ATOM      2  C   LIG d   1      -5.486  91.500 118.077  0.00  0.00     0.016 C 
ATOM      3  C   LIG d   1      -6.324  91.656 116.949  0.00  0.00     0.038 C 
ATOM      4  C   LIG d   1      -6.747  92.919 116.509  0.00  0.00     0.028 C 
ATOM      5  C   LIG d   1      -6.831  93.954 117.626  0.00  0.00    -0.047 C 
ATOM      6  C   LIG d   1      -5.494  93.963 118.402  0.00  0.00     0.091 C 
ENDROOT
BRANCH   1   7
ATOM      7  O   LIG d   1      -3.728  92.487 119.242  0.00  0.00    -0.368 OA
BRANCH   7   8
ATOM      8  C   LIG d   1      -2.845  92.165 118.139  0.00  0.00     0.119 C 
BRANCH   8   9
ATOM      9  C   LIG d   1      -1.888  91.058 118.620  0.00  0.00     0.028 C 
ATOM     10  C   LIG d   1      -2.197  89.695 117.978  0.00  0.00     0.006 C 
ENDBRANCH   8   9
BRANCH   8  11
ATOM     11  C   LIG d   1      -1.945  93.351 117.780  0.00  0.00     0.028 C 
ATOM     12  C   LIG d   1      -0.481  93.133 118.191  0.00  0.00     0.006 C 
ENDBRANCH   8  11
ENDBRANCH   7   8
ENDBRANCH   1   7
BRANCH   6  13
ATOM     13  N   LIG d   1      -5.521  94.888 119.565  0.00  0.00    -0.311 N 
ATOM     14  C   LIG d   1      -4.632  95.864 119.747  0.00  0.00     0.210 C 
ATOM     15  C   LIG d   1      -4.829  96.689 121.022  0.00  0.00     0.109 C 
ATOM     16  O   LIG d   1      -3.719  96.144 118.956  0.00  0.00    -0.276 OA
ATOM     17  H   LIG d   1      -6.247  94.751 120.240  0.00  0.00     0.149 HD
ENDBRANCH   6  13
BRANCH   5  18
ATOM     18  N   LIG d   1      -7.149  95.254 117.007  0.00  0.00     0.381 N 
ATOM     19  H   LIG d   1      -6.564  95.401 116.209  0.00  0.00    -0.090 HD
ATOM     20  H   LIG d   1      -6.965  95.985 117.672  0.00  0.00    -0.090 HD
ATOM     21  H   LIG d   1      -8.107  95.277 116.734  0.00  0.00    -0.090 HD
ENDBRANCH   5  18
BRANCH   3  22
ATOM     22  C   LIG d   1      -6.781  90.536 116.272  0.00  0.00     0.382 C 
ATOM     23  O   LIG d   1      -7.946  90.516 115.806  0.00  0.00    -0.241 OA
ATOM     24  O   LIG d   1      -6.058  89.527 116.160  0.00  0.00    -0.241 OA
ENDBRANCH   3  22
TORSDOF 7
ENDMDL
MODEL 6
REMARK VINA RESULT:      -4.5      2.389      5.375
REMARK  7 active torsions:
REMARK  status: ('A' for Active; 'I' for Inactive)
REMARK    1  A    between atoms: C_2  and  C_3 
REMARK    2  A    between atoms: C_3  and  O_6 
REMARK    3  A    between atoms: C_3  and  C_4 
REMARK    4  A    between atoms: C_7  and  O_6 
REMARK    5  A    between atoms: C_9  and  C_10 
REMARK    6  A    between atoms: N_15  and  C_14 
REMARK    7  A    between atoms: N_20  and  C_19 
REMARK       I    between atoms: C_22  and  N_20 
ROOT
ATOM      1  C   LIG d   1      -3.351  92.610 117.757  0.00  0.00     0.161 C 
ATOM      2  C   LIG d   1      -4.599  93.253 117.699  0.00  0.00     0.016 C 
ATOM      3  C   LIG d   1      -5.741  92.682 117.092  0.00  0.00     0.038 C 
ATOM      4  C   LIG d   1      -5.753  91.356 116.634  0.00  0.00     0.028 C 
ATOM      5  C   LIG d   1      -4.377  90.848 116.217  0.00  0.00    -0.047 C 
ATOM      6  C   LIG d   1      -3.373  91.119 117.361  0.00  0.00     0.091 C 
ENDROOT
BRANCH   1   7
ATOM      7  O   LIG d   1      -2.780  92.771 119.071  0.00  0.00    -0.368 OA
BRANCH   7   8
ATOM      8  C   LIG d   1      -1.840  93.863 119.227  0.00  0.00     0.119 C 
BRANCH   8   9
ATOM      9  C   LIG d   1      -0.483  93.252 119.627  0.00  0.00     0.028 C 
ATOM     10  C   LIG d   1       0.506  93.198 118.450  0.00  0.00     0.006 C 
ENDBRANCH   8   9
BRANCH   8  11
ATOM     11  C   LIG d   1      -2.234  94.774 120.394  0.00  0.00     0.028 C 
ATOM     12  C   LIG d   1      -3.188  95.902 119.972  0.00  0.00     0.006 C 
ENDBRANCH   8  11
ENDBRANCH   7   8
ENDBRANCH   1   7
BRANCH   6  13
ATOM     13  N   LIG d   1      -1.985  90.728 117.002  0.00  0.00    -0.311 N 
ATOM     14  C   LIG d   1      -1.221  89.952 117.768  0.00  0.00     0.210 C 
ATOM     15  C   LIG d   1       0.186  89.688 117.221  0.00  0.00     0.109 C 
ATOM     16  O   LIG d   1      -1.585  89.430 118.832  0.00  0.00    -0.276 OA
ATOM     17  H   LIG d   1      -1.620  91.082 116.140  0.00  0.00     0.149 HD
ENDBRANCH   6  13
BRANCH   5  18
ATOM     18  N   LIG d   1      -4.510  89.415 115.892  0.00  0.00     0.381 N 
ATOM     19  H   LIG d   1      -4.650  89.303 114.908  0.00  0.00    -0.090 HD
ATOM     20  H   LIG d   1      -5.314  89.047 116.369  0.00  0.00    -0.090 HD
ATOM     21  H   LIG d   1      -3.692  88.923 116.177  0.00  0.00    -0.090 HD
ENDBRANCH   5  18
BRANCH   3  22
ATOM     22  C   LIG d   1      -6.878  93.453 116.904  0.00  0.00     0.382 C 
ATOM     23  O   LIG d   1      -7.347  94.121 117.857  0.00  0.00    -0.241 OA
ATOM     24  O   LIG d   1      -7.465  93.455 115.806  0.00  0.00    -0.241 OA
ENDBRANCH   3  22
TORSDOF 7
ENDMDL
MODEL 7
REMARK VINA RESULT:      -4.5      3.259      5.572
REMARK  7 active torsions:
REMARK  status: ('A' for Active; 'I' for Inactive)
REMARK    1  A    between atoms: C_2  and  C_3 
REMARK    2  A    between atoms: C_3  and  O_6 
REMARK    3  A    between atoms: C_3  and  C_4 
REMARK    4  A    between atoms: C_7  and  O_6 
REMARK    5  A    between atoms: C_9  and  C_10 
REMARK    6  A    between atoms: N_15  and  C_14 
REMARK    7  A    between atoms: N_20  and  C_19 
REMARK       I    between atoms: C_22  and  N_20 
ROOT
ATOM      1  C   LIG d   1      -5.419  92.877 119.334  0.00  0.00     0.161 C 
ATOM      2  C   LIG d   1      -4.986  91.724 118.659  0.00  0.00     0.016 C 
ATOM      3  C   LIG d   1      -5.320  91.438 117.315  0.00  0.00     0.038 C 
ATOM      4  C   LIG d   1      -5.989  92.366 116.503  0.00  0.00     0.028 C 
ATOM      5  C   LIG d   1      -6.880  93.324 117.286  0.00  0.00    -0.047 C 
ATOM      6  C   LIG d   1      -6.056  93.955 118.431  0.00  0.00     0.091 C 
ENDROOT
BRANCH   1   7
ATOM      7  O   LIG d   1      -4.328  93.439 120.090  0.00  0.00    -0.368 OA
BRANCH   7   8
ATOM      8  C   LIG d   1      -3.534  94.445 119.414  0.00  0.00     0.119 C 
BRANCH   8   9
ATOM      9  C   LIG d   1      -2.146  93.834 119.142  0.00  0.00     0.028 C 
ATOM     10  C   LIG d   1      -1.929  93.507 117.655  0.00  0.00     0.006 C 
ENDBRANCH   8   9
BRANCH   8  11
ATOM     11  C   LIG d   1      -3.276  95.652 120.320  0.00  0.00     0.028 C 
ATOM     12  C   LIG d   1      -3.174  96.972 119.538  0.00  0.00     0.006 C 
ENDBRANCH   8  11
ENDBRANCH   7   8
ENDBRANCH   1   7
BRANCH   6  13
ATOM     13  N   LIG d   1      -6.875  94.841 119.298  0.00  0.00    -0.311 N 
ATOM     14  C   LIG d   1      -6.965  96.158 119.123  0.00  0.00     0.210 C 
ATOM     15  C   LIG d   1      -7.848  96.887 120.141  0.00  0.00     0.109 C 
ATOM     16  O   LIG d   1      -6.424  96.788 118.202  0.00  0.00    -0.276 OA
ATOM     17  H   LIG d   1      -7.373  94.409 120.052  0.00  0.00     0.149 HD
ENDBRANCH   6  13
BRANCH   5  18
ATOM     18  N   LIG d   1      -7.407  94.321 116.335  0.00  0.00     0.381 N 
ATOM     19  H   LIG d   1      -8.292  94.018 115.982  0.00  0.00    -0.090 HD
ATOM     20  H   LIG d   1      -6.769  94.402 115.563  0.00  0.00    -0.090 HD
ATOM     21  H   LIG d   1      -7.506  95.204 116.787  0.00  0.00    -0.090 HD
ENDBRANCH   5  18
BRANCH   3  22
ATOM     22  C   LIG d   1      -5.019  90.193 116.782  0.00  0.00     0.382 C 
ATOM     23  O   LIG d   1      -5.845  89.613 116.038  0.00  0.00    -0.241 OA
ATOM     24  O   LIG d   1      -3.949  89.624 117.072  0.00  0.00    -0.241 OA
ENDBRANCH   3  22
TORSDOF 7
ENDMDL
MODEL 8
REMARK VINA RESULT:      -4.4      3.034      5.767
REMARK  7 active torsions:
REMARK  status: ('A' for Active; 'I' for Inactive)
REMARK    1  A    between atoms: C_2  and  C_3 
REMARK    2  A    between atoms: C_3  and  O_6 
REMARK    3  A    between atoms: C_3  and  C_4 
REMARK    4  A    between atoms: C_7  and  O_6 
REMARK    5  A    between atoms: C_9  and  C_10 
REMARK    6  A    between atoms: N_15  and  C_14 
REMARK    7  A    between atoms: N_20  and  C_19 
REMARK       I    between atoms: C_22  and  N_20 
ROOT
ATOM      1  C   LIG d   1      -5.314  93.369 118.120  0.00  0.00     0.161 C 
ATOM      2  C   LIG d   1      -6.600  93.878 117.874  0.00  0.00     0.016 C 
ATOM      3  C   LIG d   1      -7.050  95.126 118.363  0.00  0.00     0.038 C 
ATOM      4  C   LIG d   1      -6.188  96.023 119.011  0.00  0.00     0.028 C 
ATOM      5  C   LIG d   1      -5.025  95.339 119.722  0.00  0.00    -0.047 C 
ATOM      6  C   LIG d   1      -4.324  94.383 118.730  0.00  0.00     0.091 C 
ENDROOT
BRANCH   1   7
ATOM      7  O   LIG d   1      -4.772  92.805 116.910  0.00  0.00    -0.368 OA
BRANCH   7   8
ATOM      8  C   LIG d   1      -4.520  91.378 116.929  0.00  0.00     0.119 C 
BRANCH   8   9
ATOM      9  C   LIG d   1      -5.426  90.734 115.862  0.00  0.00     0.028 C 
ATOM     10  C   LIG d   1      -6.773  90.266 116.441  0.00  0.00     0.006 C 
ENDBRANCH   8   9
BRANCH   8  11
ATOM     11  C   LIG d   1      -4.952  90.754 118.259  0.00  0.00     0.028 C 
ATOM     12  C   LIG d   1      -3.795  90.059 118.995  0.00  0.00     0.006 C 
ENDBRANCH   8  11
ENDBRANCH   7   8
ENDBRANCH   1   7
BRANCH   6  13
ATOM     13  N   LIG d   1      -3.226  93.611 119.368  0.00  0.00    -0.311 N 
ATOM     14  C   LIG d   1      -2.035  93.423 118.801  0.00  0.00     0.210 C 
ATOM     15  C   LIG d   1      -1.054  92.580 119.621  0.00  0.00     0.109 C 
ATOM     16  O   LIG d   1      -1.688  93.903 117.711  0.00  0.00    -0.276 OA
ATOM     17  H   LIG d   1      -3.411  93.213 120.268  0.00  0.00     0.149 HD
ENDBRANCH   6  13
BRANCH   5  18
ATOM     18  N   LIG d   1      -4.133  96.396 120.235  0.00  0.00     0.381 N 
ATOM     19  H   LIG d   1      -3.664  96.074 121.058  0.00  0.00    -0.090 HD
ATOM     20  H   LIG d   1      -4.687  97.198 120.481  0.00  0.00    -0.090 HD
ATOM     21  H   LIG d   1      -3.465  96.646 119.539  0.00  0.00    -0.090 HD
ENDBRANCH   5  18
BRANCH   3  22
ATOM     22  C   LIG d   1      -8.388  95.469 118.242  0.00  0.00     0.382 C 
ATOM     23  O   LIG d   1      -9.273  94.724 118.727  0.00  0.00    -0.241 OA
ATOM     24  O   LIG d   1      -8.723  96.492 117.615  0.00  0.00    -0.241 OA
ENDBRANCH   3  22
TORSDOF 7
ENDMDL
MODEL 9
REMARK VINA RESULT:      -4.4      2.888      6.664
REMARK  7 active torsions:
REMARK  status: ('A' for Active; 'I' for Inactive)
REMARK    1  A    between atoms: C_2  and  C_3 
REMARK    2  A    between atoms: C_3  and  O_6 
REMARK    3  A    between atoms: C_3  and  C_4 
REMARK    4  A    between atoms: C_7  and  O_6 
REMARK    5  A    between atoms: C_9  and  C_10 
REMARK    6  A    between atoms: N_15  and  C_14 
REMARK    7  A    between atoms: N_20  and  C_19 
REMARK       I    between atoms: C_22  and  N_20 
ROOT
ATOM      1  C   LIG d   1      -4.733  93.284 117.971  0.00  0.00     0.161 C 
ATOM      2  C   LIG d   1      -5.834  92.520 117.550  0.00  0.00     0.016 C 
ATOM      3  C   LIG d   1      -5.718  91.216 117.014  0.00  0.00     0.038 C 
ATOM      4  C   LIG d   1      -4.497  90.525 117.004  0.00  0.00     0.028 C 
ATOM      5  C   LIG d   1      -3.281  91.444 116.952  0.00  0.00    -0.047 C 
ATOM      6  C   LIG d   1      -3.405  92.504 118.071  0.00  0.00     0.091 C 
ENDROOT
BRANCH   1   7
ATOM      7  O   LIG d   1      -5.034  93.923 119.228  0.00  0.00    -0.368 OA
BRANCH   7   8
ATOM      8  C   LIG d   1      -5.439  95.312 119.155  0.00  0.00     0.119 C 
BRANCH   8   9
ATOM      9  C   LIG d   1      -4.535  96.109 120.115  0.00  0.00     0.028 C 
ATOM     10  C   LIG d   1      -3.480  96.944 119.370  0.00  0.00     0.006 C 
ENDBRANCH   8   9
BRANCH   8  11
ATOM     11  C   LIG d   1      -6.863  95.505 119.684  0.00  0.00     0.028 C 
ATOM     12  C   LIG d   1      -7.314  96.974 119.661  0.00  0.00     0.006 C 
ENDBRANCH   8  11
ENDBRANCH   7   8
ENDBRANCH   1   7
BRANCH   6  13
ATOM     13  N   LIG d   1      -2.298  93.495 118.038  0.00  0.00    -0.311 N 
ATOM     14  C   LIG d   1      -1.495  93.732 119.074  0.00  0.00     0.210 C 
ATOM     15  C   LIG d   1      -0.431  94.808 118.834  0.00  0.00     0.109 C 
ATOM     16  O   LIG d   1      -1.543  93.131 120.158  0.00  0.00    -0.276 OA
ATOM     17  H   LIG d   1      -2.168  94.006 117.186  0.00  0.00     0.149 HD
ENDBRANCH   6  13
BRANCH   5  18
ATOM     18  N   LIG d   1      -2.078  90.601 117.085  0.00  0.00     0.381 N 
ATOM     19  H   LIG d   1      -2.326  89.638 116.973  0.00  0.00    -0.090 HD
ATOM     20  H   LIG d   1      -1.696  90.723 118.007  0.00  0.00    -0.090 HD
ATOM     21  H   LIG d   1      -1.403  90.859 116.401  0.00  0.00    -0.090 HD
ENDBRANCH   5  18
BRANCH   3  22
ATOM     22  C   LIG d   1      -6.825  90.606 116.445  0.00  0.00     0.382 C 
ATOM     23  O   LIG d   1      -7.659  91.292 115.806  0.00  0.00    -0.241 OA
ATOM     24  O   LIG d   1      -7.023  89.386 116.600  0.00  0.00    -0.241 OA
ENDBRANCH   3  22
TORSDOF 7
ENDMDL
