MODEL 1
REMARK VINA RESULT:      -5.8      0.000      0.000
REMARK  7 active torsions:
REMARK  status: ('A' for Active; 'I' for Inactive)
REMARK    1  A    between atoms: C_2  and  C_3 
REMARK    2  A    between atoms: C_3  and  O_6 
REMARK    3  A    between atoms: C_3  and  C_4 
REMARK    4  A    between atoms: C_7  and  O_6 
REMARK    5  A    between atoms: C_9  and  C_10 
REMARK    6  A    between atoms: N_15  and  C_14 
REMARK    7  A    between atoms: N_20  and  C_19 
REMARK       I    between atoms: C_22  and  N_20 
ROOT
ATOM      1  C   LIG d   1     -10.152  74.295 117.738  0.00  0.00     0.161 C 
ATOM      2  C   LIG d   1      -9.883  72.971 117.352  0.00  0.00     0.016 C 
ATOM      3  C   LIG d   1      -8.579  72.477 117.121  0.00  0.00     0.038 C 
ATOM      4  C   LIG d   1      -7.436  73.239 117.408  0.00  0.00     0.028 C 
ATOM      5  C   LIG d   1      -7.672  74.743 117.316  0.00  0.00    -0.047 C 
ATOM      6  C   LIG d   1      -8.912  75.109 118.163  0.00  0.00     0.091 C 
ENDROOT
BRANCH   1   7
ATOM      7  O   LIG d   1     -11.143  74.308 118.784  0.00  0.00    -0.368 OA
BRANCH   7   8
ATOM      8  C   LIG d   1     -11.025  73.269 119.787  0.00  0.00     0.119 C 
BRANCH   8   9
ATOM      9  C   LIG d   1     -12.419  72.636 119.965  0.00  0.00     0.028 C 
ATOM     10  C   LIG d   1     -13.266  73.372 121.017  0.00  0.00     0.006 C 
ENDBRANCH   8   9
BRANCH   8  11
ATOM     11  C   LIG d   1     -10.666  73.853 121.156  0.00  0.00     0.028 C 
ATOM     12  C   LIG d   1      -9.332  73.320 121.701  0.00  0.00     0.006 C 
ENDBRANCH   8  11
ENDBRANCH   7   8
ENDBRANCH   1   7
BRANCH   6  13
ATOM     13  N   LIG d   1      -9.263  76.550 118.061  0.00  0.00    -0.311 N 
ATOM     14  C   LIG d   1      -9.336  77.363 119.113  0.00  0.00     0.210 C 
ATOM     15  C   LIG d   1      -9.734  78.806 118.789  0.00  0.00     0.109 C 
ATOM     16  O   LIG d   1      -9.077  77.034 120.281  0.00  0.00    -0.276 OA
ATOM     17  H   LIG d   1      -9.458  76.908 117.147  0.00  0.00     0.149 HD
ENDBRANCH   6  13
BRANCH   5  18
ATOM     18  N   LIG d   1      -6.441  75.416 117.773  0.00  0.00     0.381 N 
ATOM     19  H   LIG d   1      -6.640  75.978 118.575  0.00  0.00    -0.090 HD
ATOM     20  H   LIG d   1      -6.109  76.018 117.040  0.00  0.00    -0.090 HD
ATOM     21  H   LIG d   1      -5.745  74.739 117.997  0.00  0.00    -0.090 HD
ENDBRANCH   5  18
BRANCH   3  22
ATOM     22  C   LIG d   1      -8.409  71.221 116.559  0.00  0.00     0.382 C 
ATOM     23  O   LIG d   1      -9.205  70.294 116.844  0.00  0.00    -0.241 OA
ATOM     24  O   LIG d   1      -7.444  70.992 115.806  0.00  0.00    -0.241 OA
ENDBRANCH   3  22
TORSDOF 7
ENDMDL
MODEL 2
REMARK VINA RESULT:      -5.5      2.069      4.314
REMARK  7 active torsions:
REMARK  status: ('A' for Active; 'I' for Inactive)
REMARK    1  A    between atoms: C_2  and  C_3 
REMARK    2  A    between atoms: C_3  and  O_6 
REMARK    3  A    between atoms: C_3  and  C_4 
REMARK    4  A    between atoms: C_7  and  O_6 
REMARK    5  A    between atoms: C_9  and  C_10 
REMARK    6  A    between atoms: N_15  and  C_14 
REMARK    7  A    between atoms: N_20  and  C_19 
REMARK       I    between atoms: C_22  and  N_20 
ROOT
ATOM      1  C   LIG d   1      -8.314  74.644 117.599  0.00  0.00     0.161 C 
ATOM      2  C   LIG d   1      -7.941  73.428 117.003  0.00  0.00     0.016 C 
ATOM      3  C   LIG d   1      -8.737  72.261 117.052  0.00  0.00     0.038 C 
ATOM      4  C   LIG d   1     -10.038  72.272 117.576  0.00  0.00     0.028 C 
ATOM      5  C   LIG d   1     -10.255  73.345 118.637  0.00  0.00    -0.047 C 
ATOM      6  C   LIG d   1      -9.779  74.706 118.079  0.00  0.00     0.091 C 
ENDROOT
BRANCH   1   7
ATOM      7  O   LIG d   1      -8.034  75.735 116.700  0.00  0.00    -0.368 OA
BRANCH   7   8
ATOM      8  C   LIG d   1      -6.915  76.583 117.056  0.00  0.00     0.119 C 
BRANCH   8   9
ATOM      9  C   LIG d   1      -5.786  76.308 116.044  0.00  0.00     0.028 C 
ATOM     10  C   LIG d   1      -4.712  75.362 116.606  0.00  0.00     0.006 C 
ENDBRANCH   8   9
BRANCH   8  11
ATOM     11  C   LIG d   1      -6.337  76.200 118.422  0.00  0.00     0.028 C 
ATOM     12  C   LIG d   1      -6.550  77.289 119.486  0.00  0.00     0.006 C 
ENDBRANCH   8  11
ENDBRANCH   7   8
ENDBRANCH   1   7
BRANCH   6  13
ATOM     13  N   LIG d   1      -9.878  75.797 119.084  0.00  0.00    -0.311 N 
ATOM     14  C   LIG d   1     -10.935  76.600 119.193  0.00  0.00     0.210 C 
ATOM     15  C   LIG d   1     -10.823  77.671 120.283  0.00  0.00     0.109 C 
ATOM     16  O   LIG d   1     -11.967  76.506 118.513  0.00  0.00    -0.276 OA
ATOM     17  H   LIG d   1      -9.097  75.923 119.698  0.00  0.00     0.149 HD
ENDBRANCH   6  13
BRANCH   5  18
ATOM     18  N   LIG d   1     -11.685  73.335 118.996  0.00  0.00     0.381 N 
ATOM     19  H   LIG d   1     -11.948  74.226 119.368  0.00  0.00    -0.090 HD
ATOM     20  H   LIG d   1     -11.838  72.640 119.706  0.00  0.00    -0.090 HD
ATOM     21  H   LIG d   1     -12.237  73.127 118.193  0.00  0.00    -0.090 HD
ENDBRANCH   5  18
BRANCH   3  22
ATOM     22  C   LIG d   1      -8.216  71.054 116.609  0.00  0.00     0.382 C 
ATOM     23  O   LIG d   1      -7.252  71.045 115.806  0.00  0.00    -0.241 OA
ATOM     24  O   LIG d   1      -8.726  69.976 116.968  0.00  0.00    -0.241 OA
ENDBRANCH   3  22
TORSDOF 7
ENDMDL
MODEL 3
REMARK VINA RESULT:      -5.1      2.352      5.066
REMARK  7 active torsions:
REMARK  status: ('A' for Active; 'I' for Inactive)
REMARK    1  A    between atoms: C_2  and  C_3 
REMARK    2  A    between atoms: C_3  and  O_6 
REMARK    3  A    between atoms: C_3  and  C_4 
REMARK    4  A    between atoms: C_7  and  O_6 
REMARK    5  A    between atoms: C_9  and  C_10 
REMARK    6  A    between atoms: N_15  and  C_14 
REMARK    7  A    between atoms: N_20  and  C_19 
REMARK       I    between atoms: C_22  and  N_20 
ROOT
ATOM      1  C   LIG d   1      -8.400  74.777 117.842  0.00  0.00     0.161 C 
ATOM      2  C   LIG d   1      -9.659  74.166 117.970  0.00  0.00     0.016 C 
ATOM      3  C   LIG d   1     -10.830  74.867 118.339  0.00  0.00     0.038 C 
ATOM      4  C   LIG d   1     -10.851  76.264 118.459  0.00  0.00     0.028 C 
ATOM      5  C   LIG d   1      -9.499  76.861 118.833  0.00  0.00    -0.047 C 
ATOM      6  C   LIG d   1      -8.426  76.320 117.861  0.00  0.00     0.091 C 
ENDROOT
BRANCH   1   7
ATOM      7  O   LIG d   1      -7.744  74.301 116.650  0.00  0.00    -0.368 OA
BRANCH   7   8
ATOM      8  C   LIG d   1      -6.744  73.271 116.841  0.00  0.00     0.119 C 
BRANCH   8   9
ATOM      9  C   LIG d   1      -5.417  73.801 116.265  0.00  0.00     0.028 C 
ATOM     10  C   LIG d   1      -4.329  73.953 117.341  0.00  0.00     0.006 C 
ENDBRANCH   8   9
BRANCH   8  11
ATOM     11  C   LIG d   1      -7.071  72.019 116.022  0.00  0.00     0.028 C 
ATOM     12  C   LIG d   1      -7.971  71.029 116.778  0.00  0.00     0.006 C 
ENDBRANCH   8  11
ENDBRANCH   7   8
ENDBRANCH   1   7
BRANCH   6  13
ATOM     13  N   LIG d   1      -7.059  76.788 118.209  0.00  0.00    -0.311 N 
ATOM     14  C   LIG d   1      -6.184  77.231 117.307  0.00  0.00     0.210 C 
ATOM     15  C   LIG d   1      -4.823  77.646 117.876  0.00  0.00     0.109 C 
ATOM     16  O   LIG d   1      -6.417  77.349 116.095  0.00  0.00    -0.276 OA
ATOM     17  H   LIG d   1      -6.797  76.755 119.175  0.00  0.00     0.149 HD
ENDBRANCH   6  13
BRANCH   5  18
ATOM     18  N   LIG d   1      -9.632  78.329 118.789  0.00  0.00     0.381 N 
ATOM     19  H   LIG d   1     -10.576  78.590 118.990  0.00  0.00    -0.090 HD
ATOM     20  H   LIG d   1      -9.407  78.648 117.863  0.00  0.00    -0.090 HD
ATOM     21  H   LIG d   1      -9.016  78.747 119.451  0.00  0.00    -0.090 HD
ENDBRANCH   5  18
BRANCH   3  22
ATOM     22  C   LIG d   1     -11.989  74.163 118.630  0.00  0.00     0.382 C 
ATOM     23  O   LIG d   1     -13.109  74.674 118.393  0.00  0.00    -0.241 OA
ATOM     24  O   LIG d   1     -11.928  73.041 119.169  0.00  0.00    -0.241 OA
ENDBRANCH   3  22
TORSDOF 7
ENDMDL
MODEL 4
REMARK VINA RESULT:      -5.0      2.424      4.183
REMARK  7 active torsions:
REMARK  status: ('A' for Active; 'I' for Inactive)
REMARK    1  A    between atoms: C_2  and  C_3 
REMARK    2  A    between atoms: C_3  and  O_6 
REMARK    3  A    between atoms: C_3  and  C_4 
REMARK    4  A    between atoms: C_7  and  O_6 
REMARK    5  A    between atoms: C_9  and  C_10 
REMARK    6  A    between atoms: N_15  and  C_14 
REMARK    7  A    between atoms: N_20  and  C_19 
REMARK       I    between atoms: C_22  and  N_20 
ROOT
ATOM      1  C   LIG d   1      -8.150  74.512 118.741  0.00  0.00     0.161 C 
ATOM      2  C   LIG d   1      -6.886  74.705 118.160  0.00  0.00     0.016 C 
ATOM      3  C   LIG d   1      -6.374  73.892 117.123  0.00  0.00     0.038 C 
ATOM      4  C   LIG d   1      -7.158  72.916 116.490  0.00  0.00     0.028 C 
ATOM      5  C   LIG d   1      -8.258  72.351 117.382  0.00  0.00    -0.047 C 
ATOM      6  C   LIG d   1      -9.064  73.522 117.988  0.00  0.00     0.091 C 
ENDROOT
BRANCH   1   7
ATOM      7  O   LIG d   1      -8.813  75.781 118.904  0.00  0.00    -0.368 OA
BRANCH   7   8
ATOM      8  C   LIG d   1      -8.858  76.309 120.252  0.00  0.00     0.119 C 
BRANCH   8   9
ATOM      9  C   LIG d   1     -10.340  76.411 120.660  0.00  0.00     0.028 C 
ATOM     10  C   LIG d   1     -11.213  77.026 119.553  0.00  0.00     0.006 C 
ENDBRANCH   8   9
BRANCH   8  11
ATOM     11  C   LIG d   1      -8.322  77.742 120.308  0.00  0.00     0.028 C 
ATOM     12  C   LIG d   1      -7.474  78.110 119.080  0.00  0.00     0.006 C 
ENDBRANCH   8  11
ENDBRANCH   7   8
ENDBRANCH   1   7
BRANCH   6  13
ATOM     13  N   LIG d   1     -10.108  73.060 118.939  0.00  0.00    -0.311 N 
ATOM     14  C   LIG d   1     -11.395  73.382 118.829  0.00  0.00     0.210 C 
ATOM     15  C   LIG d   1     -12.300  72.816 119.928  0.00  0.00     0.109 C 
ATOM     16  O   LIG d   1     -11.879  74.056 117.907  0.00  0.00    -0.276 OA
ATOM     17  H   LIG d   1      -9.808  72.482 119.700  0.00  0.00     0.149 HD
ENDBRANCH   6  13
BRANCH   5  18
ATOM     18  N   LIG d   1      -9.082  71.449 116.555  0.00  0.00     0.381 N 
ATOM     19  H   LIG d   1      -8.993  70.509 116.887  0.00  0.00    -0.090 HD
ATOM     20  H   LIG d   1      -8.749  71.481 115.607  0.00  0.00    -0.090 HD
ATOM     21  H   LIG d   1     -10.037  71.732 116.589  0.00  0.00    -0.090 HD
ENDBRANCH   5  18
BRANCH   3  22
ATOM     22  C   LIG d   1      -5.048  74.024 116.737  0.00  0.00     0.382 C 
ATOM     23  O   LIG d   1      -4.150  73.406 117.358  0.00  0.00    -0.241 OA
ATOM     24  O   LIG d   1      -4.735  74.789 115.805  0.00  0.00    -0.241 OA
ENDBRANCH   3  22
TORSDOF 7
ENDMDL
MODEL 5
REMARK VINA RESULT:      -4.9      2.017      4.585
REMARK  7 active torsions:
REMARK  status: ('A' for Active; 'I' for Inactive)
REMARK    1  A    between atoms: C_2  and  C_3 
REMARK    2  A    between atoms: C_3  and  O_6 
REMARK    3  A    between atoms: C_3  and  C_4 
REMARK    4  A    between atoms: C_7  and  O_6 
REMARK    5  A    between atoms: C_9  and  C_10 
REMARK    6  A    between atoms: N_15  and  C_14 
REMARK    7  A    between atoms: N_20  and  C_19 
REMARK       I    between atoms: C_22  and  N_20 
ROOT
ATOM      1  C   LIG d   1      -8.900  73.866 119.172  0.00  0.00     0.161 C 
ATOM      2  C   LIG d   1     -10.248  73.497 119.308  0.00  0.00     0.016 C 
ATOM      3  C   LIG d   1     -11.320  74.413 119.203  0.00  0.00     0.038 C 
ATOM      4  C   LIG d   1     -11.123  75.743 118.801  0.00  0.00     0.028 C 
ATOM      5  C   LIG d   1      -9.738  76.280 119.145  0.00  0.00    -0.047 C 
ATOM      6  C   LIG d   1      -8.671  75.290 118.623  0.00  0.00     0.091 C 
ENDROOT
BRANCH   1   7
ATOM      7  O   LIG d   1      -8.209  72.899 118.358  0.00  0.00    -0.368 OA
BRANCH   7   8
ATOM      8  C   LIG d   1      -8.503  72.932 116.940  0.00  0.00     0.119 C 
BRANCH   8   9
ATOM      9  C   LIG d   1      -9.270  71.641 116.595  0.00  0.00     0.028 C 
ATOM     10  C   LIG d   1      -8.730  70.417 117.355  0.00  0.00     0.006 C 
ENDBRANCH   8   9
BRANCH   8  11
ATOM     11  C   LIG d   1      -7.221  72.878 116.103  0.00  0.00     0.028 C 
ATOM     12  C   LIG d   1      -5.957  73.153 116.932  0.00  0.00     0.006 C 
ENDBRANCH   8  11
ENDBRANCH   7   8
ENDBRANCH   1   7
BRANCH   6  13
ATOM     13  N   LIG d   1      -7.291  75.698 118.993  0.00  0.00    -0.311 N 
ATOM     14  C   LIG d   1      -6.507  76.432 118.204  0.00  0.00     0.210 C 
ATOM     15  C   LIG d   1      -5.113  76.723 118.767  0.00  0.00     0.109 C 
ATOM     16  O   LIG d   1      -6.846  76.896 117.105  0.00  0.00    -0.276 OA
ATOM     17  H   LIG d   1      -6.946  75.391 119.881  0.00  0.00     0.149 HD
ENDBRANCH   6  13
BRANCH   5  18
ATOM     18  N   LIG d   1      -9.620  77.624 118.549  0.00  0.00     0.381 N 
ATOM     19  H   LIG d   1     -10.111  77.652 117.677  0.00  0.00    -0.090 HD
ATOM     20  H   LIG d   1      -8.650  77.817 118.371  0.00  0.00    -0.090 HD
ATOM     21  H   LIG d   1      -9.994  78.307 119.171  0.00  0.00    -0.090 HD
ENDBRANCH   5  18
BRANCH   3  22
ATOM     22  C   LIG d   1     -12.604  74.011 119.540  0.00  0.00     0.382 C 
ATOM     23  O   LIG d   1     -13.581  74.756 119.285  0.00  0.00    -0.241 OA
ATOM     24  O   LIG d   1     -12.792  72.933 120.135  0.00  0.00    -0.241 OA
ENDBRANCH   3  22
TORSDOF 7
ENDMDL
MODEL 6
REMARK VINA RESULT:      -4.8     17.231     19.746
REMARK  7 active torsions:
REMARK  status: ('A' for Active; 'I' for Inactive)
REMARK    1  A    between atoms: C_2  and  C_3 
REMARK    2  A    between atoms: C_3  and  O_6 
REMARK    3  A    between atoms: C_3  and  C_4 
REMARK    4  A    between atoms: C_7  and  O_6 
REMARK    5  A    between atoms: C_9  and  C_10 
REMARK    6  A    between atoms: N_15  and  C_14 
REMARK    7  A    between atoms: N_20  and  C_19 
REMARK       I    between atoms: C_22  and  N_20 
ROOT
ATOM      1  C   LIG d   1      -0.168  57.581 117.784  0.00  0.00     0.161 C 
ATOM      2  C   LIG d   1       1.218  57.785 117.688  0.00  0.00     0.016 C 
ATOM      3  C   LIG d   1       1.955  58.565 118.608  0.00  0.00     0.038 C 
ATOM      4  C   LIG d   1       1.376  59.073 119.781  0.00  0.00     0.028 C 
ATOM      5  C   LIG d   1      -0.124  59.316 119.659  0.00  0.00    -0.047 C 
ATOM      6  C   LIG d   1      -0.798  58.034 119.117  0.00  0.00     0.091 C 
ENDROOT
BRANCH   1   7
ATOM      7  O   LIG d   1      -0.476  56.196 117.529  0.00  0.00    -0.368 OA
BRANCH   7   8
ATOM      8  C   LIG d   1       0.536  55.236 117.919  0.00  0.00     0.119 C 
BRANCH   8   9
ATOM      9  C   LIG d   1       0.794  54.318 116.708  0.00  0.00     0.028 C 
ATOM     10  C   LIG d   1       2.189  54.530 116.097  0.00  0.00     0.006 C 
ENDBRANCH   8   9
BRANCH   8  11
ATOM     11  C   LIG d   1       0.029  54.310 119.029  0.00  0.00     0.028 C 
ATOM     12  C   LIG d   1      -1.500  54.345 119.181  0.00  0.00     0.006 C 
ENDBRANCH   8  11
ENDBRANCH   7   8
ENDBRANCH   1   7
BRANCH   6  13
ATOM     13  N   LIG d   1      -2.255  58.213 118.888  0.00  0.00    -0.311 N 
ATOM     14  C   LIG d   1      -3.185  57.873 119.780  0.00  0.00     0.210 C 
ATOM     15  C   LIG d   1      -4.629  58.124 119.336  0.00  0.00     0.109 C 
ATOM     16  O   LIG d   1      -2.949  57.418 120.909  0.00  0.00    -0.276 OA
ATOM     17  H   LIG d   1      -2.534  58.605 118.010  0.00  0.00     0.149 HD
ENDBRANCH   6  13
BRANCH   5  18
ATOM     18  N   LIG d   1      -0.621  59.712 120.990  0.00  0.00     0.381 N 
ATOM     19  H   LIG d   1       0.016  60.357 121.412  0.00  0.00    -0.090 HD
ATOM     20  H   LIG d   1      -0.674  58.895 121.573  0.00  0.00    -0.090 HD
ATOM     21  H   LIG d   1      -1.522  60.129 120.908  0.00  0.00    -0.090 HD
ENDBRANCH   5  18
BRANCH   3  22
ATOM     22  C   LIG d   1       3.279  58.878 118.339  0.00  0.00     0.382 C 
ATOM     23  O   LIG d   1       4.201  58.191 118.841  0.00  0.00    -0.241 OA
ATOM     24  O   LIG d   1       3.565  59.866 117.636  0.00  0.00    -0.241 OA
ENDBRANCH   3  22
TORSDOF 7
ENDMDL
MODEL 7
REMARK VINA RESULT:      -4.8      2.182      4.423
REMARK  7 active torsions:
REMARK  status: ('A' for Active; 'I' for Inactive)
REMARK    1  A    between atoms: C_2  and  C_3 
REMARK    2  A    between atoms: C_3  and  O_6 
REMARK    3  A    between atoms: C_3  and  C_4 
REMARK    4  A    between atoms: C_7  and  O_6 
REMARK    5  A    between atoms: C_9  and  C_10 
REMARK    6  A    between atoms: N_15  and  C_14 
REMARK    7  A    between atoms: N_20  and  C_19 
REMARK       I    between atoms: C_22  and  N_20 
ROOT
ATOM      1  C   LIG d   1      -8.279  74.598 117.781  0.00  0.00     0.161 C 
ATOM      2  C   LIG d   1      -7.898  73.400 117.156  0.00  0.00     0.016 C 
ATOM      3  C   LIG d   1      -8.711  72.243 117.131  0.00  0.00     0.038 C 
ATOM      4  C   LIG d   1     -10.031  72.254 117.603  0.00  0.00     0.028 C 
ATOM      5  C   LIG d   1     -10.276  73.291 118.694  0.00  0.00    -0.047 C 
ATOM      6  C   LIG d   1      -9.761  74.664 118.205  0.00  0.00     0.091 C 
ENDROOT
BRANCH   1   7
ATOM      7  O   LIG d   1      -7.949  75.717 116.935  0.00  0.00    -0.368 OA
BRANCH   7   8
ATOM      8  C   LIG d   1      -6.759  76.460 117.295  0.00  0.00     0.119 C 
BRANCH   8   9
ATOM      9  C   LIG d   1      -7.215  77.814 117.873  0.00  0.00     0.028 C 
ATOM     10  C   LIG d   1      -6.707  78.042 119.307  0.00  0.00     0.006 C 
ENDBRANCH   8   9
BRANCH   8  11
ATOM     11  C   LIG d   1      -5.924  76.808 116.060  0.00  0.00     0.028 C 
ATOM     12  C   LIG d   1      -4.496  76.241 116.127  0.00  0.00     0.006 C 
ENDBRANCH   8  11
ENDBRANCH   7   8
ENDBRANCH   1   7
BRANCH   6  13
ATOM     13  N   LIG d   1      -9.885  75.719 119.245  0.00  0.00    -0.311 N 
ATOM     14  C   LIG d   1      -9.347  75.618 120.459  0.00  0.00     0.210 C 
ATOM     15  C   LIG d   1      -9.612  76.810 121.385  0.00  0.00     0.109 C 
ATOM     16  O   LIG d   1      -8.650  74.669 120.847  0.00  0.00    -0.276 OA
ATOM     17  H   LIG d   1     -10.409  76.538 119.004  0.00  0.00     0.149 HD
ENDBRANCH   6  13
BRANCH   5  18
ATOM     18  N   LIG d   1     -11.720  73.289 118.996  0.00  0.00     0.381 N 
ATOM     19  H   LIG d   1     -12.177  72.580 118.458  0.00  0.00    -0.090 HD
ATOM     20  H   LIG d   1     -12.107  74.179 118.738  0.00  0.00    -0.090 HD
ATOM     21  H   LIG d   1     -11.865  73.125 119.967  0.00  0.00    -0.090 HD
ENDBRANCH   5  18
BRANCH   3  22
ATOM     22  C   LIG d   1      -8.188  71.046 116.664  0.00  0.00     0.382 C 
ATOM     23  O   LIG d   1      -7.274  71.053 115.805  0.00  0.00    -0.241 OA
ATOM     24  O   LIG d   1      -8.650  69.959 117.059  0.00  0.00    -0.241 OA
ENDBRANCH   3  22
TORSDOF 7
ENDMDL
MODEL 8
REMARK VINA RESULT:      -4.7     16.111     18.695
REMARK  7 active torsions:
REMARK  status: ('A' for Active; 'I' for Inactive)
REMARK    1  A    between atoms: C_2  and  C_3 
REMARK    2  A    between atoms: C_3  and  O_6 
REMARK    3  A    between atoms: C_3  and  C_4 
REMARK    4  A    between atoms: C_7  and  O_6 
REMARK    5  A    between atoms: C_9  and  C_10 
REMARK    6  A    between atoms: N_15  and  C_14 
REMARK    7  A    between atoms: N_20  and  C_19 
REMARK       I    between atoms: C_22  and  N_20 
ROOT
ATOM      1  C   LIG d   1      -2.674  90.466 118.046  0.00  0.00     0.161 C 
ATOM      2  C   LIG d   1      -3.899  90.168 117.425  0.00  0.00     0.016 C 
ATOM      3  C   LIG d   1      -4.911  91.129 117.200  0.00  0.00     0.038 C 
ATOM      4  C   LIG d   1      -4.705  92.495 117.446  0.00  0.00     0.028 C 
ATOM      5  C   LIG d   1      -3.675  92.765 118.538  0.00  0.00    -0.047 C 
ATOM      6  C   LIG d   1      -2.387  91.972 118.220  0.00  0.00     0.091 C 
ENDROOT
BRANCH   1   7
ATOM      7  O   LIG d   1      -1.597  89.829 117.331  0.00  0.00    -0.368 OA
BRANCH   7   8
ATOM      8  C   LIG d   1      -1.153  88.552 117.852  0.00  0.00     0.119 C 
BRANCH   8   9
ATOM      9  C   LIG d   1      -1.506  88.516 119.351  0.00  0.00     0.028 C 
ATOM     10  C   LIG d   1      -2.264  87.237 119.745  0.00  0.00     0.006 C 
ENDBRANCH   8   9
BRANCH   8  11
ATOM     11  C   LIG d   1       0.372  88.425 117.791  0.00  0.00     0.028 C 
ATOM     12  C   LIG d   1       1.065  89.742 117.406  0.00  0.00     0.006 C 
ENDBRANCH   8  11
ENDBRANCH   7   8
ENDBRANCH   1   7
BRANCH   6  13
ATOM     13  N   LIG d   1      -1.358  92.113 119.283  0.00  0.00    -0.311 N 
ATOM     14  C   LIG d   1      -0.200  92.747 119.102  0.00  0.00     0.210 C 
ATOM     15  C   LIG d   1       0.727  92.760 120.322  0.00  0.00     0.109 C 
ATOM     16  O   LIG d   1       0.133  93.327 118.058  0.00  0.00    -0.276 OA
ATOM     17  H   LIG d   1      -1.560  91.699 120.172  0.00  0.00     0.149 HD
ENDBRANCH   6  13
BRANCH   5  18
ATOM     18  N   LIG d   1      -3.458  94.223 118.594  0.00  0.00     0.381 N 
ATOM     19  H   LIG d   1      -3.554  94.543 119.537  0.00  0.00    -0.090 HD
ATOM     20  H   LIG d   1      -4.156  94.678 118.034  0.00  0.00    -0.090 HD
ATOM     21  H   LIG d   1      -2.549  94.445 118.251  0.00  0.00    -0.090 HD
ENDBRANCH   5  18
BRANCH   3  22
ATOM     22  C   LIG d   1      -6.161  90.721 116.760  0.00  0.00     0.382 C 
ATOM     23  O   LIG d   1      -7.197  91.178 117.301  0.00  0.00    -0.241 OA
ATOM     24  O   LIG d   1      -6.266  89.867 115.859  0.00  0.00    -0.241 OA
ENDBRANCH   3  22
TORSDOF 7
ENDMDL
MODEL 9
REMARK VINA RESULT:      -4.7      2.391      5.352
REMARK  7 active torsions:
REMARK  status: ('A' for Active; 'I' for Inactive)
REMARK    1  A    between atoms: C_2  and  C_3 
REMARK    2  A    between atoms: C_3  and  O_6 
REMARK    3  A    between atoms: C_3  and  C_4 
REMARK    4  A    between atoms: C_7  and  O_6 
REMARK    5  A    between atoms: C_9  and  C_10 
REMARK    6  A    between atoms: N_15  and  C_14 
REMARK    7  A    between atoms: N_20  and  C_19 
REMARK       I    between atoms: C_22  and  N_20 
ROOT
ATOM      1  C   LIG d   1     -10.846  76.280 118.816  0.00  0.00     0.161 C 
ATOM      2  C   LIG d   1     -12.017  75.949 119.518  0.00  0.00     0.016 C 
ATOM      3  C   LIG d   1     -12.509  74.628 119.631  0.00  0.00     0.038 C 
ATOM      4  C   LIG d   1     -11.777  73.523 119.173  0.00  0.00     0.028 C 
ATOM      5  C   LIG d   1     -10.840  73.853 118.016  0.00  0.00    -0.047 C 
ATOM      6  C   LIG d   1      -9.976  75.075 118.404  0.00  0.00     0.091 C 
ENDROOT
BRANCH   1   7
ATOM      7  O   LIG d   1     -10.068  77.223 119.580  0.00  0.00    -0.368 OA
BRANCH   7   8
ATOM      8  C   LIG d   1     -10.066  78.588 119.096  0.00  0.00     0.119 C 
BRANCH   8   9
ATOM      9  C   LIG d   1      -8.671  78.869 118.506  0.00  0.00     0.028 C 
ATOM     10  C   LIG d   1      -7.548  78.187 119.306  0.00  0.00     0.006 C 
ENDBRANCH   8   9
BRANCH   8  11
ATOM     11  C   LIG d   1     -10.229  79.587 120.247  0.00  0.00     0.028 C 
ATOM     12  C   LIG d   1     -11.145  79.064 121.364  0.00  0.00     0.006 C 
ENDBRANCH   8  11
ENDBRANCH   7   8
ENDBRANCH   1   7
BRANCH   6  13
ATOM     13  N   LIG d   1      -9.090  75.517 117.296  0.00  0.00    -0.311 N 
ATOM     14  C   LIG d   1      -7.813  75.153 117.188  0.00  0.00     0.210 C 
ATOM     15  C   LIG d   1      -7.073  75.738 115.981  0.00  0.00     0.109 C 
ATOM     16  O   LIG d   1      -7.231  74.377 117.961  0.00  0.00    -0.276 OA
ATOM     17  H   LIG d   1      -9.489  76.124 116.607  0.00  0.00     0.149 HD
ENDBRANCH   6  13
BRANCH   5  18
ATOM     18  N   LIG d   1     -10.041  72.647 117.731  0.00  0.00     0.381 N 
ATOM     19  H   LIG d   1      -9.213  72.899 117.229  0.00  0.00    -0.090 HD
ATOM     20  H   LIG d   1     -10.583  72.028 117.153  0.00  0.00    -0.090 HD
ATOM     21  H   LIG d   1      -9.797  72.190 118.582  0.00  0.00    -0.090 HD
ENDBRANCH   5  18
BRANCH   3  22
ATOM     22  C   LIG d   1     -13.766  74.408 120.172  0.00  0.00     0.382 C 
ATOM     23  O   LIG d   1     -14.718  75.170 119.878  0.00  0.00    -0.241 OA
ATOM     24  O   LIG d   1     -13.950  73.483 120.986  0.00  0.00    -0.241 OA
ENDBRANCH   3  22
TORSDOF 7
ENDMDL
