MODEL 1
REMARK VINA RESULT:      -5.1      0.000      0.000
REMARK  7 active torsions:
REMARK  status: ('A' for Active; 'I' for Inactive)
REMARK    1  A    between atoms: C_2  and  C_3 
REMARK    2  A    between atoms: C_3  and  O_6 
REMARK    3  A    between atoms: C_3  and  C_4 
REMARK    4  A    between atoms: C_7  and  O_6 
REMARK    5  A    between atoms: C_9  and  C_10 
REMARK    6  A    between atoms: N_15  and  C_14 
REMARK    7  A    between atoms: N_20  and  C_19 
REMARK       I    between atoms: C_22  and  N_20 
ROOT
ATOM      1  C   LIG d   1      -6.421  92.751 119.376  0.00  0.00     0.161 C 
ATOM      2  C   LIG d   1      -6.413  91.725 118.417  0.00  0.00     0.016 C 
ATOM      3  C   LIG d   1      -6.812  91.912 117.074  0.00  0.00     0.038 C 
ATOM      4  C   LIG d   1      -7.107  93.183 116.558  0.00  0.00     0.028 C 
ATOM      5  C   LIG d   1      -7.615  94.161 117.612  0.00  0.00    -0.047 C 
ATOM      6  C   LIG d   1      -6.633  94.169 118.805  0.00  0.00     0.091 C 
ENDROOT
BRANCH   1   7
ATOM      7  O   LIG d   1      -5.210  92.701 120.156  0.00  0.00    -0.368 OA
BRANCH   7   8
ATOM      8  C   LIG d   1      -4.081  92.037 119.538  0.00  0.00     0.119 C 
BRANCH   8   9
ATOM      9  C   LIG d   1      -3.441  91.124 120.601  0.00  0.00     0.028 C 
ATOM     10  C   LIG d   1      -3.204  89.696 120.083  0.00  0.00     0.006 C 
ENDBRANCH   8   9
BRANCH   8  11
ATOM     11  C   LIG d   1      -2.988  93.039 119.153  0.00  0.00     0.028 C 
ATOM     12  C   LIG d   1      -2.780  93.139 117.633  0.00  0.00     0.006 C 
ENDBRANCH   8  11
ENDBRANCH   7   8
ENDBRANCH   1   7
BRANCH   6  13
ATOM     13  N   LIG d   1      -7.100  95.037 119.918  0.00  0.00    -0.311 N 
ATOM     14  C   LIG d   1      -6.751  96.316 120.045  0.00  0.00     0.210 C 
ATOM     15  C   LIG d   1      -7.328  97.024 121.275  0.00  0.00     0.109 C 
ATOM     16  O   LIG d   1      -6.046  96.941 119.238  0.00  0.00    -0.276 OA
ATOM     17  H   LIG d   1      -7.701  94.619 120.601  0.00  0.00     0.149 HD
ENDBRANCH   6  13
BRANCH   5  18
ATOM     18  N   LIG d   1      -7.751  95.481 116.966  0.00  0.00     0.381 N 
ATOM     19  H   LIG d   1      -7.715  96.202 117.659  0.00  0.00    -0.090 HD
ATOM     20  H   LIG d   1      -8.643  95.528 116.507  0.00  0.00    -0.090 HD
ATOM     21  H   LIG d   1      -7.020  95.612 116.302  0.00  0.00    -0.090 HD
ENDBRANCH   5  18
BRANCH   3  22
ATOM     22  C   LIG d   1      -6.959  90.813 116.241  0.00  0.00     0.382 C 
ATOM     23  O   LIG d   1      -8.106  90.391 115.957  0.00  0.00    -0.241 OA
ATOM     24  O   LIG d   1      -5.959  90.212 115.806  0.00  0.00    -0.241 OA
ENDBRANCH   3  22
TORSDOF 7
ENDMDL
MODEL 2
REMARK VINA RESULT:      -5.1      1.074      1.665
REMARK  7 active torsions:
REMARK  status: ('A' for Active; 'I' for Inactive)
REMARK    1  A    between atoms: C_2  and  C_3 
REMARK    2  A    between atoms: C_3  and  O_6 
REMARK    3  A    between atoms: C_3  and  C_4 
REMARK    4  A    between atoms: C_7  and  O_6 
REMARK    5  A    between atoms: C_9  and  C_10 
REMARK    6  A    between atoms: N_15  and  C_14 
REMARK    7  A    between atoms: N_20  and  C_19 
REMARK       I    between atoms: C_22  and  N_20 
ROOT
ATOM      1  C   LIG d   1      -6.179  93.034 119.374  0.00  0.00     0.161 C 
ATOM      2  C   LIG d   1      -6.181  91.981 118.443  0.00  0.00     0.016 C 
ATOM      3  C   LIG d   1      -6.675  92.109 117.125  0.00  0.00     0.038 C 
ATOM      4  C   LIG d   1      -7.065  93.348 116.596  0.00  0.00     0.028 C 
ATOM      5  C   LIG d   1      -7.553  94.332 117.654  0.00  0.00    -0.047 C 
ATOM      6  C   LIG d   1      -6.497  94.422 118.780  0.00  0.00     0.091 C 
ENDROOT
BRANCH   1   7
ATOM      7  O   LIG d   1      -4.919  93.065 120.073  0.00  0.00    -0.368 OA
BRANCH   7   8
ATOM      8  C   LIG d   1      -3.893  93.914 119.501  0.00  0.00     0.119 C 
BRANCH   8   9
ATOM      9  C   LIG d   1      -2.722  93.005 119.081  0.00  0.00     0.028 C 
ATOM     10  C   LIG d   1      -2.635  92.827 117.556  0.00  0.00     0.006 C 
ENDBRANCH   8   9
BRANCH   8  11
ATOM     11  C   LIG d   1      -3.311  94.868 120.549  0.00  0.00     0.028 C 
ATOM     12  C   LIG d   1      -3.941  94.683 121.938  0.00  0.00     0.006 C 
ENDBRANCH   8  11
ENDBRANCH   7   8
ENDBRANCH   1   7
BRANCH   6  13
ATOM     13  N   LIG d   1      -6.934  95.300 119.897  0.00  0.00    -0.311 N 
ATOM     14  C   LIG d   1      -6.610  96.588 119.987  0.00  0.00     0.210 C 
ATOM     15  C   LIG d   1      -7.147  97.305 121.230  0.00  0.00     0.109 C 
ATOM     16  O   LIG d   1      -5.956  97.214 119.139  0.00  0.00    -0.276 OA
ATOM     17  H   LIG d   1      -7.495  94.881 120.614  0.00  0.00     0.149 HD
ENDBRANCH   6  13
BRANCH   5  18
ATOM     18  N   LIG d   1      -7.795  95.624 116.984  0.00  0.00     0.381 N 
ATOM     19  H   LIG d   1      -8.702  95.621 116.562  0.00  0.00    -0.090 HD
ATOM     20  H   LIG d   1      -7.110  95.747 116.260  0.00  0.00    -0.090 HD
ATOM     21  H   LIG d   1      -7.730  96.368 117.644  0.00  0.00    -0.090 HD
ENDBRANCH   5  18
BRANCH   3  22
ATOM     22  C   LIG d   1      -6.821  90.980 116.333  0.00  0.00     0.382 C 
ATOM     23  O   LIG d   1      -7.955  90.466 116.177  0.00  0.00    -0.241 OA
ATOM     24  O   LIG d   1      -5.826  90.443 115.810  0.00  0.00    -0.241 OA
ENDBRANCH   3  22
TORSDOF 7
ENDMDL
MODEL 3
REMARK VINA RESULT:      -4.7      2.767      4.776
REMARK  7 active torsions:
REMARK  status: ('A' for Active; 'I' for Inactive)
REMARK    1  A    between atoms: C_2  and  C_3 
REMARK    2  A    between atoms: C_3  and  O_6 
REMARK    3  A    between atoms: C_3  and  C_4 
REMARK    4  A    between atoms: C_7  and  O_6 
REMARK    5  A    between atoms: C_9  and  C_10 
REMARK    6  A    between atoms: N_15  and  C_14 
REMARK    7  A    between atoms: N_20  and  C_19 
REMARK       I    between atoms: C_22  and  N_20 
ROOT
ATOM      1  C   LIG d   1      -4.243  93.641 118.788  0.00  0.00     0.161 C 
ATOM      2  C   LIG d   1      -5.448  94.357 118.701  0.00  0.00     0.016 C 
ATOM      3  C   LIG d   1      -6.503  94.002 117.829  0.00  0.00     0.038 C 
ATOM      4  C   LIG d   1      -6.483  92.811 117.088  0.00  0.00     0.028 C 
ATOM      5  C   LIG d   1      -5.076  92.322 116.764  0.00  0.00    -0.047 C 
ATOM      6  C   LIG d   1      -4.248  92.276 118.068  0.00  0.00     0.091 C 
ENDROOT
BRANCH   1   7
ATOM      7  O   LIG d   1      -3.870  93.477 120.170  0.00  0.00    -0.368 OA
BRANCH   7   8
ATOM      8  C   LIG d   1      -4.458  92.347 120.859  0.00  0.00     0.119 C 
BRANCH   8   9
ATOM      9  C   LIG d   1      -5.308  92.903 122.019  0.00  0.00     0.028 C 
ATOM     10  C   LIG d   1      -6.811  92.909 121.694  0.00  0.00     0.006 C 
ENDBRANCH   8   9
BRANCH   8  11
ATOM     11  C   LIG d   1      -3.385  91.479 121.523  0.00  0.00     0.028 C 
ATOM     12  C   LIG d   1      -1.969  92.053 121.359  0.00  0.00     0.006 C 
ENDBRANCH   8  11
ENDBRANCH   7   8
ENDBRANCH   1   7
BRANCH   6  13
ATOM     13  N   LIG d   1      -2.833  91.888 117.828  0.00  0.00    -0.311 N 
ATOM     14  C   LIG d   1      -2.379  90.644 117.971  0.00  0.00     0.210 C 
ATOM     15  C   LIG d   1      -0.884  90.466 117.693  0.00  0.00     0.109 C 
ATOM     16  O   LIG d   1      -3.080  89.666 118.270  0.00  0.00    -0.276 OA
ATOM     17  H   LIG d   1      -2.202  92.615 117.552  0.00  0.00     0.149 HD
ENDBRANCH   6  13
BRANCH   5  18
ATOM     18  N   LIG d   1      -5.200  91.005 116.111  0.00  0.00     0.381 N 
ATOM     19  H   LIG d   1      -4.334  90.760 115.675  0.00  0.00    -0.090 HD
ATOM     20  H   LIG d   1      -5.907  91.061 115.399  0.00  0.00    -0.090 HD
ATOM     21  H   LIG d   1      -5.450  90.314 116.783  0.00  0.00    -0.090 HD
ENDBRANCH   5  18
BRANCH   3  22
ATOM     22  C   LIG d   1      -7.576  94.864 117.661  0.00  0.00     0.382 C 
ATOM     23  O   LIG d   1      -8.702  94.410 117.346  0.00  0.00    -0.241 OA
ATOM     24  O   LIG d   1      -7.422  96.095 117.778  0.00  0.00    -0.241 OA
ENDBRANCH   3  22
TORSDOF 7
ENDMDL
MODEL 4
REMARK VINA RESULT:      -4.5      3.305      5.320
REMARK  7 active torsions:
REMARK  status: ('A' for Active; 'I' for Inactive)
REMARK    1  A    between atoms: C_2  and  C_3 
REMARK    2  A    between atoms: C_3  and  O_6 
REMARK    3  A    between atoms: C_3  and  C_4 
REMARK    4  A    between atoms: C_7  and  O_6 
REMARK    5  A    between atoms: C_9  and  C_10 
REMARK    6  A    between atoms: N_15  and  C_14 
REMARK    7  A    between atoms: N_20  and  C_19 
REMARK       I    between atoms: C_22  and  N_20 
ROOT
ATOM      1  C   LIG d   1      -3.393  93.584 118.201  0.00  0.00     0.161 C 
ATOM      2  C   LIG d   1      -4.736  93.971 118.349  0.00  0.00     0.016 C 
ATOM      3  C   LIG d   1      -5.828  93.136 118.018  0.00  0.00     0.038 C 
ATOM      4  C   LIG d   1      -5.650  91.793 117.655  0.00  0.00     0.028 C 
ATOM      5  C   LIG d   1      -4.298  91.514 117.008  0.00  0.00    -0.047 C 
ATOM      6  C   LIG d   1      -3.181  92.083 117.912  0.00  0.00     0.091 C 
ENDROOT
BRANCH   1   7
ATOM      7  O   LIG d   1      -2.639  93.982 119.363  0.00  0.00    -0.368 OA
BRANCH   7   8
ATOM      8  C   LIG d   1      -3.398  94.171 120.582  0.00  0.00     0.119 C 
BRANCH   8   9
ATOM      9  C   LIG d   1      -2.862  95.442 121.269  0.00  0.00     0.028 C 
ATOM     10  C   LIG d   1      -3.026  96.696 120.394  0.00  0.00     0.006 C 
ENDBRANCH   8   9
BRANCH   8  11
ATOM     11  C   LIG d   1      -3.146  93.034 121.577  0.00  0.00     0.028 C 
ATOM     12  C   LIG d   1      -4.233  91.948 121.530  0.00  0.00     0.006 C 
ENDBRANCH   8  11
ENDBRANCH   7   8
ENDBRANCH   1   7
BRANCH   6  13
ATOM     13  N   LIG d   1      -1.831  91.927 117.312  0.00  0.00    -0.311 N 
ATOM     14  C   LIG d   1      -1.034  90.889 117.559  0.00  0.00     0.210 C 
ATOM     15  C   LIG d   1       0.325  90.934 116.853  0.00  0.00     0.109 C 
ATOM     16  O   LIG d   1      -1.336  89.919 118.271  0.00  0.00    -0.276 OA
ATOM     17  H   LIG d   1      -1.518  92.653 116.697  0.00  0.00     0.149 HD
ENDBRANCH   6  13
BRANCH   5  18
ATOM     18  N   LIG d   1      -4.193  90.056 116.807  0.00  0.00     0.381 N 
ATOM     19  H   LIG d   1      -5.033  89.710 116.388  0.00  0.00    -0.090 HD
ATOM     20  H   LIG d   1      -4.080  89.612 117.701  0.00  0.00    -0.090 HD
ATOM     21  H   LIG d   1      -3.412  89.848 116.224  0.00  0.00    -0.090 HD
ENDBRANCH   5  18
BRANCH   3  22
ATOM     22  C   LIG d   1      -7.113  93.657 118.009  0.00  0.00     0.382 C 
ATOM     23  O   LIG d   1      -7.622  94.051 116.933  0.00  0.00    -0.241 OA
ATOM     24  O   LIG d   1      -7.752  93.778 119.071  0.00  0.00    -0.241 OA
ENDBRANCH   3  22
TORSDOF 7
ENDMDL
MODEL 5
REMARK VINA RESULT:      -4.3     13.173     15.756
REMARK  7 active torsions:
REMARK  status: ('A' for Active; 'I' for Inactive)
REMARK    1  A    between atoms: C_2  and  C_3 
REMARK    2  A    between atoms: C_3  and  O_6 
REMARK    3  A    between atoms: C_3  and  C_4 
REMARK    4  A    between atoms: C_7  and  O_6 
REMARK    5  A    between atoms: C_9  and  C_10 
REMARK    6  A    between atoms: N_15  and  C_14 
REMARK    7  A    between atoms: N_20  and  C_19 
REMARK       I    between atoms: C_22  and  N_20 
ROOT
ATOM      1  C   LIG d   1      -8.929  78.499 118.923  0.00  0.00     0.161 C 
ATOM      2  C   LIG d   1      -9.605  79.705 118.671  0.00  0.00     0.016 C 
ATOM      3  C   LIG d   1      -8.991  80.833 118.081  0.00  0.00     0.038 C 
ATOM      4  C   LIG d   1      -7.689  80.781 117.561  0.00  0.00     0.028 C 
ATOM      5  C   LIG d   1      -6.804  79.746 118.248  0.00  0.00    -0.047 C 
ATOM      6  C   LIG d   1      -7.540  78.387 118.262  0.00  0.00     0.091 C 
ENDROOT
BRANCH   1   7
ATOM      7  O   LIG d   1      -9.758  77.384 118.540  0.00  0.00    -0.368 OA
BRANCH   7   8
ATOM      8  C   LIG d   1     -11.010  77.244 119.257  0.00  0.00     0.119 C 
BRANCH   8   9
ATOM      9  C   LIG d   1     -10.674  76.791 120.691  0.00  0.00     0.028 C 
ATOM     10  C   LIG d   1     -11.180  77.780 121.753  0.00  0.00     0.006 C 
ENDBRANCH   8   9
BRANCH   8  11
ATOM     11  C   LIG d   1     -11.867  76.121 118.667  0.00  0.00     0.028 C 
ATOM     12  C   LIG d   1     -13.310  76.132 119.196  0.00  0.00     0.006 C 
ENDBRANCH   8  11
ENDBRANCH   7   8
ENDBRANCH   1   7
BRANCH   6  13
ATOM     13  N   LIG d   1      -6.779  77.338 118.990  0.00  0.00    -0.311 N 
ATOM     14  C   LIG d   1      -5.982  76.458 118.386  0.00  0.00     0.210 C 
ATOM     15  C   LIG d   1      -5.308  75.449 119.321  0.00  0.00     0.109 C 
ATOM     16  O   LIG d   1      -5.746  76.437 117.169  0.00  0.00    -0.276 OA
ATOM     17  H   LIG d   1      -6.888  77.303 119.985  0.00  0.00     0.149 HD
ENDBRANCH   6  13
BRANCH   5  18
ATOM     18  N   LIG d   1      -5.522  79.702 117.518  0.00  0.00     0.381 N 
ATOM     19  H   LIG d   1      -5.368  78.780 117.160  0.00  0.00    -0.090 HD
ATOM     20  H   LIG d   1      -4.777  79.921 118.156  0.00  0.00    -0.090 HD
ATOM     21  H   LIG d   1      -5.533  80.359 116.770  0.00  0.00    -0.090 HD
ENDBRANCH   5  18
BRANCH   3  22
ATOM     22  C   LIG d   1      -9.668  82.042 118.042  0.00  0.00     0.382 C 
ATOM     23  O   LIG d   1     -10.623  82.201 117.244  0.00  0.00    -0.241 OA
ATOM     24  O   LIG d   1      -9.307  82.992 118.764  0.00  0.00    -0.241 OA
ENDBRANCH   3  22
TORSDOF 7
ENDMDL
MODEL 6
REMARK VINA RESULT:      -4.0      2.477      3.534
REMARK  7 active torsions:
REMARK  status: ('A' for Active; 'I' for Inactive)
REMARK    1  A    between atoms: C_2  and  C_3 
REMARK    2  A    between atoms: C_3  and  O_6 
REMARK    3  A    between atoms: C_3  and  C_4 
REMARK    4  A    between atoms: C_7  and  O_6 
REMARK    5  A    between atoms: C_9  and  C_10 
REMARK    6  A    between atoms: N_15  and  C_14 
REMARK    7  A    between atoms: N_20  and  C_19 
REMARK       I    between atoms: C_22  and  N_20 
ROOT
ATOM      1  C   LIG d   1      -4.220  91.090 118.631  0.00  0.00     0.161 C 
ATOM      2  C   LIG d   1      -5.103  90.849 117.566  0.00  0.00     0.016 C 
ATOM      3  C   LIG d   1      -6.075  91.782 117.135  0.00  0.00     0.038 C 
ATOM      4  C   LIG d   1      -6.128  93.087 117.647  0.00  0.00     0.028 C 
ATOM      5  C   LIG d   1      -5.589  93.203 119.068  0.00  0.00    -0.047 C 
ATOM      6  C   LIG d   1      -4.189  92.550 119.129  0.00  0.00     0.091 C 
ENDROOT
BRANCH   1   7
ATOM      7  O   LIG d   1      -2.893  90.654 118.274  0.00  0.00    -0.368 OA
BRANCH   7   8
ATOM      8  C   LIG d   1      -2.606  89.250 118.485  0.00  0.00     0.119 C 
BRANCH   8   9
ATOM      9  C   LIG d   1      -3.010  88.906 119.931  0.00  0.00     0.028 C 
ATOM     10  C   LIG d   1      -1.853  89.102 120.926  0.00  0.00     0.006 C 
ENDBRANCH   8   9
BRANCH   8  11
ATOM     11  C   LIG d   1      -1.101  88.972 118.407  0.00  0.00     0.028 C 
ATOM     12  C   LIG d   1      -0.314  90.127 117.768  0.00  0.00     0.006 C 
ENDBRANCH   8  11
ENDBRANCH   7   8
ENDBRANCH   1   7
BRANCH   6  13
ATOM     13  N   LIG d   1      -3.625  92.546 120.504  0.00  0.00    -0.311 N 
ATOM     14  C   LIG d   1      -2.345  92.802 120.772  0.00  0.00     0.210 C 
ATOM     15  C   LIG d   1      -1.968  92.725 122.255  0.00  0.00     0.109 C 
ATOM     16  O   LIG d   1      -1.495  93.117 119.926  0.00  0.00    -0.276 OA
ATOM     17  H   LIG d   1      -4.252  92.330 121.253  0.00  0.00     0.149 HD
ENDBRANCH   6  13
BRANCH   5  18
ATOM     18  N   LIG d   1      -5.576  94.634 119.425  0.00  0.00     0.381 N 
ATOM     19  H   LIG d   1      -6.343  94.839 120.032  0.00  0.00    -0.090 HD
ATOM     20  H   LIG d   1      -5.683  95.179 118.587  0.00  0.00    -0.090 HD
ATOM     21  H   LIG d   1      -4.717  94.866 119.873  0.00  0.00    -0.090 HD
ENDBRANCH   5  18
BRANCH   3  22
ATOM     22  C   LIG d   1      -7.033  91.398 116.209  0.00  0.00     0.382 C 
ATOM     23  O   LIG d   1      -7.883  92.228 115.805  0.00  0.00    -0.241 OA
ATOM     24  O   LIG d   1      -7.086  90.220 115.807  0.00  0.00    -0.241 OA
ENDBRANCH   3  22
TORSDOF 7
ENDMDL
MODEL 7
REMARK VINA RESULT:      -4.0     19.933     22.318
REMARK  7 active torsions:
REMARK  status: ('A' for Active; 'I' for Inactive)
REMARK    1  A    between atoms: C_2  and  C_3 
REMARK    2  A    between atoms: C_3  and  O_6 
REMARK    3  A    between atoms: C_3  and  C_4 
REMARK    4  A    between atoms: C_7  and  O_6 
REMARK    5  A    between atoms: C_9  and  C_10 
REMARK    6  A    between atoms: N_15  and  C_14 
REMARK    7  A    between atoms: N_20  and  C_19 
REMARK       I    between atoms: C_22  and  N_20 
ROOT
ATOM      1  C   LIG d   1     -19.063  75.909 120.532  0.00  0.00     0.161 C 
ATOM      2  C   LIG d   1     -19.269  77.289 120.372  0.00  0.00     0.016 C 
ATOM      3  C   LIG d   1     -18.247  78.190 119.993  0.00  0.00     0.038 C 
ATOM      4  C   LIG d   1     -16.976  77.747 119.600  0.00  0.00     0.028 C 
ATOM      5  C   LIG d   1     -16.577  76.417 120.231  0.00  0.00    -0.047 C 
ATOM      6  C   LIG d   1     -17.710  75.391 120.000  0.00  0.00     0.091 C 
ENDROOT
BRANCH   1   7
ATOM      7  O   LIG d   1     -20.150  75.179 119.930  0.00  0.00    -0.368 OA
BRANCH   7   8
ATOM      8  C   LIG d   1     -21.316  74.968 120.765  0.00  0.00     0.119 C 
BRANCH   8   9
ATOM      9  C   LIG d   1     -21.163  73.587 121.432  0.00  0.00     0.028 C 
ATOM     10  C   LIG d   1     -20.658  72.515 120.452  0.00  0.00     0.006 C 
ENDBRANCH   8   9
BRANCH   8  11
ATOM     11  C   LIG d   1     -22.593  74.874 119.926  0.00  0.00     0.028 C 
ATOM     12  C   LIG d   1     -23.497  76.108 120.075  0.00  0.00     0.006 C 
ENDBRANCH   8  11
ENDBRANCH   7   8
ENDBRANCH   1   7
BRANCH   6  13
ATOM     13  N   LIG d   1     -17.438  74.087 120.658  0.00  0.00    -0.311 N 
ATOM     14  C   LIG d   1     -16.796  73.084 120.061  0.00  0.00     0.210 C 
ATOM     15  C   LIG d   1     -16.638  71.820 120.911  0.00  0.00     0.109 C 
ATOM     16  O   LIG d   1     -16.314  73.134 118.919  0.00  0.00    -0.276 OA
ATOM     17  H   LIG d   1     -17.766  73.972 121.597  0.00  0.00     0.149 HD
ENDBRANCH   6  13
BRANCH   5  18
ATOM     18  N   LIG d   1     -15.294  76.006 119.630  0.00  0.00     0.381 N 
ATOM     19  H   LIG d   1     -15.085  75.062 119.890  0.00  0.00    -0.090 HD
ATOM     20  H   LIG d   1     -14.564  76.599 119.985  0.00  0.00    -0.090 HD
ATOM     21  H   LIG d   1     -15.342  76.082 118.638  0.00  0.00    -0.090 HD
ENDBRANCH   5  18
BRANCH   3  22
ATOM     22  C   LIG d   1     -18.482  79.556 120.044  0.00  0.00     0.382 C 
ATOM     23  O   LIG d   1     -19.566  80.022 119.619  0.00  0.00    -0.241 OA
ATOM     24  O   LIG d   1     -17.605  80.332 120.469  0.00  0.00    -0.241 OA
ENDBRANCH   3  22
TORSDOF 7
ENDMDL
MODEL 8
REMARK VINA RESULT:      -4.0      2.455      3.861
REMARK  7 active torsions:
REMARK  status: ('A' for Active; 'I' for Inactive)
REMARK    1  A    between atoms: C_2  and  C_3 
REMARK    2  A    between atoms: C_3  and  O_6 
REMARK    3  A    between atoms: C_3  and  C_4 
REMARK    4  A    between atoms: C_7  and  O_6 
REMARK    5  A    between atoms: C_9  and  C_10 
REMARK    6  A    between atoms: N_15  and  C_14 
REMARK    7  A    between atoms: N_20  and  C_19 
REMARK       I    between atoms: C_22  and  N_20 
ROOT
ATOM      1  C   LIG d   1      -5.461  95.382 119.393  0.00  0.00     0.161 C 
ATOM      2  C   LIG d   1      -4.962  94.331 118.606  0.00  0.00     0.016 C 
ATOM      3  C   LIG d   1      -5.753  93.246 118.164  0.00  0.00     0.038 C 
ATOM      4  C   LIG d   1      -7.143  93.217 118.353  0.00  0.00     0.028 C 
ATOM      5  C   LIG d   1      -7.605  94.003 119.575  0.00  0.00    -0.047 C 
ATOM      6  C   LIG d   1      -6.999  95.424 119.516  0.00  0.00     0.091 C 
ENDROOT
BRANCH   1   7
ATOM      7  O   LIG d   1      -4.964  96.642 118.899  0.00  0.00    -0.368 OA
BRANCH   7   8
ATOM      8  C   LIG d   1      -3.554  96.899 119.114  0.00  0.00     0.119 C 
BRANCH   8   9
ATOM      9  C   LIG d   1      -3.377  97.300 120.591  0.00  0.00     0.028 C 
ATOM     10  C   LIG d   1      -4.304  98.455 121.001  0.00  0.00     0.006 C 
ENDBRANCH   8   9
BRANCH   8  11
ATOM     11  C   LIG d   1      -3.079  98.109 118.305  0.00  0.00     0.028 C 
ATOM     12  C   LIG d   1      -4.148  98.633 117.332  0.00  0.00     0.006 C 
ENDBRANCH   8  11
ENDBRANCH   7   8
ENDBRANCH   1   7
BRANCH   6  13
ATOM     13  N   LIG d   1      -7.333  96.233 120.717  0.00  0.00    -0.311 N 
ATOM     14  C   LIG d   1      -7.906  97.434 120.656  0.00  0.00     0.210 C 
ATOM     15  C   LIG d   1      -8.145  98.105 122.012  0.00  0.00     0.109 C 
ATOM     16  O   LIG d   1      -8.268  97.992 119.610  0.00  0.00    -0.276 OA
ATOM     17  H   LIG d   1      -7.102  95.841 121.609  0.00  0.00     0.149 HD
ENDBRANCH   6  13
BRANCH   5  18
ATOM     18  N   LIG d   1      -9.080  94.003 119.573  0.00  0.00     0.381 N 
ATOM     19  H   LIG d   1      -9.419  94.396 120.428  0.00  0.00    -0.090 HD
ATOM     20  H   LIG d   1      -9.405  93.054 119.512  0.00  0.00    -0.090 HD
ATOM     21  H   LIG d   1      -9.420  94.529 118.799  0.00  0.00    -0.090 HD
ENDBRANCH   5  18
BRANCH   3  22
ATOM     22  C   LIG d   1      -5.147  92.156 117.558  0.00  0.00     0.382 C 
ATOM     23  O   LIG d   1      -5.299  91.007 118.039  0.00  0.00    -0.241 OA
ATOM     24  O   LIG d   1      -4.414  92.313 116.563  0.00  0.00    -0.241 OA
ENDBRANCH   3  22
TORSDOF 7
ENDMDL
MODEL 9
REMARK VINA RESULT:      -4.0     12.428     15.116
REMARK  7 active torsions:
REMARK  status: ('A' for Active; 'I' for Inactive)
REMARK    1  A    between atoms: C_2  and  C_3 
REMARK    2  A    between atoms: C_3  and  O_6 
REMARK    3  A    between atoms: C_3  and  C_4 
REMARK    4  A    between atoms: C_7  and  O_6 
REMARK    5  A    between atoms: C_9  and  C_10 
REMARK    6  A    between atoms: N_15  and  C_14 
REMARK    7  A    between atoms: N_20  and  C_19 
REMARK       I    between atoms: C_22  and  N_20 
ROOT
ATOM      1  C   LIG d   1      -4.668  79.138 117.225  0.00  0.00     0.161 C 
ATOM      2  C   LIG d   1      -5.257  80.401 117.406  0.00  0.00     0.016 C 
ATOM      3  C   LIG d   1      -6.641  80.590 117.624  0.00  0.00     0.038 C 
ATOM      4  C   LIG d   1      -7.514  79.511 117.828  0.00  0.00     0.028 C 
ATOM      5  C   LIG d   1      -7.053  78.224 117.152  0.00  0.00    -0.047 C 
ATOM      6  C   LIG d   1      -5.587  77.943 117.554  0.00  0.00     0.091 C 
ENDROOT
BRANCH   1   7
ATOM      7  O   LIG d   1      -3.446  79.055 117.985  0.00  0.00    -0.368 OA
BRANCH   7   8
ATOM      8  C   LIG d   1      -2.224  78.937 117.216  0.00  0.00     0.119 C 
BRANCH   8   9
ATOM      9  C   LIG d   1      -1.503  77.658 117.685  0.00  0.00     0.028 C 
ATOM     10  C   LIG d   1      -2.068  77.119 119.010  0.00  0.00     0.006 C 
ENDBRANCH   8   9
BRANCH   8  11
ATOM     11  C   LIG d   1      -1.258  80.084 117.525  0.00  0.00     0.028 C 
ATOM     12  C   LIG d   1      -1.779  81.022 118.625  0.00  0.00     0.006 C 
ENDBRANCH   8  11
ENDBRANCH   7   8
ENDBRANCH   1   7
BRANCH   6  13
ATOM     13  N   LIG d   1      -5.031  76.747 116.870  0.00  0.00    -0.311 N 
ATOM     14  C   LIG d   1      -5.057  75.523 117.396  0.00  0.00     0.210 C 
ATOM     15  C   LIG d   1      -4.411  74.434 116.533  0.00  0.00     0.109 C 
ATOM     16  O   LIG d   1      -5.583  75.231 118.481  0.00  0.00    -0.276 OA
ATOM     17  H   LIG d   1      -4.613  76.888 115.971  0.00  0.00     0.149 HD
ENDBRANCH   6  13
BRANCH   5  18
ATOM     18  N   LIG d   1      -7.979  77.151 117.559  0.00  0.00     0.381 N 
ATOM     19  H   LIG d   1      -8.810  77.191 117.003  0.00  0.00    -0.090 HD
ATOM     20  H   LIG d   1      -8.237  77.291 118.521  0.00  0.00    -0.090 HD
ATOM     21  H   LIG d   1      -7.541  76.262 117.451  0.00  0.00    -0.090 HD
ENDBRANCH   5  18
BRANCH   3  22
ATOM     22  C   LIG d   1      -7.171  81.871 117.601  0.00  0.00     0.382 C 
ATOM     23  O   LIG d   1      -7.052  82.617 118.603  0.00  0.00    -0.241 OA
ATOM     24  O   LIG d   1      -7.806  82.274 116.608  0.00  0.00    -0.241 OA
ENDBRANCH   3  22
TORSDOF 7
ENDMDL
