MODEL 1
REMARK VINA RESULT:      -5.2      0.000      0.000
REMARK  7 active torsions:
REMARK  status: ('A' for Active; 'I' for Inactive)
REMARK    1  A    between atoms: C_2  and  C_3 
REMARK    2  A    between atoms: C_3  and  O_6 
REMARK    3  A    between atoms: C_3  and  C_4 
REMARK    4  A    between atoms: C_7  and  O_6 
REMARK    5  A    between atoms: C_9  and  C_10 
REMARK    6  A    between atoms: N_15  and  C_14 
REMARK    7  A    between atoms: N_20  and  C_19 
REMARK       I    between atoms: C_22  and  N_20 
ROOT
ATOM      1  C   LIG d   1      -8.253  76.195 116.994  0.00  0.00     0.161 C 
ATOM      2  C   LIG d   1      -9.340  75.306 117.032  0.00  0.00     0.016 C 
ATOM      3  C   LIG d   1      -9.221  73.920 116.777  0.00  0.00     0.038 C 
ATOM      4  C   LIG d   1      -7.974  73.301 116.613  0.00  0.00     0.028 C 
ATOM      5  C   LIG d   1      -6.900  74.236 116.066  0.00  0.00    -0.047 C 
ATOM      6  C   LIG d   1      -6.867  75.520 116.926  0.00  0.00     0.091 C 
ENDROOT
BRANCH   1   7
ATOM      7  O   LIG d   1      -8.318  77.095 118.118  0.00  0.00    -0.368 OA
BRANCH   7   8
ATOM      8  C   LIG d   1      -9.419  78.036 118.118  0.00  0.00     0.119 C 
BRANCH   8   9
ATOM      9  C   LIG d   1      -8.818  79.453 118.041  0.00  0.00     0.028 C 
ATOM     10  C   LIG d   1      -9.896  80.550 118.046  0.00  0.00     0.006 C 
ENDBRANCH   8   9
BRANCH   8  11
ATOM     11  C   LIG d   1     -10.189  77.994 119.441  0.00  0.00     0.028 C 
ATOM     12  C   LIG d   1      -9.604  76.981 120.438  0.00  0.00     0.006 C 
ENDBRANCH   8  11
ENDBRANCH   7   8
ENDBRANCH   1   7
BRANCH   6  13
ATOM     13  N   LIG d   1      -5.902  76.524 116.408  0.00  0.00    -0.311 N 
ATOM     14  C   LIG d   1      -4.644  76.620 116.835  0.00  0.00     0.210 C 
ATOM     15  C   LIG d   1      -3.824  77.738 116.184  0.00  0.00     0.109 C 
ATOM     16  O   LIG d   1      -4.120  75.865 117.667  0.00  0.00    -0.276 OA
ATOM     17  H   LIG d   1      -6.235  77.157 115.708  0.00  0.00     0.149 HD
ENDBRANCH   6  13
BRANCH   5  18
ATOM     18  N   LIG d   1      -5.622  73.501 116.076  0.00  0.00     0.381 N 
ATOM     19  H   LIG d   1      -5.773  72.554 115.789  0.00  0.00    -0.090 HD
ATOM     20  H   LIG d   1      -5.259  73.492 117.013  0.00  0.00    -0.090 HD
ATOM     21  H   LIG d   1      -4.970  73.941 115.464  0.00  0.00    -0.090 HD
ENDBRANCH   5  18
BRANCH   3  22
ATOM     22  C   LIG d   1     -10.364  73.146 116.644  0.00  0.00     0.382 C 
ATOM     23  O   LIG d   1     -11.496  73.673 116.764  0.00  0.00    -0.241 OA
ATOM     24  O   LIG d   1     -10.276  71.919 116.449  0.00  0.00    -0.241 OA
ENDBRANCH   3  22
TORSDOF 7
ENDMDL
MODEL 2
REMARK VINA RESULT:      -5.2     17.958     20.282
REMARK  7 active torsions:
REMARK  status: ('A' for Active; 'I' for Inactive)
REMARK    1  A    between atoms: C_2  and  C_3 
REMARK    2  A    between atoms: C_3  and  O_6 
REMARK    3  A    between atoms: C_3  and  C_4 
REMARK    4  A    between atoms: C_7  and  O_6 
REMARK    5  A    between atoms: C_9  and  C_10 
REMARK    6  A    between atoms: N_15  and  C_14 
REMARK    7  A    between atoms: N_20  and  C_19 
REMARK       I    between atoms: C_22  and  N_20 
ROOT
ATOM      1  C   LIG d   1       0.722  58.264 119.237  0.00  0.00     0.161 C 
ATOM      2  C   LIG d   1      -0.447  58.985 118.945  0.00  0.00     0.016 C 
ATOM      3  C   LIG d   1      -1.422  58.546 118.020  0.00  0.00     0.038 C 
ATOM      4  C   LIG d   1      -1.366  57.274 117.432  0.00  0.00     0.028 C 
ATOM      5  C   LIG d   1       0.051  56.724 117.311  0.00  0.00    -0.047 C 
ATOM      6  C   LIG d   1       0.746  56.822 118.688  0.00  0.00     0.091 C 
ENDROOT
BRANCH   1   7
ATOM      7  O   LIG d   1       0.954  58.262 120.659  0.00  0.00    -0.368 OA
BRANCH   7   8
ATOM      8  C   LIG d   1       1.669  59.405 121.190  0.00  0.00     0.119 C 
BRANCH   8   9
ATOM      9  C   LIG d   1       3.047  58.909 121.667  0.00  0.00     0.028 C 
ATOM     10  C   LIG d   1       4.084  58.874 120.531  0.00  0.00     0.006 C 
ENDBRANCH   8   9
BRANCH   8  11
ATOM     11  C   LIG d   1       0.982  59.960 122.442  0.00  0.00     0.028 C 
ATOM     12  C   LIG d   1      -0.117  60.984 122.114  0.00  0.00     0.006 C 
ENDBRANCH   8  11
ENDBRANCH   7   8
ENDBRANCH   1   7
BRANCH   6  13
ATOM     13  N   LIG d   1       2.165  56.382 118.639  0.00  0.00    -0.311 N 
ATOM     14  C   LIG d   1       2.726  55.609 119.568  0.00  0.00     0.210 C 
ATOM     15  C   LIG d   1       4.206  55.290 119.336  0.00  0.00     0.109 C 
ATOM     16  O   LIG d   1       2.129  55.131 120.544  0.00  0.00    -0.276 OA
ATOM     17  H   LIG d   1       2.714  56.699 117.864  0.00  0.00     0.149 HD
ENDBRANCH   6  13
BRANCH   5  18
ATOM     18  N   LIG d   1      -0.049  55.340 116.810  0.00  0.00     0.381 N 
ATOM     19  H   LIG d   1      -0.826  54.880 117.240  0.00  0.00    -0.090 HD
ATOM     20  H   LIG d   1       0.789  54.844 117.058  0.00  0.00    -0.090 HD
ATOM     21  H   LIG d   1      -0.161  55.343 115.820  0.00  0.00    -0.090 HD
ENDBRANCH   5  18
BRANCH   3  22
ATOM     22  C   LIG d   1      -2.447  59.401 117.644  0.00  0.00     0.382 C 
ATOM     23  O   LIG d   1      -3.407  58.967 116.963  0.00  0.00    -0.241 OA
ATOM     24  O   LIG d   1      -2.402  60.610 117.941  0.00  0.00    -0.241 OA
ENDBRANCH   3  22
TORSDOF 7
ENDMDL
MODEL 3
REMARK VINA RESULT:      -5.1     15.098     17.027
REMARK  7 active torsions:
REMARK  status: ('A' for Active; 'I' for Inactive)
REMARK    1  A    between atoms: C_2  and  C_3 
REMARK    2  A    between atoms: C_3  and  O_6 
REMARK    3  A    between atoms: C_3  and  C_4 
REMARK    4  A    between atoms: C_7  and  O_6 
REMARK    5  A    between atoms: C_9  and  C_10 
REMARK    6  A    between atoms: N_15  and  C_14 
REMARK    7  A    between atoms: N_20  and  C_19 
REMARK       I    between atoms: C_22  and  N_20 
ROOT
ATOM      1  C   LIG d   1      -3.391  91.167 118.312  0.00  0.00     0.161 C 
ATOM      2  C   LIG d   1      -4.260  90.717 117.304  0.00  0.00     0.016 C 
ATOM      3  C   LIG d   1      -5.579  91.198 117.141  0.00  0.00     0.038 C 
ATOM      4  C   LIG d   1      -6.071  92.279 117.889  0.00  0.00     0.028 C 
ATOM      5  C   LIG d   1      -5.406  92.425 119.253  0.00  0.00    -0.047 C 
ATOM      6  C   LIG d   1      -3.872  92.424 119.066  0.00  0.00     0.091 C 
ENDROOT
BRANCH   1   7
ATOM      7  O   LIG d   1      -2.076  91.384 117.763  0.00  0.00    -0.368 OA
BRANCH   7   8
ATOM      8  C   LIG d   1      -1.132  90.297 117.920  0.00  0.00     0.119 C 
BRANCH   8   9
ATOM      9  C   LIG d   1       0.139  90.877 118.571  0.00  0.00     0.028 C 
ATOM     10  C   LIG d   1       0.231  90.553 120.071  0.00  0.00     0.006 C 
ENDBRANCH   8   9
BRANCH   8  11
ATOM     11  C   LIG d   1      -0.680  89.751 116.563  0.00  0.00     0.028 C 
ATOM     12  C   LIG d   1       0.229  88.517 116.689  0.00  0.00     0.006 C 
ENDBRANCH   8  11
ENDBRANCH   7   8
ENDBRANCH   1   7
BRANCH   6  13
ATOM     13  N   LIG d   1      -3.143  92.478 120.361  0.00  0.00    -0.311 N 
ATOM     14  C   LIG d   1      -2.206  93.384 120.637  0.00  0.00     0.210 C 
ATOM     15  C   LIG d   1      -1.566  93.249 122.022  0.00  0.00     0.109 C 
ATOM     16  O   LIG d   1      -1.868  94.305 119.879  0.00  0.00    -0.276 OA
ATOM     17  H   LIG d   1      -3.378  91.786 121.045  0.00  0.00     0.149 HD
ENDBRANCH   6  13
BRANCH   5  18
ATOM     18  N   LIG d   1      -5.914  93.667 119.866  0.00  0.00     0.381 N 
ATOM     19  H   LIG d   1      -6.387  94.215 119.176  0.00  0.00    -0.090 HD
ATOM     20  H   LIG d   1      -5.136  94.199 120.213  0.00  0.00    -0.090 HD
ATOM     21  H   LIG d   1      -6.536  93.449 120.613  0.00  0.00    -0.090 HD
ENDBRANCH   5  18
BRANCH   3  22
ATOM     22  C   LIG d   1      -6.435  90.570 116.250  0.00  0.00     0.382 C 
ATOM     23  O   LIG d   1      -6.152  89.432 115.805  0.00  0.00    -0.241 OA
ATOM     24  O   LIG d   1      -7.465  91.146 115.850  0.00  0.00    -0.241 OA
ENDBRANCH   3  22
TORSDOF 7
ENDMDL
MODEL 4
REMARK VINA RESULT:      -5.0     18.512     20.738
REMARK  7 active torsions:
REMARK  status: ('A' for Active; 'I' for Inactive)
REMARK    1  A    between atoms: C_2  and  C_3 
REMARK    2  A    between atoms: C_3  and  O_6 
REMARK    3  A    between atoms: C_3  and  C_4 
REMARK    4  A    between atoms: C_7  and  O_6 
REMARK    5  A    between atoms: C_9  and  C_10 
REMARK    6  A    between atoms: N_15  and  C_14 
REMARK    7  A    between atoms: N_20  and  C_19 
REMARK       I    between atoms: C_22  and  N_20 
ROOT
ATOM      1  C   LIG d   1       0.590  57.667 119.427  0.00  0.00     0.161 C 
ATOM      2  C   LIG d   1      -0.586  58.162 118.838  0.00  0.00     0.016 C 
ATOM      3  C   LIG d   1      -1.062  57.736 117.577  0.00  0.00     0.038 C 
ATOM      4  C   LIG d   1      -0.472  56.670 116.882  0.00  0.00     0.028 C 
ATOM      5  C   LIG d   1       1.007  56.484 117.201  0.00  0.00    -0.047 C 
ATOM      6  C   LIG d   1       1.186  56.424 118.735  0.00  0.00     0.091 C 
ENDROOT
BRANCH   1   7
ATOM      7  O   LIG d   1       0.361  57.401 120.825  0.00  0.00    -0.368 OA
BRANCH   7   8
ATOM      8  C   LIG d   1       1.011  58.298 121.759  0.00  0.00     0.119 C 
BRANCH   8   9
ATOM      9  C   LIG d   1      -0.084  59.174 122.398  0.00  0.00     0.028 C 
ATOM     10  C   LIG d   1      -0.196  60.554 121.728  0.00  0.00     0.006 C 
ENDBRANCH   8   9
BRANCH   8  11
ATOM     11  C   LIG d   1       1.943  59.275 121.037  0.00  0.00     0.028 C 
ATOM     12  C   LIG d   1       3.423  59.056 121.387  0.00  0.00     0.006 C 
ENDBRANCH   8  11
ENDBRANCH   7   8
ENDBRANCH   1   7
BRANCH   6  13
ATOM     13  N   LIG d   1       2.614  56.327 119.136  0.00  0.00    -0.311 N 
ATOM     14  C   LIG d   1       3.250  55.170 119.310  0.00  0.00     0.210 C 
ATOM     15  C   LIG d   1       4.714  55.296 119.743  0.00  0.00     0.109 C 
ATOM     16  O   LIG d   1       2.751  54.052 119.115  0.00  0.00    -0.276 OA
ATOM     17  H   LIG d   1       3.105  57.187 119.285  0.00  0.00     0.149 HD
ENDBRANCH   6  13
BRANCH   5  18
ATOM     18  N   LIG d   1       1.460  55.258 116.517  0.00  0.00     0.381 N 
ATOM     19  H   LIG d   1       1.386  55.376 115.526  0.00  0.00    -0.090 HD
ATOM     20  H   LIG d   1       0.865  54.496 116.789  0.00  0.00    -0.090 HD
ATOM     21  H   LIG d   1       2.404  55.058 116.766  0.00  0.00    -0.090 HD
ENDBRANCH   5  18
BRANCH   3  22
ATOM     22  C   LIG d   1      -2.118  58.408 116.979  0.00  0.00     0.382 C 
ATOM     23  O   LIG d   1      -1.949  58.993 115.882  0.00  0.00    -0.241 OA
ATOM     24  O   LIG d   1      -3.226  58.474 117.544  0.00  0.00    -0.241 OA
ENDBRANCH   3  22
TORSDOF 7
ENDMDL
MODEL 5
REMARK VINA RESULT:      -4.9      3.463      5.769
REMARK  7 active torsions:
REMARK  status: ('A' for Active; 'I' for Inactive)
REMARK    1  A    between atoms: C_2  and  C_3 
REMARK    2  A    between atoms: C_3  and  O_6 
REMARK    3  A    between atoms: C_3  and  C_4 
REMARK    4  A    between atoms: C_7  and  O_6 
REMARK    5  A    between atoms: C_9  and  C_10 
REMARK    6  A    between atoms: N_15  and  C_14 
REMARK    7  A    between atoms: N_20  and  C_19 
REMARK       I    between atoms: C_22  and  N_20 
ROOT
ATOM      1  C   LIG d   1      -7.643  79.094 118.359  0.00  0.00     0.161 C 
ATOM      2  C   LIG d   1      -8.335  77.923 118.010  0.00  0.00     0.016 C 
ATOM      3  C   LIG d   1      -9.685  77.684 118.357  0.00  0.00     0.038 C 
ATOM      4  C   LIG d   1     -10.484  78.672 118.951  0.00  0.00     0.028 C 
ATOM      5  C   LIG d   1      -9.689  79.681 119.773  0.00  0.00    -0.047 C 
ATOM      6  C   LIG d   1      -8.530  80.230 118.910  0.00  0.00     0.091 C 
ENDROOT
BRANCH   1   7
ATOM      7  O   LIG d   1      -6.873  79.561 117.234  0.00  0.00    -0.368 OA
BRANCH   7   8
ATOM      8  C   LIG d   1      -5.437  79.610 117.420  0.00  0.00     0.119 C 
BRANCH   8   9
ATOM      9  C   LIG d   1      -4.992  81.070 117.212  0.00  0.00     0.028 C 
ATOM     10  C   LIG d   1      -4.170  81.608 118.395  0.00  0.00     0.006 C 
ENDBRANCH   8   9
BRANCH   8  11
ATOM     11  C   LIG d   1      -4.707  78.806 116.340  0.00  0.00     0.028 C 
ATOM     12  C   LIG d   1      -5.057  77.309 116.373  0.00  0.00     0.006 C 
ENDBRANCH   8  11
ENDBRANCH   7   8
ENDBRANCH   1   7
BRANCH   6  13
ATOM     13  N   LIG d   1      -7.652  81.161 119.666  0.00  0.00    -0.311 N 
ATOM     14  C   LIG d   1      -7.787  82.485 119.634  0.00  0.00     0.210 C 
ATOM     15  C   LIG d   1      -6.764  83.260 120.471  0.00  0.00     0.109 C 
ATOM     16  O   LIG d   1      -8.676  83.091 119.017  0.00  0.00    -0.276 OA
ATOM     17  H   LIG d   1      -6.923  80.753 120.218  0.00  0.00     0.149 HD
ENDBRANCH   6  13
BRANCH   5  18
ATOM     18  N   LIG d   1     -10.626  80.729 120.219  0.00  0.00     0.381 N 
ATOM     19  H   LIG d   1     -11.377  80.316 120.734  0.00  0.00    -0.090 HD
ATOM     20  H   LIG d   1     -11.011  81.186 119.411  0.00  0.00    -0.090 HD
ATOM     21  H   LIG d   1     -10.149  81.393 120.789  0.00  0.00    -0.090 HD
ENDBRANCH   5  18
BRANCH   3  22
ATOM     22  C   LIG d   1     -10.237  76.430 118.145  0.00  0.00     0.382 C 
ATOM     23  O   LIG d   1     -11.478  76.306 118.008  0.00  0.00    -0.241 OA
ATOM     24  O   LIG d   1      -9.514  75.415 118.135  0.00  0.00    -0.241 OA
ENDBRANCH   3  22
TORSDOF 7
ENDMDL
MODEL 6
REMARK VINA RESULT:      -4.9      2.275      4.699
REMARK  7 active torsions:
REMARK  status: ('A' for Active; 'I' for Inactive)
REMARK    1  A    between atoms: C_2  and  C_3 
REMARK    2  A    between atoms: C_3  and  O_6 
REMARK    3  A    between atoms: C_3  and  C_4 
REMARK    4  A    between atoms: C_7  and  O_6 
REMARK    5  A    between atoms: C_9  and  C_10 
REMARK    6  A    between atoms: N_15  and  C_14 
REMARK    7  A    between atoms: N_20  and  C_19 
REMARK       I    between atoms: C_22  and  N_20 
ROOT
ATOM      1  C   LIG d   1      -6.258  75.003 116.804  0.00  0.00     0.161 C 
ATOM      2  C   LIG d   1      -6.899  73.843 116.336  0.00  0.00     0.016 C 
ATOM      3  C   LIG d   1      -8.284  73.605 116.489  0.00  0.00     0.038 C 
ATOM      4  C   LIG d   1      -9.155  74.585 116.988  0.00  0.00     0.028 C 
ATOM      5  C   LIG d   1      -8.478  75.571 117.934  0.00  0.00    -0.047 C 
ATOM      6  C   LIG d   1      -7.210  76.132 117.251  0.00  0.00     0.091 C 
ENDROOT
BRANCH   1   7
ATOM      7  O   LIG d   1      -5.339  75.488 115.805  0.00  0.00    -0.368 OA
BRANCH   7   8
ATOM      8  C   LIG d   1      -3.948  75.125 115.989  0.00  0.00     0.119 C 
BRANCH   8   9
ATOM      9  C   LIG d   1      -3.784  74.640 117.443  0.00  0.00     0.028 C 
ATOM     10  C   LIG d   1      -2.999  73.321 117.536  0.00  0.00     0.006 C 
ENDBRANCH   8   9
BRANCH   8  11
ATOM     11  C   LIG d   1      -3.032  76.347 115.864  0.00  0.00     0.028 C 
ATOM     12  C   LIG d   1      -2.795  77.054 117.207  0.00  0.00     0.006 C 
ENDBRANCH   8  11
ENDBRANCH   7   8
ENDBRANCH   1   7
BRANCH   6  13
ATOM     13  N   LIG d   1      -6.441  77.041 118.141  0.00  0.00    -0.311 N 
ATOM     14  C   LIG d   1      -6.300  78.345 117.911  0.00  0.00     0.210 C 
ATOM     15  C   LIG d   1      -5.452  79.095 118.943  0.00  0.00     0.109 C 
ATOM     16  O   LIG d   1      -6.823  78.958 116.968  0.00  0.00    -0.276 OA
ATOM     17  H   LIG d   1      -6.010  76.633 118.947  0.00  0.00     0.149 HD
ENDBRANCH   6  13
BRANCH   5  18
ATOM     18  N   LIG d   1      -9.464  76.616 118.269  0.00  0.00     0.381 N 
ATOM     19  H   LIG d   1      -9.370  77.386 117.637  0.00  0.00    -0.090 HD
ATOM     20  H   LIG d   1      -9.282  76.947 119.200  0.00  0.00    -0.090 HD
ATOM     21  H   LIG d   1     -10.387  76.243 118.215  0.00  0.00    -0.090 HD
ENDBRANCH   5  18
BRANCH   3  22
ATOM     22  C   LIG d   1      -8.806  72.358 116.176  0.00  0.00     0.382 C 
ATOM     23  O   LIG d   1     -10.034  72.142 116.309  0.00  0.00    -0.241 OA
ATOM     24  O   LIG d   1      -8.056  71.435 115.805  0.00  0.00    -0.241 OA
ENDBRANCH   3  22
TORSDOF 7
ENDMDL
MODEL 7
REMARK VINA RESULT:      -4.8     15.320     17.505
REMARK  7 active torsions:
REMARK  status: ('A' for Active; 'I' for Inactive)
REMARK    1  A    between atoms: C_2  and  C_3 
REMARK    2  A    between atoms: C_3  and  O_6 
REMARK    3  A    between atoms: C_3  and  C_4 
REMARK    4  A    between atoms: C_7  and  O_6 
REMARK    5  A    between atoms: C_9  and  C_10 
REMARK    6  A    between atoms: N_15  and  C_14 
REMARK    7  A    between atoms: N_20  and  C_19 
REMARK       I    between atoms: C_22  and  N_20 
ROOT
ATOM      1  C   LIG d   1      -5.318  92.961 119.258  0.00  0.00     0.161 C 
ATOM      2  C   LIG d   1      -6.051  92.266 118.282  0.00  0.00     0.016 C 
ATOM      3  C   LIG d   1      -5.479  91.310 117.412  0.00  0.00     0.038 C 
ATOM      4  C   LIG d   1      -4.155  90.870 117.562  0.00  0.00     0.028 C 
ATOM      5  C   LIG d   1      -3.241  91.908 118.206  0.00  0.00    -0.047 C 
ATOM      6  C   LIG d   1      -3.898  92.414 119.511  0.00  0.00     0.091 C 
ENDROOT
BRANCH   1   7
ATOM      7  O   LIG d   1      -6.065  93.005 120.490  0.00  0.00    -0.368 OA
BRANCH   7   8
ATOM      8  C   LIG d   1      -6.590  94.300 120.872  0.00  0.00     0.119 C 
BRANCH   8   9
ATOM      9  C   LIG d   1      -8.107  94.282 120.602  0.00  0.00     0.028 C 
ATOM     10  C   LIG d   1      -8.478  94.992 119.289  0.00  0.00     0.006 C 
ENDBRANCH   8   9
BRANCH   8  11
ATOM     11  C   LIG d   1      -6.032  95.412 119.979  0.00  0.00     0.028 C 
ATOM     12  C   LIG d   1      -5.187  96.434 120.757  0.00  0.00     0.006 C 
ENDBRANCH   8  11
ENDBRANCH   7   8
ENDBRANCH   1   7
BRANCH   6  13
ATOM     13  N   LIG d   1      -3.109  93.493 120.161  0.00  0.00    -0.311 N 
ATOM     14  C   LIG d   1      -2.216  93.270 121.123  0.00  0.00     0.210 C 
ATOM     15  C   LIG d   1      -1.528  94.525 121.670  0.00  0.00     0.109 C 
ATOM     16  O   LIG d   1      -1.904  92.149 121.553  0.00  0.00    -0.276 OA
ATOM     17  H   LIG d   1      -3.276  94.430 119.850  0.00  0.00     0.149 HD
ENDBRANCH   6  13
BRANCH   5  18
ATOM     18  N   LIG d   1      -1.930  91.270 118.428  0.00  0.00     0.381 N 
ATOM     19  H   LIG d   1      -1.852  90.979 119.382  0.00  0.00    -0.090 HD
ATOM     20  H   LIG d   1      -1.206  91.942 118.243  0.00  0.00    -0.090 HD
ATOM     21  H   LIG d   1      -1.826  90.485 117.824  0.00  0.00    -0.090 HD
ENDBRANCH   5  18
BRANCH   3  22
ATOM     22  C   LIG d   1      -6.222  90.812 116.352  0.00  0.00     0.382 C 
ATOM     23  O   LIG d   1      -5.989  89.662 115.909  0.00  0.00    -0.241 OA
ATOM     24  O   LIG d   1      -7.093  91.516 115.806  0.00  0.00    -0.241 OA
ENDBRANCH   3  22
TORSDOF 7
ENDMDL
MODEL 8
REMARK VINA RESULT:      -4.7      2.235      5.620
REMARK  7 active torsions:
REMARK  status: ('A' for Active; 'I' for Inactive)
REMARK    1  A    between atoms: C_2  and  C_3 
REMARK    2  A    between atoms: C_3  and  O_6 
REMARK    3  A    between atoms: C_3  and  C_4 
REMARK    4  A    between atoms: C_7  and  O_6 
REMARK    5  A    between atoms: C_9  and  C_10 
REMARK    6  A    between atoms: N_15  and  C_14 
REMARK    7  A    between atoms: N_20  and  C_19 
REMARK       I    between atoms: C_22  and  N_20 
ROOT
ATOM      1  C   LIG d   1      -6.638  75.488 116.271  0.00  0.00     0.161 C 
ATOM      2  C   LIG d   1      -5.416  74.834 116.045  0.00  0.00     0.016 C 
ATOM      3  C   LIG d   1      -4.335  74.869 116.956  0.00  0.00     0.038 C 
ATOM      4  C   LIG d   1      -4.458  75.440 118.231  0.00  0.00     0.028 C 
ATOM      5  C   LIG d   1      -5.504  76.548 118.301  0.00  0.00    -0.047 C 
ATOM      6  C   LIG d   1      -6.831  76.023 117.705  0.00  0.00     0.091 C 
ENDROOT
BRANCH   1   7
ATOM      7  O   LIG d   1      -7.731  74.621 115.909  0.00  0.00    -0.368 OA
BRANCH   7   8
ATOM      8  C   LIG d   1      -7.995  73.518 116.810  0.00  0.00     0.119 C 
BRANCH   8   9
ATOM      9  C   LIG d   1      -8.066  72.233 115.961  0.00  0.00     0.028 C 
ATOM     10  C   LIG d   1      -8.798  71.091 116.686  0.00  0.00     0.006 C 
ENDBRANCH   8   9
BRANCH   8  11
ATOM     11  C   LIG d   1      -9.374  73.649 117.463  0.00  0.00     0.028 C 
ATOM     12  C   LIG d   1     -10.357  74.474 116.618  0.00  0.00     0.006 C 
ENDBRANCH   8  11
ENDBRANCH   7   8
ENDBRANCH   1   7
BRANCH   6  13
ATOM     13  N   LIG d   1      -7.884  77.071 117.657  0.00  0.00    -0.311 N 
ATOM     14  C   LIG d   1      -8.806  77.227 118.605  0.00  0.00     0.210 C 
ATOM     15  C   LIG d   1      -9.811  78.355 118.350  0.00  0.00     0.109 C 
ATOM     16  O   LIG d   1      -8.867  76.560 119.649  0.00  0.00    -0.276 OA
ATOM     17  H   LIG d   1      -7.889  77.677 116.860  0.00  0.00     0.149 HD
ENDBRANCH   6  13
BRANCH   5  18
ATOM     18  N   LIG d   1      -5.626  76.958 119.712  0.00  0.00     0.381 N 
ATOM     19  H   LIG d   1      -5.443  76.176 120.309  0.00  0.00    -0.090 HD
ATOM     20  H   LIG d   1      -6.567  77.269 119.880  0.00  0.00    -0.090 HD
ATOM     21  H   LIG d   1      -4.985  77.694 119.910  0.00  0.00    -0.090 HD
ENDBRANCH   5  18
BRANCH   3  22
ATOM     22  C   LIG d   1      -3.101  74.363 116.578  0.00  0.00     0.382 C 
ATOM     23  O   LIG d   1      -2.700  73.271 117.048  0.00  0.00    -0.241 OA
ATOM     24  O   LIG d   1      -2.364  75.006 115.806  0.00  0.00    -0.241 OA
ENDBRANCH   3  22
TORSDOF 7
ENDMDL
MODEL 9
REMARK VINA RESULT:      -4.6      2.712      4.833
REMARK  7 active torsions:
REMARK  status: ('A' for Active; 'I' for Inactive)
REMARK    1  A    between atoms: C_2  and  C_3 
REMARK    2  A    between atoms: C_3  and  O_6 
REMARK    3  A    between atoms: C_3  and  C_4 
REMARK    4  A    between atoms: C_7  and  O_6 
REMARK    5  A    between atoms: C_9  and  C_10 
REMARK    6  A    between atoms: N_15  and  C_14 
REMARK    7  A    between atoms: N_20  and  C_19 
REMARK       I    between atoms: C_22  and  N_20 
ROOT
ATOM      1  C   LIG d   1      -7.487  77.831 117.715  0.00  0.00     0.161 C 
ATOM      2  C   LIG d   1      -7.119  76.635 117.076  0.00  0.00     0.016 C 
ATOM      3  C   LIG d   1      -8.000  75.543 116.903  0.00  0.00     0.038 C 
ATOM      4  C   LIG d   1      -9.362  75.631 117.226  0.00  0.00     0.028 C 
ATOM      5  C   LIG d   1      -9.659  76.636 118.334  0.00  0.00    -0.047 C 
ATOM      6  C   LIG d   1      -9.000  77.987 117.975  0.00  0.00     0.091 C 
ENDROOT
BRANCH   1   7
ATOM      7  O   LIG d   1      -6.987  78.957 116.968  0.00  0.00    -0.368 OA
BRANCH   7   8
ATOM      8  C   LIG d   1      -5.934  79.726 117.600  0.00  0.00     0.119 C 
BRANCH   8   9
ATOM      9  C   LIG d   1      -6.362  81.206 117.576  0.00  0.00     0.028 C 
ATOM     10  C   LIG d   1      -6.290  81.860 118.966  0.00  0.00     0.006 C 
ENDBRANCH   8   9
BRANCH   8  11
ATOM     11  C   LIG d   1      -4.637  79.666 116.787  0.00  0.00     0.028 C 
ATOM     12  C   LIG d   1      -3.569  78.770 117.435  0.00  0.00     0.006 C 
ENDBRANCH   8  11
ENDBRANCH   7   8
ENDBRANCH   1   7
BRANCH   6  13
ATOM     13  N   LIG d   1      -9.170  79.003 119.046  0.00  0.00    -0.311 N 
ATOM     14  C   LIG d   1      -9.768  80.178 118.854  0.00  0.00     0.210 C 
ATOM     15  C   LIG d   1      -9.819  81.086 120.086  0.00  0.00     0.109 C 
ATOM     16  O   LIG d   1     -10.289  80.540 117.788  0.00  0.00    -0.276 OA
ATOM     17  H   LIG d   1      -8.804  78.778 119.950  0.00  0.00     0.149 HD
ENDBRANCH   6  13
BRANCH   5  18
ATOM     18  N   LIG d   1     -11.124  76.727 118.473  0.00  0.00     0.381 N 
ATOM     19  H   LIG d   1     -11.453  77.574 118.055  0.00  0.00    -0.090 HD
ATOM     20  H   LIG d   1     -11.358  76.746 119.450  0.00  0.00    -0.090 HD
ATOM     21  H   LIG d   1     -11.558  75.943 118.036  0.00  0.00    -0.090 HD
ENDBRANCH   5  18
BRANCH   3  22
ATOM     22  C   LIG d   1      -7.510  74.331 116.439  0.00  0.00     0.382 C 
ATOM     23  O   LIG d   1      -6.390  74.283 115.876  0.00  0.00    -0.241 OA
ATOM     24  O   LIG d   1      -8.194  73.295 116.536  0.00  0.00    -0.241 OA
ENDBRANCH   3  22
TORSDOF 7
ENDMDL
