MODEL 1
REMARK VINA RESULT:      -6.0      0.000      0.000
REMARK  7 active torsions:
REMARK  status: ('A' for Active; 'I' for Inactive)
REMARK    1  A    between atoms: C_2  and  C_3 
REMARK    2  A    between atoms: C_3  and  O_6 
REMARK    3  A    between atoms: C_3  and  C_4 
REMARK    4  A    between atoms: C_7  and  O_6 
REMARK    5  A    between atoms: C_9  and  C_10 
REMARK    6  A    between atoms: N_15  and  C_14 
REMARK    7  A    between atoms: N_20  and  C_19 
REMARK       I    between atoms: C_22  and  N_20 
ROOT
ATOM      1  C   LIG d   1       0.910  57.928 118.622  0.00  0.00     0.161 C 
ATOM      2  C   LIG d   1       1.304  58.632 119.772  0.00  0.00     0.016 C 
ATOM      3  C   LIG d   1       2.590  59.196 119.937  0.00  0.00     0.038 C 
ATOM      4  C   LIG d   1       3.526  59.225 118.892  0.00  0.00     0.028 C 
ATOM      5  C   LIG d   1       3.354  58.087 117.892  0.00  0.00    -0.047 C 
ATOM      6  C   LIG d   1       1.880  58.046 117.428  0.00  0.00     0.091 C 
ENDROOT
BRANCH   1   7
ATOM      7  O   LIG d   1      -0.417  58.334 118.231  0.00  0.00    -0.368 OA
BRANCH   7   8
ATOM      8  C   LIG d   1      -0.495  59.404 117.258  0.00  0.00     0.119 C 
BRANCH   8   9
ATOM      9  C   LIG d   1      -1.333  60.537 117.881  0.00  0.00     0.028 C 
ATOM     10  C   LIG d   1      -1.824  60.193 119.298  0.00  0.00     0.006 C 
ENDBRANCH   8   9
BRANCH   8  11
ATOM     11  C   LIG d   1      -1.269  58.967 116.010  0.00  0.00     0.028 C 
ATOM     12  C   LIG d   1      -2.137  57.722 116.254  0.00  0.00     0.006 C 
ENDBRANCH   8  11
ENDBRANCH   7   8
ENDBRANCH   1   7
BRANCH   6  13
ATOM     13  N   LIG d   1       1.606  56.908 116.512  0.00  0.00    -0.311 N 
ATOM     14  C   LIG d   1       1.546  55.640 116.915  0.00  0.00     0.210 C 
ATOM     15  C   LIG d   1       1.271  54.620 115.805  0.00  0.00     0.109 C 
ATOM     16  O   LIG d   1       1.662  55.266 118.092  0.00  0.00    -0.276 OA
ATOM     17  H   LIG d   1       1.468  57.124 115.544  0.00  0.00     0.149 HD
ENDBRANCH   6  13
BRANCH   5  18
ATOM     18  N   LIG d   1       4.302  58.317 116.787  0.00  0.00     0.381 N 
ATOM     19  H   LIG d   1       5.196  57.933 117.022  0.00  0.00    -0.090 HD
ATOM     20  H   LIG d   1       4.410  59.307 116.652  0.00  0.00    -0.090 HD
ATOM     21  H   LIG d   1       3.961  57.895 115.951  0.00  0.00    -0.090 HD
ENDBRANCH   5  18
BRANCH   3  22
ATOM     22  C   LIG d   1       2.964  59.704 121.171  0.00  0.00     0.382 C 
ATOM     23  O   LIG d   1       2.087  60.061 121.994  0.00  0.00    -0.241 OA
ATOM     24  O   LIG d   1       4.168  59.851 121.455  0.00  0.00    -0.241 OA
ENDBRANCH   3  22
TORSDOF 7
ENDMDL
MODEL 2
REMARK VINA RESULT:      -5.7     33.982     36.072
REMARK  7 active torsions:
REMARK  status: ('A' for Active; 'I' for Inactive)
REMARK    1  A    between atoms: C_2  and  C_3 
REMARK    2  A    between atoms: C_3  and  O_6 
REMARK    3  A    between atoms: C_3  and  C_4 
REMARK    4  A    between atoms: C_7  and  O_6 
REMARK    5  A    between atoms: C_9  and  C_10 
REMARK    6  A    between atoms: N_15  and  C_14 
REMARK    7  A    between atoms: N_20  and  C_19 
REMARK       I    between atoms: C_22  and  N_20 
ROOT
ATOM      1  C   LIG d   1      -5.746  93.336 118.494  0.00  0.00     0.161 C 
ATOM      2  C   LIG d   1      -6.803  94.248 118.340  0.00  0.00     0.016 C 
ATOM      3  C   LIG d   1      -6.856  95.497 119.002  0.00  0.00     0.038 C 
ATOM      4  C   LIG d   1      -5.775  95.985 119.750  0.00  0.00     0.028 C 
ATOM      5  C   LIG d   1      -4.901  94.885 120.342  0.00  0.00    -0.047 C 
ATOM      6  C   LIG d   1      -4.506  93.899 119.219  0.00  0.00     0.091 C 
ENDROOT
BRANCH   1   7
ATOM      7  O   LIG d   1      -5.375  92.797 117.210  0.00  0.00    -0.368 OA
BRANCH   7   8
ATOM      8  C   LIG d   1      -5.816  91.445 116.933  0.00  0.00     0.119 C 
BRANCH   8   9
ATOM      9  C   LIG d   1      -4.687  90.739 116.157  0.00  0.00     0.028 C 
ATOM     10  C   LIG d   1      -3.429  90.526 117.016  0.00  0.00     0.006 C 
ENDBRANCH   8   9
BRANCH   8  11
ATOM     11  C   LIG d   1      -7.024  91.435 115.992  0.00  0.00     0.028 C 
ATOM     12  C   LIG d   1      -7.622  90.031 115.806  0.00  0.00     0.006 C 
ENDBRANCH   8  11
ENDBRANCH   7   8
ENDBRANCH   1   7
BRANCH   6  13
ATOM     13  N   LIG d   1      -3.720  92.745 119.728  0.00  0.00    -0.311 N 
ATOM     14  C   LIG d   1      -2.389  92.722 119.760  0.00  0.00     0.210 C 
ATOM     15  C   LIG d   1      -1.778  91.427 120.305  0.00  0.00     0.109 C 
ATOM     16  O   LIG d   1      -1.657  93.663 119.420  0.00  0.00    -0.276 OA
ATOM     17  H   LIG d   1      -4.235  91.950 120.053  0.00  0.00     0.149 HD
ENDBRANCH   6  13
BRANCH   5  18
ATOM     18  N   LIG d   1      -3.738  95.532 120.978  0.00  0.00     0.381 N 
ATOM     19  H   LIG d   1      -3.381  96.251 120.380  0.00  0.00    -0.090 HD
ATOM     20  H   LIG d   1      -3.017  94.846 121.112  0.00  0.00    -0.090 HD
ATOM     21  H   LIG d   1      -4.003  95.922 121.856  0.00  0.00    -0.090 HD
ENDBRANCH   5  18
BRANCH   3  22
ATOM     22  C   LIG d   1      -8.017  96.253 118.950  0.00  0.00     0.382 C 
ATOM     23  O   LIG d   1      -7.975  97.483 119.198  0.00  0.00    -0.241 OA
ATOM     24  O   LIG d   1      -9.112  95.714 118.702  0.00  0.00    -0.241 OA
ENDBRANCH   3  22
TORSDOF 7
ENDMDL
MODEL 3
REMARK VINA RESULT:      -5.7      1.945      4.011
REMARK  7 active torsions:
REMARK  status: ('A' for Active; 'I' for Inactive)
REMARK    1  A    between atoms: C_2  and  C_3 
REMARK    2  A    between atoms: C_3  and  O_6 
REMARK    3  A    between atoms: C_3  and  C_4 
REMARK    4  A    between atoms: C_7  and  O_6 
REMARK    5  A    between atoms: C_9  and  C_10 
REMARK    6  A    between atoms: N_15  and  C_14 
REMARK    7  A    between atoms: N_20  and  C_19 
REMARK       I    between atoms: C_22  and  N_20 
ROOT
ATOM      1  C   LIG d   1       1.985  58.919 117.840  0.00  0.00     0.161 C 
ATOM      2  C   LIG d   1       3.084  58.947 118.714  0.00  0.00     0.016 C 
ATOM      3  C   LIG d   1       2.964  59.132 120.111  0.00  0.00     0.038 C 
ATOM      4  C   LIG d   1       1.715  59.152 120.751  0.00  0.00     0.028 C 
ATOM      5  C   LIG d   1       0.581  59.634 119.852  0.00  0.00    -0.047 C 
ATOM      6  C   LIG d   1       0.610  58.828 118.533  0.00  0.00     0.091 C 
ENDROOT
BRANCH   1   7
ATOM      7  O   LIG d   1       2.141  57.844 116.893  0.00  0.00    -0.368 OA
BRANCH   7   8
ATOM      8  C   LIG d   1       1.654  56.547 117.315  0.00  0.00     0.119 C 
BRANCH   8   9
ATOM      9  C   LIG d   1       2.878  55.624 117.479  0.00  0.00     0.028 C 
ATOM     10  C   LIG d   1       3.143  55.256 118.948  0.00  0.00     0.006 C 
ENDBRANCH   8   9
BRANCH   8  11
ATOM     11  C   LIG d   1       0.796  55.893 116.229  0.00  0.00     0.028 C 
ATOM     12  C   LIG d   1       1.320  54.511 115.806  0.00  0.00     0.006 C 
ENDBRANCH   8  11
ENDBRANCH   7   8
ENDBRANCH   1   7
BRANCH   6  13
ATOM     13  N   LIG d   1      -0.415  59.293 117.562  0.00  0.00    -0.311 N 
ATOM     14  C   LIG d   1      -1.672  58.854 117.556  0.00  0.00     0.210 C 
ATOM     15  C   LIG d   1      -2.560  59.448 116.458  0.00  0.00     0.109 C 
ATOM     16  O   LIG d   1      -2.145  58.051 118.375  0.00  0.00    -0.276 OA
ATOM     17  H   LIG d   1      -0.125  59.968 116.882  0.00  0.00     0.149 HD
ENDBRANCH   6  13
BRANCH   5  18
ATOM     18  N   LIG d   1      -0.679  59.473 120.601  0.00  0.00     0.381 N 
ATOM     19  H   LIG d   1      -0.617  58.677 121.203  0.00  0.00    -0.090 HD
ATOM     20  H   LIG d   1      -1.427  59.317 119.948  0.00  0.00    -0.090 HD
ATOM     21  H   LIG d   1      -0.863  60.292 121.138  0.00  0.00    -0.090 HD
ENDBRANCH   5  18
BRANCH   3  22
ATOM     22  C   LIG d   1       4.100  59.340 120.877  0.00  0.00     0.382 C 
ATOM     23  O   LIG d   1       4.022  59.980 121.954  0.00  0.00    -0.241 OA
ATOM     24  O   LIG d   1       5.210  58.935 120.484  0.00  0.00    -0.241 OA
ENDBRANCH   3  22
TORSDOF 7
ENDMDL
MODEL 4
REMARK VINA RESULT:      -5.5     32.961     34.961
REMARK  7 active torsions:
REMARK  status: ('A' for Active; 'I' for Inactive)
REMARK    1  A    between atoms: C_2  and  C_3 
REMARK    2  A    between atoms: C_3  and  O_6 
REMARK    3  A    between atoms: C_3  and  C_4 
REMARK    4  A    between atoms: C_7  and  O_6 
REMARK    5  A    between atoms: C_9  and  C_10 
REMARK    6  A    between atoms: N_15  and  C_14 
REMARK    7  A    between atoms: N_20  and  C_19 
REMARK       I    between atoms: C_22  and  N_20 
ROOT
ATOM      1  C   LIG d   1      -4.139  92.856 119.022  0.00  0.00     0.161 C 
ATOM      2  C   LIG d   1      -5.201  92.453 118.196  0.00  0.00     0.016 C 
ATOM      3  C   LIG d   1      -5.052  91.542 117.125  0.00  0.00     0.038 C 
ATOM      4  C   LIG d   1      -3.852  90.850 116.902  0.00  0.00     0.028 C 
ATOM      5  C   LIG d   1      -2.620  91.601 117.396  0.00  0.00    -0.047 C 
ATOM      6  C   LIG d   1      -2.847  92.028 118.864  0.00  0.00     0.091 C 
ENDROOT
BRANCH   1   7
ATOM      7  O   LIG d   1      -4.566  92.860 120.399  0.00  0.00    -0.368 OA
BRANCH   7   8
ATOM      8  C   LIG d   1      -4.934  94.150 120.948  0.00  0.00     0.119 C 
BRANCH   8   9
ATOM      9  C   LIG d   1      -3.825  94.566 121.935  0.00  0.00     0.028 C 
ATOM     10  C   LIG d   1      -2.900  95.649 121.354  0.00  0.00     0.006 C 
ENDBRANCH   8   9
BRANCH   8  11
ATOM     11  C   LIG d   1      -6.210  94.053 121.789  0.00  0.00     0.028 C 
ATOM     12  C   LIG d   1      -7.438  94.644 121.078  0.00  0.00     0.006 C 
ENDBRANCH   8  11
ENDBRANCH   7   8
ENDBRANCH   1   7
BRANCH   6  13
ATOM     13  N   LIG d   1      -1.723  92.841 119.398  0.00  0.00    -0.311 N 
ATOM     14  C   LIG d   1      -0.692  92.321 120.061  0.00  0.00     0.210 C 
ATOM     15  C   LIG d   1       0.347  93.338 120.543  0.00  0.00     0.109 C 
ATOM     16  O   LIG d   1      -0.524  91.110 120.269  0.00  0.00    -0.276 OA
ATOM     17  H   LIG d   1      -1.764  93.830 119.246  0.00  0.00     0.149 HD
ENDBRANCH   6  13
BRANCH   5  18
ATOM     18  N   LIG d   1      -1.457  90.709 117.226  0.00  0.00     0.381 N 
ATOM     19  H   LIG d   1      -0.943  90.656 118.082  0.00  0.00    -0.090 HD
ATOM     20  H   LIG d   1      -0.854  91.092 116.519  0.00  0.00    -0.090 HD
ATOM     21  H   LIG d   1      -1.762  89.800 116.956  0.00  0.00    -0.090 HD
ENDBRANCH   5  18
BRANCH   3  22
ATOM     22  C   LIG d   1      -6.101  91.344 116.240  0.00  0.00     0.382 C 
ATOM     23  O   LIG d   1      -6.370  90.187 115.835  0.00  0.00    -0.241 OA
ATOM     24  O   LIG d   1      -6.753  92.313 115.807  0.00  0.00    -0.241 OA
ENDBRANCH   3  22
TORSDOF 7
ENDMDL
MODEL 5
REMARK VINA RESULT:      -5.4     33.661     35.801
REMARK  7 active torsions:
REMARK  status: ('A' for Active; 'I' for Inactive)
REMARK    1  A    between atoms: C_2  and  C_3 
REMARK    2  A    between atoms: C_3  and  O_6 
REMARK    3  A    between atoms: C_3  and  C_4 
REMARK    4  A    between atoms: C_7  and  O_6 
REMARK    5  A    between atoms: C_9  and  C_10 
REMARK    6  A    between atoms: N_15  and  C_14 
REMARK    7  A    between atoms: N_20  and  C_19 
REMARK       I    between atoms: C_22  and  N_20 
ROOT
ATOM      1  C   LIG d   1      -4.731  93.506 118.944  0.00  0.00     0.161 C 
ATOM      2  C   LIG d   1      -5.618  92.831 118.088  0.00  0.00     0.016 C 
ATOM      3  C   LIG d   1      -5.206  91.849 117.158  0.00  0.00     0.038 C 
ATOM      4  C   LIG d   1      -3.890  91.363 117.127  0.00  0.00     0.028 C 
ATOM      5  C   LIG d   1      -2.860  92.372 117.624  0.00  0.00    -0.047 C 
ATOM      6  C   LIG d   1      -3.309  92.910 119.002  0.00  0.00     0.091 C 
ENDROOT
BRANCH   1   7
ATOM      7  O   LIG d   1      -5.295  93.585 120.268  0.00  0.00    -0.368 OA
BRANCH   7   8
ATOM      8  C   LIG d   1      -5.806  94.881 120.667  0.00  0.00     0.119 C 
BRANCH   8   9
ATOM      9  C   LIG d   1      -7.344  94.811 120.606  0.00  0.00     0.028 C 
ATOM     10  C   LIG d   1      -7.920  95.594 119.414  0.00  0.00     0.006 C 
ENDBRANCH   8   9
BRANCH   8  11
ATOM     11  C   LIG d   1      -5.409  95.969 119.665  0.00  0.00     0.028 C 
ATOM     12  C   LIG d   1      -4.414  96.983 120.249  0.00  0.00     0.006 C 
ENDBRANCH   8  11
ENDBRANCH   7   8
ENDBRANCH   1   7
BRANCH   6  13
ATOM     13  N   LIG d   1      -2.400  93.965 119.521  0.00  0.00    -0.311 N 
ATOM     14  C   LIG d   1      -1.367  93.713 120.324  0.00  0.00     0.210 C 
ATOM     15  C   LIG d   1      -0.571  94.947 120.760  0.00  0.00     0.109 C 
ATOM     16  O   LIG d   1      -1.016  92.581 120.691  0.00  0.00    -0.276 OA
ATOM     17  H   LIG d   1      -2.593  94.909 119.249  0.00  0.00     0.149 HD
ENDBRANCH   6  13
BRANCH   5  18
ATOM     18  N   LIG d   1      -1.553  91.690 117.667  0.00  0.00     0.381 N 
ATOM     19  H   LIG d   1      -1.681  90.705 117.544  0.00  0.00    -0.090 HD
ATOM     20  H   LIG d   1      -1.136  91.844 118.568  0.00  0.00    -0.090 HD
ATOM     21  H   LIG d   1      -0.958  92.046 116.952  0.00  0.00    -0.090 HD
ENDBRANCH   5  18
BRANCH   3  22
ATOM     22  C   LIG d   1      -6.107  91.371 116.220  0.00  0.00     0.382 C 
ATOM     23  O   LIG d   1      -7.040  92.106 115.815  0.00  0.00    -0.241 OA
ATOM     24  O   LIG d   1      -6.026  90.199 115.805  0.00  0.00    -0.241 OA
ENDBRANCH   3  22
TORSDOF 7
ENDMDL
MODEL 6
REMARK VINA RESULT:      -5.3     34.035     36.287
REMARK  7 active torsions:
REMARK  status: ('A' for Active; 'I' for Inactive)
REMARK    1  A    between atoms: C_2  and  C_3 
REMARK    2  A    between atoms: C_3  and  O_6 
REMARK    3  A    between atoms: C_3  and  C_4 
REMARK    4  A    between atoms: C_7  and  O_6 
REMARK    5  A    between atoms: C_9  and  C_10 
REMARK    6  A    between atoms: N_15  and  C_14 
REMARK    7  A    between atoms: N_20  and  C_19 
REMARK       I    between atoms: C_22  and  N_20 
ROOT
ATOM      1  C   LIG d   1      -4.670  93.339 119.127  0.00  0.00     0.161 C 
ATOM      2  C   LIG d   1      -4.769  92.336 118.148  0.00  0.00     0.016 C 
ATOM      3  C   LIG d   1      -5.883  92.193 117.290  0.00  0.00     0.038 C 
ATOM      4  C   LIG d   1      -6.916  93.142 117.251  0.00  0.00     0.028 C 
ATOM      5  C   LIG d   1      -7.102  93.889 118.567  0.00  0.00    -0.047 C 
ATOM      6  C   LIG d   1      -5.736  94.450 119.024  0.00  0.00     0.091 C 
ENDROOT
BRANCH   1   7
ATOM      7  O   LIG d   1      -3.347  93.911 119.109  0.00  0.00    -0.368 OA
BRANCH   7   8
ATOM      8  C   LIG d   1      -2.292  93.060 118.596  0.00  0.00     0.119 C 
BRANCH   8   9
ATOM      9  C   LIG d   1      -1.482  92.549 119.804  0.00  0.00     0.028 C 
ATOM     10  C   LIG d   1      -1.896  91.131 120.230  0.00  0.00     0.006 C 
ENDBRANCH   8   9
BRANCH   8  11
ATOM     11  C   LIG d   1      -1.297  93.857 117.748  0.00  0.00     0.028 C 
ATOM     12  C   LIG d   1      -0.763  95.105 118.469  0.00  0.00     0.006 C 
ENDBRANCH   8  11
ENDBRANCH   7   8
ENDBRANCH   1   7
BRANCH   6  13
ATOM     13  N   LIG d   1      -5.813  95.123 120.346  0.00  0.00    -0.311 N 
ATOM     14  C   LIG d   1      -5.582  96.423 120.522  0.00  0.00     0.210 C 
ATOM     15  C   LIG d   1      -5.695  96.911 121.970  0.00  0.00     0.109 C 
ATOM     16  O   LIG d   1      -5.327  97.226 119.611  0.00  0.00    -0.276 OA
ATOM     17  H   LIG d   1      -6.045  94.553 121.136  0.00  0.00     0.149 HD
ENDBRANCH   6  13
BRANCH   5  18
ATOM     18  N   LIG d   1      -8.113  94.939 118.345  0.00  0.00     0.381 N 
ATOM     19  H   LIG d   1      -8.705  94.683 117.580  0.00  0.00    -0.090 HD
ATOM     20  H   LIG d   1      -7.645  95.796 118.107  0.00  0.00    -0.090 HD
ATOM     21  H   LIG d   1      -8.659  95.067 119.168  0.00  0.00    -0.090 HD
ENDBRANCH   5  18
BRANCH   3  22
ATOM     22  C   LIG d   1      -5.992  91.068 116.487  0.00  0.00     0.382 C 
ATOM     23  O   LIG d   1      -4.958  90.474 116.097  0.00  0.00    -0.241 OA
ATOM     24  O   LIG d   1      -7.109  90.666 116.110  0.00  0.00    -0.241 OA
ENDBRANCH   3  22
TORSDOF 7
ENDMDL
MODEL 7
REMARK VINA RESULT:      -5.3     20.107     22.421
REMARK  7 active torsions:
REMARK  status: ('A' for Active; 'I' for Inactive)
REMARK    1  A    between atoms: C_2  and  C_3 
REMARK    2  A    between atoms: C_3  and  O_6 
REMARK    3  A    between atoms: C_3  and  C_4 
REMARK    4  A    between atoms: C_7  and  O_6 
REMARK    5  A    between atoms: C_9  and  C_10 
REMARK    6  A    between atoms: N_15  and  C_14 
REMARK    7  A    between atoms: N_20  and  C_19 
REMARK       I    between atoms: C_22  and  N_20 
ROOT
ATOM      1  C   LIG d   1      -6.549  78.287 118.586  0.00  0.00     0.161 C 
ATOM      2  C   LIG d   1      -7.926  78.161 118.833  0.00  0.00     0.016 C 
ATOM      3  C   LIG d   1      -8.853  79.207 118.619  0.00  0.00     0.038 C 
ATOM      4  C   LIG d   1      -8.485  80.409 117.996  0.00  0.00     0.028 C 
ATOM      5  C   LIG d   1      -7.016  80.768 118.194  0.00  0.00    -0.047 C 
ATOM      6  C   LIG d   1      -6.145  79.553 117.802  0.00  0.00     0.091 C 
ENDROOT
BRANCH   1   7
ATOM      7  O   LIG d   1      -6.063  77.107 117.916  0.00  0.00    -0.368 OA
BRANCH   7   8
ATOM      8  C   LIG d   1      -6.179  77.100 116.472  0.00  0.00     0.119 C 
BRANCH   8   9
ATOM      9  C   LIG d   1      -7.119  75.940 116.089  0.00  0.00     0.028 C 
ATOM     10  C   LIG d   1      -7.099  74.803 117.124  0.00  0.00     0.006 C 
ENDBRANCH   8   9
BRANCH   8  11
ATOM     11  C   LIG d   1      -4.839  76.773 115.806  0.00  0.00     0.028 C 
ATOM     12  C   LIG d   1      -3.727  76.470 116.823  0.00  0.00     0.006 C 
ENDBRANCH   8  11
ENDBRANCH   7   8
ENDBRANCH   1   7
BRANCH   6  13
ATOM     13  N   LIG d   1      -4.698  79.791 118.046  0.00  0.00    -0.311 N 
ATOM     14  C   LIG d   1      -3.848  80.175 117.095  0.00  0.00     0.210 C 
ATOM     15  C   LIG d   1      -2.397  80.344 117.556  0.00  0.00     0.109 C 
ATOM     16  O   LIG d   1      -4.164  80.423 115.922  0.00  0.00    -0.276 OA
ATOM     17  H   LIG d   1      -4.362  79.643 118.978  0.00  0.00     0.149 HD
ENDBRANCH   6  13
BRANCH   5  18
ATOM     18  N   LIG d   1      -6.737  81.967 117.381  0.00  0.00     0.381 N 
ATOM     19  H   LIG d   1      -7.192  82.762 117.782  0.00  0.00    -0.090 HD
ATOM     20  H   LIG d   1      -7.105  81.825 116.456  0.00  0.00    -0.090 HD
ATOM     21  H   LIG d   1      -5.755  82.126 117.334  0.00  0.00    -0.090 HD
ENDBRANCH   5  18
BRANCH   3  22
ATOM     22  C   LIG d   1     -10.159  79.070 119.066  0.00  0.00     0.382 C 
ATOM     23  O   LIG d   1     -10.636  79.906 119.871  0.00  0.00    -0.241 OA
ATOM     24  O   LIG d   1     -10.850  78.097 118.710  0.00  0.00    -0.241 OA
ENDBRANCH   3  22
TORSDOF 7
ENDMDL
MODEL 8
REMARK VINA RESULT:      -5.1     32.119     34.248
REMARK  7 active torsions:
REMARK  status: ('A' for Active; 'I' for Inactive)
REMARK    1  A    between atoms: C_2  and  C_3 
REMARK    2  A    between atoms: C_3  and  O_6 
REMARK    3  A    between atoms: C_3  and  C_4 
REMARK    4  A    between atoms: C_7  and  O_6 
REMARK    5  A    between atoms: C_9  and  C_10 
REMARK    6  A    between atoms: N_15  and  C_14 
REMARK    7  A    between atoms: N_20  and  C_19 
REMARK       I    between atoms: C_22  and  N_20 
ROOT
ATOM      1  C   LIG d   1      -1.848  91.607 118.527  0.00  0.00     0.161 C 
ATOM      2  C   LIG d   1      -2.729  91.262 117.489  0.00  0.00     0.016 C 
ATOM      3  C   LIG d   1      -4.062  91.729 117.412  0.00  0.00     0.038 C 
ATOM      4  C   LIG d   1      -4.559  92.700 118.293  0.00  0.00     0.028 C 
ATOM      5  C   LIG d   1      -3.867  92.696 119.652  0.00  0.00    -0.047 C 
ATOM      6  C   LIG d   1      -2.338  92.753 119.437  0.00  0.00     0.091 C 
ENDROOT
BRANCH   1   7
ATOM      7  O   LIG d   1      -0.550  91.919 117.982  0.00  0.00    -0.368 OA
BRANCH   7   8
ATOM      8  C   LIG d   1       0.459  90.887 118.110  0.00  0.00     0.119 C 
BRANCH   8   9
ATOM      9  C   LIG d   1       1.709  91.537 118.735  0.00  0.00     0.028 C 
ATOM     10  C   LIG d   1       2.040  90.957 120.121  0.00  0.00     0.006 C 
ENDBRANCH   8   9
BRANCH   8  11
ATOM     11  C   LIG d   1       0.911  90.378 116.738  0.00  0.00     0.028 C 
ATOM     12  C   LIG d   1       1.867  89.178 116.833  0.00  0.00     0.006 C 
ENDBRANCH   8  11
ENDBRANCH   7   8
ENDBRANCH   1   7
BRANCH   6  13
ATOM     13  N   LIG d   1      -1.582  92.668 120.713  0.00  0.00    -0.311 N 
ATOM     14  C   LIG d   1      -0.592  93.499 121.037  0.00  0.00     0.210 C 
ATOM     15  C   LIG d   1       0.067  93.223 122.391  0.00  0.00     0.109 C 
ATOM     16  O   LIG d   1      -0.220  94.458 120.344  0.00  0.00    -0.276 OA
ATOM     17  H   LIG d   1      -1.839  91.938 121.348  0.00  0.00     0.149 HD
ENDBRANCH   6  13
BRANCH   5  18
ATOM     18  N   LIG d   1      -4.386  93.843 120.420  0.00  0.00     0.381 N 
ATOM     19  H   LIG d   1      -4.932  94.432 119.823  0.00  0.00    -0.090 HD
ATOM     20  H   LIG d   1      -3.611  94.379 120.768  0.00  0.00    -0.090 HD
ATOM     21  H   LIG d   1      -4.944  93.521 121.180  0.00  0.00    -0.090 HD
ENDBRANCH   5  18
BRANCH   3  22
ATOM     22  C   LIG d   1      -4.924  91.193 116.468  0.00  0.00     0.382 C 
ATOM     23  O   LIG d   1      -4.672  90.079 115.948  0.00  0.00    -0.241 OA
ATOM     24  O   LIG d   1      -5.929  91.829 116.096  0.00  0.00    -0.241 OA
ENDBRANCH   3  22
TORSDOF 7
ENDMDL
MODEL 9
REMARK VINA RESULT:      -5.0     33.292     34.488
REMARK  7 active torsions:
REMARK  status: ('A' for Active; 'I' for Inactive)
REMARK    1  A    between atoms: C_2  and  C_3 
REMARK    2  A    between atoms: C_3  and  O_6 
REMARK    3  A    between atoms: C_3  and  C_4 
REMARK    4  A    between atoms: C_7  and  O_6 
REMARK    5  A    between atoms: C_9  and  C_10 
REMARK    6  A    between atoms: N_15  and  C_14 
REMARK    7  A    between atoms: N_20  and  C_19 
REMARK       I    between atoms: C_22  and  N_20 
ROOT
ATOM      1  C   LIG d   1      -3.369  92.540 118.706  0.00  0.00     0.161 C 
ATOM      2  C   LIG d   1      -2.261  92.119 117.951  0.00  0.00     0.016 C 
ATOM      3  C   LIG d   1      -0.990  91.857 118.514  0.00  0.00     0.038 C 
ATOM      4  C   LIG d   1      -0.780  91.853 119.901  0.00  0.00     0.028 C 
ATOM      5  C   LIG d   1      -1.739  92.763 120.661  0.00  0.00    -0.047 C 
ATOM      6  C   LIG d   1      -3.188  92.434 120.235  0.00  0.00     0.091 C 
ENDROOT
BRANCH   1   7
ATOM      7  O   LIG d   1      -4.546  91.820 118.290  0.00  0.00    -0.368 OA
BRANCH   7   8
ATOM      8  C   LIG d   1      -5.121  92.219 117.021  0.00  0.00     0.119 C 
BRANCH   8   9
ATOM      9  C   LIG d   1      -6.560  92.697 117.295  0.00  0.00     0.028 C 
ATOM     10  C   LIG d   1      -6.606  93.905 118.246  0.00  0.00     0.006 C 
ENDBRANCH   8   9
BRANCH   8  11
ATOM     11  C   LIG d   1      -5.264  91.024 116.074  0.00  0.00     0.028 C 
ATOM     12  C   LIG d   1      -6.730  90.638 115.819  0.00  0.00     0.006 C 
ENDBRANCH   8  11
ENDBRANCH   7   8
ENDBRANCH   1   7
BRANCH   6  13
ATOM     13  N   LIG d   1      -4.184  93.336 120.869  0.00  0.00    -0.311 N 
ATOM     14  C   LIG d   1      -5.061  92.930 121.785  0.00  0.00     0.210 C 
ATOM     15  C   LIG d   1      -6.013  94.017 122.296  0.00  0.00     0.109 C 
ATOM     16  O   LIG d   1      -5.121  91.781 122.247  0.00  0.00    -0.276 OA
ATOM     17  H   LIG d   1      -4.185  94.293 120.576  0.00  0.00     0.149 HD
ENDBRANCH   6  13
BRANCH   5  18
ATOM     18  N   LIG d   1      -1.499  92.557 122.102  0.00  0.00     0.381 N 
ATOM     19  H   LIG d   1      -0.526  92.674 122.304  0.00  0.00    -0.090 HD
ATOM     20  H   LIG d   1      -1.761  91.618 122.344  0.00  0.00    -0.090 HD
ATOM     21  H   LIG d   1      -2.036  93.207 122.633  0.00  0.00    -0.090 HD
ENDBRANCH   5  18
BRANCH   3  22
ATOM     22  C   LIG d   1       0.096  91.634 117.682  0.00  0.00     0.382 C 
ATOM     23  O   LIG d   1       1.018  92.483 117.613  0.00  0.00    -0.241 OA
ATOM     24  O   LIG d   1       0.146  90.616 116.966  0.00  0.00    -0.241 OA
ENDBRANCH   3  22
TORSDOF 7
ENDMDL
