MODEL 1
REMARK VINA RESULT:      -5.3      0.000      0.000
REMARK  7 active torsions:
REMARK  status: ('A' for Active; 'I' for Inactive)
REMARK    1  A    between atoms: C_2  and  C_3 
REMARK    2  A    between atoms: C_3  and  O_6 
REMARK    3  A    between atoms: C_3  and  C_4 
REMARK    4  A    between atoms: C_7  and  O_6 
REMARK    5  A    between atoms: C_9  and  C_10 
REMARK    6  A    between atoms: N_15  and  C_14 
REMARK    7  A    between atoms: N_20  and  C_19 
REMARK       I    between atoms: C_22  and  N_20 
ROOT
ATOM      1  C   LIG d   1      -7.253  75.906 117.848  0.00  0.00     0.161 C 
ATOM      2  C   LIG d   1      -8.565  75.682 118.299  0.00  0.00     0.016 C 
ATOM      3  C   LIG d   1      -9.419  76.714 118.751  0.00  0.00     0.038 C 
ATOM      4  C   LIG d   1      -9.069  78.068 118.640  0.00  0.00     0.028 C 
ATOM      5  C   LIG d   1      -7.563  78.308 118.661  0.00  0.00    -0.047 C 
ATOM      6  C   LIG d   1      -6.893  77.388 117.615  0.00  0.00     0.091 C 
ENDROOT
BRANCH   1   7
ATOM      7  O   LIG d   1      -7.010  75.137 116.653  0.00  0.00    -0.368 OA
BRANCH   7   8
ATOM      8  C   LIG d   1      -6.052  74.057 116.774  0.00  0.00     0.119 C 
BRANCH   8   9
ATOM      9  C   LIG d   1      -4.814  74.440 115.941  0.00  0.00     0.028 C 
ATOM     10  C   LIG d   1      -3.540  74.545 116.797  0.00  0.00     0.006 C 
ENDBRANCH   8   9
BRANCH   8  11
ATOM     11  C   LIG d   1      -6.583  72.767 116.141  0.00  0.00     0.028 C 
ATOM     12  C   LIG d   1      -7.570  72.019 117.051  0.00  0.00     0.006 C 
ENDBRANCH   8  11
ENDBRANCH   7   8
ENDBRANCH   1   7
BRANCH   6  13
ATOM     13  N   LIG d   1      -5.411  77.498 117.629  0.00  0.00    -0.311 N 
ATOM     14  C   LIG d   1      -4.735  78.375 116.889  0.00  0.00     0.210 C 
ATOM     15  C   LIG d   1      -3.212  78.308 117.038  0.00  0.00     0.109 C 
ATOM     16  O   LIG d   1      -5.253  79.224 116.148  0.00  0.00    -0.276 OA
ATOM     17  H   LIG d   1      -4.912  76.869 118.226  0.00  0.00     0.149 HD
ENDBRANCH   6  13
BRANCH   5  18
ATOM     18  N   LIG d   1      -7.336  79.742 118.399  0.00  0.00     0.381 N 
ATOM     19  H   LIG d   1      -8.214  80.209 118.289  0.00  0.00    -0.090 HD
ATOM     20  H   LIG d   1      -6.819  79.838 117.543  0.00  0.00    -0.090 HD
ATOM     21  H   LIG d   1      -6.826  80.150 119.151  0.00  0.00    -0.090 HD
ENDBRANCH   5  18
BRANCH   3  22
ATOM     22  C   LIG d   1     -10.623  76.393 119.359  0.00  0.00     0.382 C 
ATOM     23  O   LIG d   1     -10.628  75.825 120.478  0.00  0.00    -0.241 OA
ATOM     24  O   LIG d   1     -11.703  76.624 118.783  0.00  0.00    -0.241 OA
ENDBRANCH   3  22
TORSDOF 7
ENDMDL
MODEL 2
REMARK VINA RESULT:      -5.1      2.599      5.603
REMARK  7 active torsions:
REMARK  status: ('A' for Active; 'I' for Inactive)
REMARK    1  A    between atoms: C_2  and  C_3 
REMARK    2  A    between atoms: C_3  and  O_6 
REMARK    3  A    between atoms: C_3  and  C_4 
REMARK    4  A    between atoms: C_7  and  O_6 
REMARK    5  A    between atoms: C_9  and  C_10 
REMARK    6  A    between atoms: N_15  and  C_14 
REMARK    7  A    between atoms: N_20  and  C_19 
REMARK       I    between atoms: C_22  and  N_20 
ROOT
ATOM      1  C   LIG d   1      -4.675  75.850 116.317  0.00  0.00     0.161 C 
ATOM      2  C   LIG d   1      -3.519  75.071 116.139  0.00  0.00     0.016 C 
ATOM      3  C   LIG d   1      -2.425  75.086 117.033  0.00  0.00     0.038 C 
ATOM      4  C   LIG d   1      -2.475  75.774 118.255  0.00  0.00     0.028 C 
ATOM      5  C   LIG d   1      -3.416  76.973 118.237  0.00  0.00    -0.047 C 
ATOM      6  C   LIG d   1      -4.794  76.522 117.701  0.00  0.00     0.091 C 
ENDROOT
BRANCH   1   7
ATOM      7  O   LIG d   1      -5.846  75.057 116.042  0.00  0.00    -0.368 OA
BRANCH   7   8
ATOM      8  C   LIG d   1      -6.239  74.120 117.075  0.00  0.00     0.119 C 
BRANCH   8   9
ATOM      9  C   LIG d   1      -6.286  72.719 116.435  0.00  0.00     0.028 C 
ATOM     10  C   LIG d   1      -7.453  71.870 116.967  0.00  0.00     0.006 C 
ENDBRANCH   8   9
BRANCH   8  11
ATOM     11  C   LIG d   1      -7.665  74.393 117.561  0.00  0.00     0.028 C 
ATOM     12  C   LIG d   1      -8.416  75.397 116.673  0.00  0.00     0.006 C 
ENDBRANCH   8  11
ENDBRANCH   7   8
ENDBRANCH   1   7
BRANCH   6  13
ATOM     13  N   LIG d   1      -5.750  77.652 117.571  0.00  0.00    -0.311 N 
ATOM     14  C   LIG d   1      -6.631  77.980 118.516  0.00  0.00     0.210 C 
ATOM     15  C   LIG d   1      -7.537  79.166 118.171  0.00  0.00     0.109 C 
ATOM     16  O   LIG d   1      -6.726  77.421 119.619  0.00  0.00    -0.276 OA
ATOM     17  H   LIG d   1      -5.721  78.179 116.721  0.00  0.00     0.149 HD
ENDBRANCH   6  13
BRANCH   5  18
ATOM     18  N   LIG d   1      -3.478  77.513 119.608  0.00  0.00     0.381 N 
ATOM     19  H   LIG d   1      -2.560  77.531 120.006  0.00  0.00    -0.090 HD
ATOM     20  H   LIG d   1      -4.053  76.910 120.169  0.00  0.00    -0.090 HD
ATOM     21  H   LIG d   1      -3.861  78.432 119.596  0.00  0.00    -0.090 HD
ENDBRANCH   5  18
BRANCH   3  22
ATOM     22  C   LIG d   1      -1.247  74.440 116.689  0.00  0.00     0.382 C 
ATOM     23  O   LIG d   1      -0.901  73.401 117.300  0.00  0.00    -0.241 OA
ATOM     24  O   LIG d   1      -0.504  74.908 115.805  0.00  0.00    -0.241 OA
ENDBRANCH   3  22
TORSDOF 7
ENDMDL
MODEL 3
REMARK VINA RESULT:      -4.9      1.724      2.102
REMARK  7 active torsions:
REMARK  status: ('A' for Active; 'I' for Inactive)
REMARK    1  A    between atoms: C_2  and  C_3 
REMARK    2  A    between atoms: C_3  and  O_6 
REMARK    3  A    between atoms: C_3  and  C_4 
REMARK    4  A    between atoms: C_7  and  O_6 
REMARK    5  A    between atoms: C_9  and  C_10 
REMARK    6  A    between atoms: N_15  and  C_14 
REMARK    7  A    between atoms: N_20  and  C_19 
REMARK       I    between atoms: C_22  and  N_20 
ROOT
ATOM      1  C   LIG d   1      -7.583  77.642 118.557  0.00  0.00     0.161 C 
ATOM      2  C   LIG d   1      -8.691  76.834 118.860  0.00  0.00     0.016 C 
ATOM      3  C   LIG d   1      -9.984  77.348 119.112  0.00  0.00     0.038 C 
ATOM      4  C   LIG d   1     -10.291  78.704 118.927  0.00  0.00     0.028 C 
ATOM      5  C   LIG d   1      -9.092  79.628 119.113  0.00  0.00    -0.047 C 
ATOM      6  C   LIG d   1      -7.923  79.114 118.242  0.00  0.00     0.091 C 
ENDROOT
BRANCH   1   7
ATOM      7  O   LIG d   1      -6.834  77.057 117.473  0.00  0.00    -0.368 OA
BRANCH   7   8
ATOM      8  C   LIG d   1      -6.281  75.741 117.718  0.00  0.00     0.119 C 
BRANCH   8   9
ATOM      9  C   LIG d   1      -4.746  75.873 117.697  0.00  0.00     0.028 C 
ATOM     10  C   LIG d   1      -4.075  74.783 116.844  0.00  0.00     0.006 C 
ENDBRANCH   8   9
BRANCH   8  11
ATOM     11  C   LIG d   1      -6.620  74.774 116.580  0.00  0.00     0.028 C 
ATOM     12  C   LIG d   1      -7.540  73.627 117.027  0.00  0.00     0.006 C 
ENDBRANCH   8  11
ENDBRANCH   7   8
ENDBRANCH   1   7
BRANCH   6  13
ATOM     13  N   LIG d   1      -6.683  79.912 118.429  0.00  0.00    -0.311 N 
ATOM     14  C   LIG d   1      -6.414  81.020 117.741  0.00  0.00     0.210 C 
ATOM     15  C   LIG d   1      -5.072  81.678 118.076  0.00  0.00     0.109 C 
ATOM     16  O   LIG d   1      -7.173  81.538 116.909  0.00  0.00    -0.276 OA
ATOM     17  H   LIG d   1      -6.026  79.580 119.108  0.00  0.00     0.149 HD
ENDBRANCH   6  13
BRANCH   5  18
ATOM     18  N   LIG d   1      -9.522  80.993 118.757  0.00  0.00     0.381 N 
ATOM     19  H   LIG d   1      -9.156  81.647 119.420  0.00  0.00    -0.090 HD
ATOM     20  H   LIG d   1     -10.525  81.037 118.790  0.00  0.00    -0.090 HD
ATOM     21  H   LIG d   1      -9.203  81.223 117.841  0.00  0.00    -0.090 HD
ENDBRANCH   5  18
BRANCH   3  22
ATOM     22  C   LIG d   1     -10.977  76.507 119.591  0.00  0.00     0.382 C 
ATOM     23  O   LIG d   1     -10.786  75.846 120.641  0.00  0.00    -0.241 OA
ATOM     24  O   LIG d   1     -12.044  76.367 118.965  0.00  0.00    -0.241 OA
ENDBRANCH   3  22
TORSDOF 7
ENDMDL
MODEL 4
REMARK VINA RESULT:      -4.8      2.868      5.553
REMARK  7 active torsions:
REMARK  status: ('A' for Active; 'I' for Inactive)
REMARK    1  A    between atoms: C_2  and  C_3 
REMARK    2  A    between atoms: C_3  and  O_6 
REMARK    3  A    between atoms: C_3  and  C_4 
REMARK    4  A    between atoms: C_7  and  O_6 
REMARK    5  A    between atoms: C_9  and  C_10 
REMARK    6  A    between atoms: N_15  and  C_14 
REMARK    7  A    between atoms: N_20  and  C_19 
REMARK       I    between atoms: C_22  and  N_20 
ROOT
ATOM      1  C   LIG d   1      -9.479  77.648 118.679  0.00  0.00     0.161 C 
ATOM      2  C   LIG d   1      -8.773  78.785 118.250  0.00  0.00     0.016 C 
ATOM      3  C   LIG d   1      -9.048  80.092 118.713  0.00  0.00     0.038 C 
ATOM      4  C   LIG d   1      -9.953  80.334 119.757  0.00  0.00     0.028 C 
ATOM      5  C   LIG d   1     -11.048  79.279 119.866  0.00  0.00    -0.047 C 
ATOM      6  C   LIG d   1     -10.394  77.879 119.900  0.00  0.00     0.091 C 
ENDROOT
BRANCH   1   7
ATOM      7  O   LIG d   1      -8.558  76.571 118.939  0.00  0.00    -0.368 OA
BRANCH   7   8
ATOM      8  C   LIG d   1      -7.603  76.280 117.889  0.00  0.00     0.119 C 
BRANCH   8   9
ATOM      9  C   LIG d   1      -8.248  75.243 116.951  0.00  0.00     0.028 C 
ATOM     10  C   LIG d   1      -7.611  73.850 117.089  0.00  0.00     0.006 C 
ENDBRANCH   8   9
BRANCH   8  11
ATOM     11  C   LIG d   1      -6.351  75.598 118.448  0.00  0.00     0.028 C 
ATOM     12  C   LIG d   1      -5.494  76.539 119.310  0.00  0.00     0.006 C 
ENDBRANCH   8  11
ENDBRANCH   7   8
ENDBRANCH   1   7
BRANCH   6  13
ATOM     13  N   LIG d   1     -11.400  76.784 119.921  0.00  0.00    -0.311 N 
ATOM     14  C   LIG d   1     -11.748  76.129 121.027  0.00  0.00     0.210 C 
ATOM     15  C   LIG d   1     -12.788  75.023 120.824  0.00  0.00     0.109 C 
ATOM     16  O   LIG d   1     -11.318  76.381 122.163  0.00  0.00    -0.276 OA
ATOM     17  H   LIG d   1     -11.822  76.536 119.047  0.00  0.00     0.149 HD
ENDBRANCH   6  13
BRANCH   5  18
ATOM     18  N   LIG d   1     -11.837  79.578 121.076  0.00  0.00     0.381 N 
ATOM     19  H   LIG d   1     -12.802  79.377 120.909  0.00  0.00    -0.090 HD
ATOM     20  H   LIG d   1     -11.750  80.557 121.286  0.00  0.00    -0.090 HD
ATOM     21  H   LIG d   1     -11.504  79.036 121.842  0.00  0.00    -0.090 HD
ENDBRANCH   5  18
BRANCH   3  22
ATOM     22  C   LIG d   1      -8.442  81.179 118.101  0.00  0.00     0.382 C 
ATOM     23  O   LIG d   1      -7.447  81.005 117.356  0.00  0.00    -0.241 OA
ATOM     24  O   LIG d   1      -8.849  82.335 118.320  0.00  0.00    -0.241 OA
ENDBRANCH   3  22
TORSDOF 7
ENDMDL
MODEL 5
REMARK VINA RESULT:      -4.8      1.873      4.873
REMARK  7 active torsions:
REMARK  status: ('A' for Active; 'I' for Inactive)
REMARK    1  A    between atoms: C_2  and  C_3 
REMARK    2  A    between atoms: C_3  and  O_6 
REMARK    3  A    between atoms: C_3  and  C_4 
REMARK    4  A    between atoms: C_7  and  O_6 
REMARK    5  A    between atoms: C_9  and  C_10 
REMARK    6  A    between atoms: N_15  and  C_14 
REMARK    7  A    between atoms: N_20  and  C_19 
REMARK       I    between atoms: C_22  and  N_20 
ROOT
ATOM      1  C   LIG d   1      -7.687  76.139 116.895  0.00  0.00     0.161 C 
ATOM      2  C   LIG d   1      -7.925  74.758 116.808  0.00  0.00     0.016 C 
ATOM      3  C   LIG d   1      -6.923  73.781 117.010  0.00  0.00     0.038 C 
ATOM      4  C   LIG d   1      -5.639  74.119 117.465  0.00  0.00     0.028 C 
ATOM      5  C   LIG d   1      -5.212  75.531 117.078  0.00  0.00    -0.047 C 
ATOM      6  C   LIG d   1      -6.319  76.523 117.499  0.00  0.00     0.091 C 
ENDROOT
BRANCH   1   7
ATOM      7  O   LIG d   1      -8.754  76.774 117.628  0.00  0.00    -0.368 OA
BRANCH   7   8
ATOM      8  C   LIG d   1      -8.622  76.777 119.071  0.00  0.00     0.119 C 
BRANCH   8   9
ATOM      9  C   LIG d   1      -9.893  76.127 119.652  0.00  0.00     0.028 C 
ATOM     10  C   LIG d   1     -11.134  76.383 118.782  0.00  0.00     0.006 C 
ENDBRANCH   8   9
BRANCH   8  11
ATOM     11  C   LIG d   1      -8.607  78.205 119.626  0.00  0.00     0.028 C 
ATOM     12  C   LIG d   1      -8.995  79.257 118.575  0.00  0.00     0.006 C 
ENDBRANCH   8  11
ENDBRANCH   7   8
ENDBRANCH   1   7
BRANCH   6  13
ATOM     13  N   LIG d   1      -6.019  77.918 117.082  0.00  0.00    -0.311 N 
ATOM     14  C   LIG d   1      -5.429  78.810 117.876  0.00  0.00     0.210 C 
ATOM     15  C   LIG d   1      -5.231  80.196 117.256  0.00  0.00     0.109 C 
ATOM     16  O   LIG d   1      -5.023  78.575 119.024  0.00  0.00    -0.276 OA
ATOM     17  H   LIG d   1      -6.287  78.184 116.155  0.00  0.00     0.149 HD
ENDBRANCH   6  13
BRANCH   5  18
ATOM     18  N   LIG d   1      -3.916  75.799 117.731  0.00  0.00     0.381 N 
ATOM     19  H   LIG d   1      -3.778  75.156 118.485  0.00  0.00    -0.090 HD
ATOM     20  H   LIG d   1      -3.929  76.730 118.109  0.00  0.00    -0.090 HD
ATOM     21  H   LIG d   1      -3.177  75.711 117.070  0.00  0.00    -0.090 HD
ENDBRANCH   5  18
BRANCH   3  22
ATOM     22  C   LIG d   1      -7.189  72.452 116.718  0.00  0.00     0.382 C 
ATOM     23  O   LIG d   1      -8.024  71.815 117.405  0.00  0.00    -0.241 OA
ATOM     24  O   LIG d   1      -6.574  71.870 115.805  0.00  0.00    -0.241 OA
ENDBRANCH   3  22
TORSDOF 7
ENDMDL
MODEL 6
REMARK VINA RESULT:      -4.7     14.638     16.751
REMARK  7 active torsions:
REMARK  status: ('A' for Active; 'I' for Inactive)
REMARK    1  A    between atoms: C_2  and  C_3 
REMARK    2  A    between atoms: C_3  and  O_6 
REMARK    3  A    between atoms: C_3  and  C_4 
REMARK    4  A    between atoms: C_7  and  O_6 
REMARK    5  A    between atoms: C_9  and  C_10 
REMARK    6  A    between atoms: N_15  and  C_14 
REMARK    7  A    between atoms: N_20  and  C_19 
REMARK       I    between atoms: C_22  and  N_20 
ROOT
ATOM      1  C   LIG d   1      -4.947  92.185 119.595  0.00  0.00     0.161 C 
ATOM      2  C   LIG d   1      -6.005  91.901 118.715  0.00  0.00     0.016 C 
ATOM      3  C   LIG d   1      -5.844  91.170 117.515  0.00  0.00     0.038 C 
ATOM      4  C   LIG d   1      -4.635  90.540 117.187  0.00  0.00     0.028 C 
ATOM      5  C   LIG d   1      -3.412  91.221 117.793  0.00  0.00    -0.047 C 
ATOM      6  C   LIG d   1      -3.643  91.410 119.310  0.00  0.00     0.091 C 
ENDROOT
BRANCH   1   7
ATOM      7  O   LIG d   1      -5.372  91.967 120.955  0.00  0.00    -0.368 OA
BRANCH   7   8
ATOM      8  C   LIG d   1      -5.571  93.157 121.758  0.00  0.00     0.119 C 
BRANCH   8   9
ATOM      9  C   LIG d   1      -7.090  93.344 121.939  0.00  0.00     0.028 C 
ATOM     10  C   LIG d   1      -7.658  94.446 121.029  0.00  0.00     0.006 C 
ENDBRANCH   8   9
BRANCH   8  11
ATOM     11  C   LIG d   1      -5.092  94.412 121.023  0.00  0.00     0.028 C 
ATOM     12  C   LIG d   1      -3.885  95.076 121.703  0.00  0.00     0.006 C 
ENDBRANCH   8  11
ENDBRANCH   7   8
ENDBRANCH   1   7
BRANCH   6  13
ATOM     13  N   LIG d   1      -2.531  92.146 119.966  0.00  0.00    -0.311 N 
ATOM     14  C   LIG d   1      -1.514  91.542 120.578  0.00  0.00     0.210 C 
ATOM     15  C   LIG d   1      -0.484  92.488 121.206  0.00  0.00     0.109 C 
ATOM     16  O   LIG d   1      -1.349  90.314 120.634  0.00  0.00    -0.276 OA
ATOM     17  H   LIG d   1      -2.568  93.146 119.941  0.00  0.00     0.149 HD
ENDBRANCH   6  13
BRANCH   5  18
ATOM     18  N   LIG d   1      -2.237  90.384 117.487  0.00  0.00     0.381 N 
ATOM     19  H   LIG d   1      -1.679  90.269 118.310  0.00  0.00    -0.090 HD
ATOM     20  H   LIG d   1      -1.681  90.847 116.790  0.00  0.00    -0.090 HD
ATOM     21  H   LIG d   1      -2.532  89.493 117.150  0.00  0.00    -0.090 HD
ENDBRANCH   5  18
BRANCH   3  22
ATOM     22  C   LIG d   1      -6.891  91.099 116.609  0.00  0.00     0.382 C 
ATOM     23  O   LIG d   1      -7.186  92.099 115.911  0.00  0.00    -0.241 OA
ATOM     24  O   LIG d   1      -7.572  90.060 116.511  0.00  0.00    -0.241 OA
ENDBRANCH   3  22
TORSDOF 7
ENDMDL
MODEL 7
REMARK VINA RESULT:      -4.6      3.605      6.306
REMARK  7 active torsions:
REMARK  status: ('A' for Active; 'I' for Inactive)
REMARK    1  A    between atoms: C_2  and  C_3 
REMARK    2  A    between atoms: C_3  and  O_6 
REMARK    3  A    between atoms: C_3  and  C_4 
REMARK    4  A    between atoms: C_7  and  O_6 
REMARK    5  A    between atoms: C_9  and  C_10 
REMARK    6  A    between atoms: N_15  and  C_14 
REMARK    7  A    between atoms: N_20  and  C_19 
REMARK       I    between atoms: C_22  and  N_20 
ROOT
ATOM      1  C   LIG d   1      -8.027  80.286 118.538  0.00  0.00     0.161 C 
ATOM      2  C   LIG d   1      -7.694  78.975 118.157  0.00  0.00     0.016 C 
ATOM      3  C   LIG d   1      -8.561  77.871 118.326  0.00  0.00     0.038 C 
ATOM      4  C   LIG d   1      -9.889  78.030 118.753  0.00  0.00     0.028 C 
ATOM      5  C   LIG d   1     -10.102  79.263 119.624  0.00  0.00    -0.047 C 
ATOM      6  C   LIG d   1      -9.512  80.496 118.902  0.00  0.00     0.091 C 
ENDROOT
BRANCH   1   7
ATOM      7  O   LIG d   1      -7.629  81.211 117.507  0.00  0.00    -0.368 OA
BRANCH   7   8
ATOM      8  C   LIG d   1      -6.626  82.188 117.881  0.00  0.00     0.119 C 
BRANCH   8   9
ATOM      9  C   LIG d   1      -5.408  81.976 116.961  0.00  0.00     0.028 C 
ATOM     10  C   LIG d   1      -4.147  81.569 117.742  0.00  0.00     0.006 C 
ENDBRANCH   8   9
BRANCH   8  11
ATOM     11  C   LIG d   1      -6.110  81.942 119.301  0.00  0.00     0.028 C 
ATOM     12  C   LIG d   1      -6.361  83.132 120.241  0.00  0.00     0.006 C 
ENDBRANCH   8  11
ENDBRANCH   7   8
ENDBRANCH   1   7
BRANCH   6  13
ATOM     13  N   LIG d   1      -9.603  81.731 119.724  0.00  0.00    -0.311 N 
ATOM     14  C   LIG d   1     -10.023  82.901 119.244  0.00  0.00     0.210 C 
ATOM     15  C   LIG d   1     -10.021  84.052 120.255  0.00  0.00     0.109 C 
ATOM     16  O   LIG d   1     -10.426  83.087 118.087  0.00  0.00    -0.276 OA
ATOM     17  H   LIG d   1      -9.325  81.662 120.683  0.00  0.00     0.149 HD
ENDBRANCH   6  13
BRANCH   5  18
ATOM     18  N   LIG d   1     -11.549  79.381 119.882  0.00  0.00     0.381 N 
ATOM     19  H   LIG d   1     -11.810  80.346 119.911  0.00  0.00    -0.090 HD
ATOM     20  H   LIG d   1     -11.755  78.972 120.777  0.00  0.00    -0.090 HD
ATOM     21  H   LIG d   1     -12.062  78.912 119.169  0.00  0.00    -0.090 HD
ENDBRANCH   5  18
BRANCH   3  22
ATOM     22  C   LIG d   1      -8.089  76.587 118.105  0.00  0.00     0.382 C 
ATOM     23  O   LIG d   1      -7.133  76.397 117.315  0.00  0.00    -0.241 OA
ATOM     24  O   LIG d   1      -8.636  75.610 118.652  0.00  0.00    -0.241 OA
ENDBRANCH   3  22
TORSDOF 7
ENDMDL
MODEL 8
REMARK VINA RESULT:      -4.6      2.941      5.642
REMARK  7 active torsions:
REMARK  status: ('A' for Active; 'I' for Inactive)
REMARK    1  A    between atoms: C_2  and  C_3 
REMARK    2  A    between atoms: C_3  and  O_6 
REMARK    3  A    between atoms: C_3  and  C_4 
REMARK    4  A    between atoms: C_7  and  O_6 
REMARK    5  A    between atoms: C_9  and  C_10 
REMARK    6  A    between atoms: N_15  and  C_14 
REMARK    7  A    between atoms: N_20  and  C_19 
REMARK       I    between atoms: C_22  and  N_20 
ROOT
ATOM      1  C   LIG d   1      -9.023  79.157 118.653  0.00  0.00     0.161 C 
ATOM      2  C   LIG d   1     -10.196  78.509 119.075  0.00  0.00     0.016 C 
ATOM      3  C   LIG d   1     -10.321  77.103 119.160  0.00  0.00     0.038 C 
ATOM      4  C   LIG d   1      -9.224  76.249 118.971  0.00  0.00     0.028 C 
ATOM      5  C   LIG d   1      -8.154  76.830 118.053  0.00  0.00    -0.047 C 
ATOM      6  C   LIG d   1      -7.782  78.246 118.549  0.00  0.00     0.091 C 
ENDROOT
BRANCH   1   7
ATOM      7  O   LIG d   1      -8.749  80.281 119.513  0.00  0.00    -0.368 OA
BRANCH   7   8
ATOM      8  C   LIG d   1      -9.388  81.530 119.152  0.00  0.00     0.119 C 
BRANCH   8   9
ATOM      9  C   LIG d   1      -8.797  81.979 117.801  0.00  0.00     0.028 C 
ATOM     10  C   LIG d   1      -9.878  82.182 116.726  0.00  0.00     0.006 C 
ENDBRANCH   8   9
BRANCH   8  11
ATOM     11  C   LIG d   1      -9.031  82.645 120.140  0.00  0.00     0.028 C 
ATOM     12  C   LIG d   1      -9.994  83.840 120.064  0.00  0.00     0.006 C 
ENDBRANCH   8  11
ENDBRANCH   7   8
ENDBRANCH   1   7
BRANCH   6  13
ATOM     13  N   LIG d   1      -6.802  78.920 117.658  0.00  0.00    -0.311 N 
ATOM     14  C   LIG d   1      -5.675  79.478 118.097  0.00  0.00     0.210 C 
ATOM     15  C   LIG d   1      -4.816  80.137 117.013  0.00  0.00     0.109 C 
ATOM     16  O   LIG d   1      -5.289  79.460 119.275  0.00  0.00    -0.276 OA
ATOM     17  H   LIG d   1      -7.021  78.952 116.682  0.00  0.00     0.149 HD
ENDBRANCH   6  13
BRANCH   5  18
ATOM     18  N   LIG d   1      -7.011  75.898 118.054  0.00  0.00     0.381 N 
ATOM     19  H   LIG d   1      -7.122  75.226 117.321  0.00  0.00    -0.090 HD
ATOM     20  H   LIG d   1      -6.993  75.408 118.931  0.00  0.00    -0.090 HD
ATOM     21  H   LIG d   1      -6.161  76.401 117.928  0.00  0.00    -0.090 HD
ENDBRANCH   5  18
BRANCH   3  22
ATOM     22  C   LIG d   1     -11.564  76.537 119.397  0.00  0.00     0.382 C 
ATOM     23  O   LIG d   1     -11.970  76.389 120.575  0.00  0.00    -0.241 OA
ATOM     24  O   LIG d   1     -12.265  76.132 118.451  0.00  0.00    -0.241 OA
ENDBRANCH   3  22
TORSDOF 7
ENDMDL
MODEL 9
REMARK VINA RESULT:      -4.5     14.587     17.500
REMARK  7 active torsions:
REMARK  status: ('A' for Active; 'I' for Inactive)
REMARK    1  A    between atoms: C_2  and  C_3 
REMARK    2  A    between atoms: C_3  and  O_6 
REMARK    3  A    between atoms: C_3  and  C_4 
REMARK    4  A    between atoms: C_7  and  O_6 
REMARK    5  A    between atoms: C_9  and  C_10 
REMARK    6  A    between atoms: N_15  and  C_14 
REMARK    7  A    between atoms: N_20  and  C_19 
REMARK       I    between atoms: C_22  and  N_20 
ROOT
ATOM      1  C   LIG d   1      -4.449  92.057 120.247  0.00  0.00     0.161 C 
ATOM      2  C   LIG d   1      -3.583  91.322 119.420  0.00  0.00     0.016 C 
ATOM      3  C   LIG d   1      -3.944  90.853 118.136  0.00  0.00     0.038 C 
ATOM      4  C   LIG d   1      -5.154  91.219 117.527  0.00  0.00     0.028 C 
ATOM      5  C   LIG d   1      -6.263  91.538 118.524  0.00  0.00    -0.047 C 
ATOM      6  C   LIG d   1      -5.732  92.560 119.555  0.00  0.00     0.091 C 
ENDROOT
BRANCH   1   7
ATOM      7  O   LIG d   1      -3.737  93.158 120.845  0.00  0.00    -0.368 OA
BRANCH   7   8
ATOM      8  C   LIG d   1      -3.495  94.301 119.988  0.00  0.00     0.119 C 
BRANCH   8   9
ATOM      9  C   LIG d   1      -1.969  94.486 119.883  0.00  0.00     0.028 C 
ATOM     10  C   LIG d   1      -1.463  94.374 118.435  0.00  0.00     0.006 C 
ENDBRANCH   8   9
BRANCH   8  11
ATOM     11  C   LIG d   1      -4.018  95.593 120.622  0.00  0.00     0.028 C 
ATOM     12  C   LIG d   1      -4.596  96.573 119.588  0.00  0.00     0.006 C 
ENDBRANCH   8  11
ENDBRANCH   7   8
ENDBRANCH   1   7
BRANCH   6  13
ATOM     13  N   LIG d   1      -6.727  92.863 120.617  0.00  0.00    -0.311 N 
ATOM     14  C   LIG d   1      -7.534  93.922 120.584  0.00  0.00     0.210 C 
ATOM     15  C   LIG d   1      -8.471  94.058 121.789  0.00  0.00     0.109 C 
ATOM     16  O   LIG d   1      -7.586  94.744 119.657  0.00  0.00    -0.276 OA
ATOM     17  H   LIG d   1      -6.774  92.230 121.391  0.00  0.00     0.149 HD
ENDBRANCH   6  13
BRANCH   5  18
ATOM     18  N   LIG d   1      -7.421  92.036 117.759  0.00  0.00     0.381 N 
ATOM     19  H   LIG d   1      -8.242  91.526 118.017  0.00  0.00    -0.090 HD
ATOM     20  H   LIG d   1      -7.252  91.887 116.779  0.00  0.00    -0.090 HD
ATOM     21  H   LIG d   1      -7.555  93.007 117.936  0.00  0.00    -0.090 HD
ENDBRANCH   5  18
BRANCH   3  22
ATOM     22  C   LIG d   1      -3.107  89.975 117.464  0.00  0.00     0.382 C 
ATOM     23  O   LIG d   1      -1.890  89.920 117.760  0.00  0.00    -0.241 OA
ATOM     24  O   LIG d   1      -3.546  89.271 116.536  0.00  0.00    -0.241 OA
ENDBRANCH   3  22
TORSDOF 7
ENDMDL
