MODEL 1
REMARK VINA RESULT:      -5.0      0.000      0.000
REMARK  7 active torsions:
REMARK  status: ('A' for Active; 'I' for Inactive)
REMARK    1  A    between atoms: C_2  and  C_3 
REMARK    2  A    between atoms: C_3  and  O_6 
REMARK    3  A    between atoms: C_3  and  C_4 
REMARK    4  A    between atoms: C_7  and  O_6 
REMARK    5  A    between atoms: C_9  and  C_10 
REMARK    6  A    between atoms: N_15  and  C_14 
REMARK    7  A    between atoms: N_20  and  C_19 
REMARK       I    between atoms: C_22  and  N_20 
ROOT
ATOM      1  C   LIG d   1      -3.393  91.096 117.806  0.00  0.00     0.161 C 
ATOM      2  C   LIG d   1      -4.524  90.736 117.055  0.00  0.00     0.016 C 
ATOM      3  C   LIG d   1      -5.532  91.654 116.678  0.00  0.00     0.038 C 
ATOM      4  C   LIG d   1      -5.399  93.033 116.899  0.00  0.00     0.028 C 
ATOM      5  C   LIG d   1      -4.518  93.372 118.096  0.00  0.00    -0.047 C 
ATOM      6  C   LIG d   1      -3.176  92.616 117.962  0.00  0.00     0.091 C 
ENDROOT
BRANCH   1   7
ATOM      7  O   LIG d   1      -2.218  90.477 117.247  0.00  0.00    -0.368 OA
BRANCH   7   8
ATOM      8  C   LIG d   1      -1.905  89.148 117.732  0.00  0.00     0.119 C 
BRANCH   8   9
ATOM      9  C   LIG d   1      -2.118  89.150 119.258  0.00  0.00     0.028 C 
ATOM     10  C   LIG d   1      -2.995  87.978 119.730  0.00  0.00     0.006 C 
ENDBRANCH   8   9
BRANCH   8  11
ATOM     11  C   LIG d   1      -0.424  88.815 117.529  0.00  0.00     0.028 C 
ATOM     12  C   LIG d   1       0.368  89.975 116.905  0.00  0.00     0.006 C 
ENDBRANCH   8  11
ENDBRANCH   7   8
ENDBRANCH   1   7
BRANCH   6  13
ATOM     13  N   LIG d   1      -2.287  92.826 119.134  0.00  0.00    -0.311 N 
ATOM     14  C   LIG d   1      -1.315  93.736 119.163  0.00  0.00     0.210 C 
ATOM     15  C   LIG d   1      -0.503  93.773 120.461  0.00  0.00     0.109 C 
ATOM     16  O   LIG d   1      -1.069  94.537 118.249  0.00  0.00    -0.276 OA
ATOM     17  H   LIG d   1      -2.437  92.239 119.931  0.00  0.00     0.149 HD
ENDBRANCH   6  13
BRANCH   5  18
ATOM     18  N   LIG d   1      -4.354  94.838 118.129  0.00  0.00     0.381 N 
ATOM     19  H   LIG d   1      -3.591  95.080 118.728  0.00  0.00    -0.090 HD
ATOM     20  H   LIG d   1      -5.192  95.250 118.501  0.00  0.00    -0.090 HD
ATOM     21  H   LIG d   1      -4.186  95.182 117.209  0.00  0.00    -0.090 HD
ENDBRANCH   5  18
BRANCH   3  22
ATOM     22  C   LIG d   1      -6.706  91.188 116.107  0.00  0.00     0.382 C 
ATOM     23  O   LIG d   1      -7.665  91.975 115.915  0.00  0.00    -0.241 OA
ATOM     24  O   LIG d   1      -6.835  89.983 115.821  0.00  0.00    -0.241 OA
ENDBRANCH   3  22
TORSDOF 7
ENDMDL
MODEL 2
REMARK VINA RESULT:      -4.8      2.095      4.468
REMARK  7 active torsions:
REMARK  status: ('A' for Active; 'I' for Inactive)
REMARK    1  A    between atoms: C_2  and  C_3 
REMARK    2  A    between atoms: C_3  and  O_6 
REMARK    3  A    between atoms: C_3  and  C_4 
REMARK    4  A    between atoms: C_7  and  O_6 
REMARK    5  A    between atoms: C_9  and  C_10 
REMARK    6  A    between atoms: N_15  and  C_14 
REMARK    7  A    between atoms: N_20  and  C_19 
REMARK       I    between atoms: C_22  and  N_20 
ROOT
ATOM      1  C   LIG d   1      -3.847  93.277 117.729  0.00  0.00     0.161 C 
ATOM      2  C   LIG d   1      -5.230  93.189 117.498  0.00  0.00     0.016 C 
ATOM      3  C   LIG d   1      -5.892  91.977 117.193  0.00  0.00     0.038 C 
ATOM      4  C   LIG d   1      -5.234  90.739 117.248  0.00  0.00     0.028 C 
ATOM      5  C   LIG d   1      -3.736  90.836 116.981  0.00  0.00    -0.047 C 
ATOM      6  C   LIG d   1      -3.132  91.921 117.902  0.00  0.00     0.091 C 
ENDROOT
BRANCH   1   7
ATOM      7  O   LIG d   1      -3.595  94.126 118.866  0.00  0.00    -0.368 OA
BRANCH   7   8
ATOM      8  C   LIG d   1      -3.057  95.439 118.575  0.00  0.00     0.119 C 
BRANCH   8   9
ATOM      9  C   LIG d   1      -1.591  95.454 119.048  0.00  0.00     0.028 C 
ATOM     10  C   LIG d   1      -1.376  94.619 120.322  0.00  0.00     0.006 C 
ENDBRANCH   8   9
BRANCH   8  11
ATOM     11  C   LIG d   1      -3.759  96.524 119.398  0.00  0.00     0.028 C 
ATOM     12  C   LIG d   1      -5.291  96.424 119.331  0.00  0.00     0.006 C 
ENDBRANCH   8  11
ENDBRANCH   7   8
ENDBRANCH   1   7
BRANCH   6  13
ATOM     13  N   LIG d   1      -1.684  92.140 117.647  0.00  0.00    -0.311 N 
ATOM     14  C   LIG d   1      -0.718  91.535 118.336  0.00  0.00     0.210 C 
ATOM     15  C   LIG d   1       0.707  91.918 117.924  0.00  0.00     0.109 C 
ATOM     16  O   LIG d   1      -0.906  90.694 119.227  0.00  0.00    -0.276 OA
ATOM     17  H   LIG d   1      -1.442  92.784 116.919  0.00  0.00     0.149 HD
ENDBRANCH   6  13
BRANCH   5  18
ATOM     18  N   LIG d   1      -3.155  89.499 117.205  0.00  0.00     0.381 N 
ATOM     19  H   LIG d   1      -3.760  88.961 117.794  0.00  0.00    -0.090 HD
ATOM     20  H   LIG d   1      -2.271  89.602 117.672  0.00  0.00    -0.090 HD
ATOM     21  H   LIG d   1      -3.027  89.033 116.334  0.00  0.00    -0.090 HD
ENDBRANCH   5  18
BRANCH   3  22
ATOM     22  C   LIG d   1      -7.218  92.001 116.790  0.00  0.00     0.382 C 
ATOM     23  O   LIG d   1      -7.759  93.089 116.477  0.00  0.00    -0.241 OA
ATOM     24  O   LIG d   1      -7.894  90.954 116.778  0.00  0.00    -0.241 OA
ENDBRANCH   3  22
TORSDOF 7
ENDMDL
MODEL 3
REMARK VINA RESULT:      -4.6      2.506      4.068
REMARK  7 active torsions:
REMARK  status: ('A' for Active; 'I' for Inactive)
REMARK    1  A    between atoms: C_2  and  C_3 
REMARK    2  A    between atoms: C_3  and  O_6 
REMARK    3  A    between atoms: C_3  and  C_4 
REMARK    4  A    between atoms: C_7  and  O_6 
REMARK    5  A    between atoms: C_9  and  C_10 
REMARK    6  A    between atoms: N_15  and  C_14 
REMARK    7  A    between atoms: N_20  and  C_19 
REMARK       I    between atoms: C_22  and  N_20 
ROOT
ATOM      1  C   LIG d   1      -6.050  92.821 118.903  0.00  0.00     0.161 C 
ATOM      2  C   LIG d   1      -7.329  93.387 118.771  0.00  0.00     0.016 C 
ATOM      3  C   LIG d   1      -7.554  94.773 118.609  0.00  0.00     0.038 C 
ATOM      4  C   LIG d   1      -6.499  95.678 118.415  0.00  0.00     0.028 C 
ATOM      5  C   LIG d   1      -5.187  95.222 119.045  0.00  0.00    -0.047 C 
ATOM      6  C   LIG d   1      -4.883  93.779 118.582  0.00  0.00     0.091 C 
ENDROOT
BRANCH   1   7
ATOM      7  O   LIG d   1      -5.957  91.631 118.096  0.00  0.00    -0.368 OA
BRANCH   7   8
ATOM      8  C   LIG d   1      -5.453  91.811 116.749  0.00  0.00     0.119 C 
BRANCH   8   9
ATOM      9  C   LIG d   1      -6.669  91.881 115.805  0.00  0.00     0.028 C 
ATOM     10  C   LIG d   1      -7.487  90.578 115.805  0.00  0.00     0.006 C 
ENDBRANCH   8   9
BRANCH   8  11
ATOM     11  C   LIG d   1      -4.650  90.591 116.287  0.00  0.00     0.028 C 
ATOM     12  C   LIG d   1      -3.598  90.146 117.315  0.00  0.00     0.006 C 
ENDBRANCH   8  11
ENDBRANCH   7   8
ENDBRANCH   1   7
BRANCH   6  13
ATOM     13  N   LIG d   1      -3.660  93.225 119.219  0.00  0.00    -0.311 N 
ATOM     14  C   LIG d   1      -2.441  93.347 118.694  0.00  0.00     0.210 C 
ATOM     15  C   LIG d   1      -1.320  92.686 119.502  0.00  0.00     0.109 C 
ATOM     16  O   LIG d   1      -2.178  93.967 117.653  0.00  0.00    -0.276 OA
ATOM     17  H   LIG d   1      -3.777  92.734 120.083  0.00  0.00     0.149 HD
ENDBRANCH   6  13
BRANCH   5  18
ATOM     18  N   LIG d   1      -4.144  96.188 118.650  0.00  0.00     0.381 N 
ATOM     19  H   LIG d   1      -4.516  97.116 118.672  0.00  0.00    -0.090 HD
ATOM     20  H   LIG d   1      -3.855  95.986 117.709  0.00  0.00    -0.090 HD
ATOM     21  H   LIG d   1      -3.365  96.119 119.267  0.00  0.00    -0.090 HD
ENDBRANCH   5  18
BRANCH   3  22
ATOM     22  C   LIG d   1      -8.845  95.273 118.680  0.00  0.00     0.382 C 
ATOM     23  O   LIG d   1      -9.063  96.485 118.439  0.00  0.00    -0.241 OA
ATOM     24  O   LIG d   1      -9.789  94.537 119.025  0.00  0.00    -0.241 OA
ENDBRANCH   3  22
TORSDOF 7
ENDMDL
MODEL 4
REMARK VINA RESULT:      -4.6      0.737      1.812
REMARK  7 active torsions:
REMARK  status: ('A' for Active; 'I' for Inactive)
REMARK    1  A    between atoms: C_2  and  C_3 
REMARK    2  A    between atoms: C_3  and  O_6 
REMARK    3  A    between atoms: C_3  and  C_4 
REMARK    4  A    between atoms: C_7  and  O_6 
REMARK    5  A    between atoms: C_9  and  C_10 
REMARK    6  A    between atoms: N_15  and  C_14 
REMARK    7  A    between atoms: N_20  and  C_19 
REMARK       I    between atoms: C_22  and  N_20 
ROOT
ATOM      1  C   LIG d   1      -3.418  91.446 117.896  0.00  0.00     0.161 C 
ATOM      2  C   LIG d   1      -4.538  90.935 117.219  0.00  0.00     0.016 C 
ATOM      3  C   LIG d   1      -5.687  91.704 116.926  0.00  0.00     0.038 C 
ATOM      4  C   LIG d   1      -5.734  93.087 117.159  0.00  0.00     0.028 C 
ATOM      5  C   LIG d   1      -4.826  93.540 118.298  0.00  0.00    -0.047 C 
ATOM      6  C   LIG d   1      -3.405  92.980 118.059  0.00  0.00     0.091 C 
ENDROOT
BRANCH   1   7
ATOM      7  O   LIG d   1      -2.210  91.001 117.247  0.00  0.00    -0.368 OA
BRANCH   7   8
ATOM      8  C   LIG d   1      -1.244  90.326 118.091  0.00  0.00     0.119 C 
BRANCH   8   9
ATOM      9  C   LIG d   1       0.050  90.160 117.272  0.00  0.00     0.028 C 
ATOM     10  C   LIG d   1       1.057  91.294 117.529  0.00  0.00     0.006 C 
ENDBRANCH   8   9
BRANCH   8  11
ATOM     11  C   LIG d   1      -1.697  88.903 118.428  0.00  0.00     0.028 C 
ATOM     12  C   LIG d   1      -0.522  87.925 118.583  0.00  0.00     0.006 C 
ENDBRANCH   8  11
ENDBRANCH   7   8
ENDBRANCH   1   7
BRANCH   6  13
ATOM     13  N   LIG d   1      -2.473  93.306 119.171  0.00  0.00    -0.311 N 
ATOM     14  C   LIG d   1      -1.291  93.892 118.988  0.00  0.00     0.210 C 
ATOM     15  C   LIG d   1      -0.478  94.120 120.267  0.00  0.00     0.109 C 
ATOM     16  O   LIG d   1      -0.852  94.274 117.893  0.00  0.00    -0.276 OA
ATOM     17  H   LIG d   1      -2.763  93.059 120.096  0.00  0.00     0.149 HD
ENDBRANCH   6  13
BRANCH   5  18
ATOM     18  N   LIG d   1      -4.867  95.014 118.341  0.00  0.00     0.381 N 
ATOM     19  H   LIG d   1      -5.811  95.323 118.462  0.00  0.00    -0.090 HD
ATOM     20  H   LIG d   1      -4.526  95.374 117.467  0.00  0.00    -0.090 HD
ATOM     21  H   LIG d   1      -4.301  95.349 119.090  0.00  0.00    -0.090 HD
ENDBRANCH   5  18
BRANCH   3  22
ATOM     22  C   LIG d   1      -6.823  91.082 116.430  0.00  0.00     0.382 C 
ATOM     23  O   LIG d   1      -6.721  89.999 115.805  0.00  0.00    -0.241 OA
ATOM     24  O   LIG d   1      -7.942  91.612 116.561  0.00  0.00    -0.241 OA
ENDBRANCH   3  22
TORSDOF 7
ENDMDL
MODEL 5
REMARK VINA RESULT:      -4.6      2.200      4.538
REMARK  7 active torsions:
REMARK  status: ('A' for Active; 'I' for Inactive)
REMARK    1  A    between atoms: C_2  and  C_3 
REMARK    2  A    between atoms: C_3  and  O_6 
REMARK    3  A    between atoms: C_3  and  C_4 
REMARK    4  A    between atoms: C_7  and  O_6 
REMARK    5  A    between atoms: C_9  and  C_10 
REMARK    6  A    between atoms: N_15  and  C_14 
REMARK    7  A    between atoms: N_20  and  C_19 
REMARK       I    between atoms: C_22  and  N_20 
ROOT
ATOM      1  C   LIG d   1      -4.030  93.232 117.592  0.00  0.00     0.161 C 
ATOM      2  C   LIG d   1      -5.385  93.024 117.284  0.00  0.00     0.016 C 
ATOM      3  C   LIG d   1      -5.935  91.751 117.010  0.00  0.00     0.038 C 
ATOM      4  C   LIG d   1      -5.193  90.572 117.175  0.00  0.00     0.028 C 
ATOM      5  C   LIG d   1      -3.691  90.771 116.994  0.00  0.00    -0.047 C 
ATOM      6  C   LIG d   1      -3.230  91.946 117.886  0.00  0.00     0.091 C 
ENDROOT
BRANCH   1   7
ATOM      7  O   LIG d   1      -3.916  94.156 118.693  0.00  0.00    -0.368 OA
BRANCH   7   8
ATOM      8  C   LIG d   1      -5.122  94.382 119.463  0.00  0.00     0.119 C 
BRANCH   8   9
ATOM      9  C   LIG d   1      -5.266  95.903 119.661  0.00  0.00     0.028 C 
ATOM     10  C   LIG d   1      -6.441  96.490 118.862  0.00  0.00     0.006 C 
ENDBRANCH   8   9
BRANCH   8  11
ATOM     11  C   LIG d   1      -4.999  93.799 120.874  0.00  0.00     0.028 C 
ATOM     12  C   LIG d   1      -5.444  92.330 120.953  0.00  0.00     0.006 C 
ENDBRANCH   8  11
ENDBRANCH   7   8
ENDBRANCH   1   7
BRANCH   6  13
ATOM     13  N   LIG d   1      -1.789  92.262 117.707  0.00  0.00    -0.311 N 
ATOM     14  C   LIG d   1      -0.824  91.744 118.466  0.00  0.00     0.210 C 
ATOM     15  C   LIG d   1       0.592  92.218 118.124  0.00  0.00     0.109 C 
ATOM     16  O   LIG d   1      -1.004  90.913 119.368  0.00  0.00    -0.276 OA
ATOM     17  H   LIG d   1      -1.550  92.904 116.976  0.00  0.00     0.149 HD
ENDBRANCH   6  13
BRANCH   5  18
ATOM     18  N   LIG d   1      -3.030  89.496 117.329  0.00  0.00     0.381 N 
ATOM     19  H   LIG d   1      -3.655  88.734 117.157  0.00  0.00    -0.090 HD
ATOM     20  H   LIG d   1      -2.796  89.497 118.307  0.00  0.00    -0.090 HD
ATOM     21  H   LIG d   1      -2.203  89.386 116.784  0.00  0.00    -0.090 HD
ENDBRANCH   5  18
BRANCH   3  22
ATOM     22  C   LIG d   1      -7.230  91.651 116.526  0.00  0.00     0.382 C 
ATOM     23  O   LIG d   1      -7.885  90.596 116.701  0.00  0.00    -0.241 OA
ATOM     24  O   LIG d   1      -7.737  92.587 115.879  0.00  0.00    -0.241 OA
ENDBRANCH   3  22
TORSDOF 7
ENDMDL
MODEL 6
REMARK VINA RESULT:      -4.6     26.567     29.114
REMARK  7 active torsions:
REMARK  status: ('A' for Active; 'I' for Inactive)
REMARK    1  A    between atoms: C_2  and  C_3 
REMARK    2  A    between atoms: C_3  and  O_6 
REMARK    3  A    between atoms: C_3  and  C_4 
REMARK    4  A    between atoms: C_7  and  O_6 
REMARK    5  A    between atoms: C_9  and  C_10 
REMARK    6  A    between atoms: N_15  and  C_14 
REMARK    7  A    between atoms: N_20  and  C_19 
REMARK       I    between atoms: C_22  and  N_20 
ROOT
ATOM      1  C   LIG d   1     -15.080  65.608 117.645  0.00  0.00     0.161 C 
ATOM      2  C   LIG d   1     -16.236  65.409 116.872  0.00  0.00     0.016 C 
ATOM      3  C   LIG d   1     -17.254  64.489 117.215  0.00  0.00     0.038 C 
ATOM      4  C   LIG d   1     -17.256  63.811 118.443  0.00  0.00     0.028 C 
ATOM      5  C   LIG d   1     -15.861  63.602 119.022  0.00  0.00    -0.047 C 
ATOM      6  C   LIG d   1     -15.118  64.957 119.044  0.00  0.00     0.091 C 
ENDROOT
BRANCH   1   7
ATOM      7  O   LIG d   1     -14.803  67.018 117.756  0.00  0.00    -0.368 OA
BRANCH   7   8
ATOM      8  C   LIG d   1     -15.937  67.905 117.597  0.00  0.00     0.119 C 
BRANCH   8   9
ATOM      9  C   LIG d   1     -15.452  69.141 116.816  0.00  0.00     0.028 C 
ATOM     10  C   LIG d   1     -14.345  68.800 115.805  0.00  0.00     0.006 C 
ENDBRANCH   8   9
BRANCH   8  11
ATOM     11  C   LIG d   1     -16.418  68.442 118.949  0.00  0.00     0.028 C 
ATOM     12  C   LIG d   1     -17.678  67.727 119.460  0.00  0.00     0.006 C 
ENDBRANCH   8  11
ENDBRANCH   7   8
ENDBRANCH   1   7
BRANCH   6  13
ATOM     13  N   LIG d   1     -13.716  64.828 119.518  0.00  0.00    -0.311 N 
ATOM     14  C   LIG d   1     -13.362  64.934 120.798  0.00  0.00     0.210 C 
ATOM     15  C   LIG d   1     -11.861  64.788 121.068  0.00  0.00     0.109 C 
ATOM     16  O   LIG d   1     -14.152  65.103 121.738  0.00  0.00    -0.276 OA
ATOM     17  H   LIG d   1     -13.014  64.659 118.825  0.00  0.00     0.149 HD
ENDBRANCH   6  13
BRANCH   5  18
ATOM     18  N   LIG d   1     -16.019  63.008 120.363  0.00  0.00     0.381 N 
ATOM     19  H   LIG d   1     -16.850  62.451 120.390  0.00  0.00    -0.090 HD
ATOM     20  H   LIG d   1     -16.112  63.747 121.037  0.00  0.00    -0.090 HD
ATOM     21  H   LIG d   1     -15.226  62.446 120.583  0.00  0.00    -0.090 HD
ENDBRANCH   5  18
BRANCH   3  22
ATOM     22  C   LIG d   1     -18.264  64.212 116.307  0.00  0.00     0.382 C 
ATOM     23  O   LIG d   1     -19.032  65.127 115.924  0.00  0.00    -0.241 OA
ATOM     24  O   LIG d   1     -18.445  63.048 115.900  0.00  0.00    -0.241 OA
ENDBRANCH   3  22
TORSDOF 7
ENDMDL
MODEL 7
REMARK VINA RESULT:      -4.5      2.697      4.280
REMARK  7 active torsions:
REMARK  status: ('A' for Active; 'I' for Inactive)
REMARK    1  A    between atoms: C_2  and  C_3 
REMARK    2  A    between atoms: C_3  and  O_6 
REMARK    3  A    between atoms: C_3  and  C_4 
REMARK    4  A    between atoms: C_7  and  O_6 
REMARK    5  A    between atoms: C_9  and  C_10 
REMARK    6  A    between atoms: N_15  and  C_14 
REMARK    7  A    between atoms: N_20  and  C_19 
REMARK       I    between atoms: C_22  and  N_20 
ROOT
ATOM      1  C   LIG d   1      -4.343  93.429 118.444  0.00  0.00     0.161 C 
ATOM      2  C   LIG d   1      -5.520  94.195 118.404  0.00  0.00     0.016 C 
ATOM      3  C   LIG d   1      -6.651  93.844 117.631  0.00  0.00     0.038 C 
ATOM      4  C   LIG d   1      -6.737  92.615 116.960  0.00  0.00     0.028 C 
ATOM      5  C   LIG d   1      -5.380  92.045 116.563  0.00  0.00    -0.047 C 
ATOM      6  C   LIG d   1      -4.460  92.029 117.805  0.00  0.00     0.091 C 
ENDROOT
BRANCH   1   7
ATOM      7  O   LIG d   1      -3.875  93.322 119.803  0.00  0.00    -0.368 OA
BRANCH   7   8
ATOM      8  C   LIG d   1      -4.308  92.150 120.536  0.00  0.00     0.119 C 
BRANCH   8   9
ATOM      9  C   LIG d   1      -5.244  92.627 121.663  0.00  0.00     0.028 C 
ATOM     10  C   LIG d   1      -6.707  92.220 121.423  0.00  0.00     0.006 C 
ENDBRANCH   8   9
BRANCH   8  11
ATOM     11  C   LIG d   1      -3.133  91.471 121.245  0.00  0.00     0.028 C 
ATOM     12  C   LIG d   1      -3.273  89.941 121.299  0.00  0.00     0.006 C 
ENDBRANCH   8  11
ENDBRANCH   7   8
ENDBRANCH   1   7
BRANCH   6  13
ATOM     13  N   LIG d   1      -3.085  91.564 117.487  0.00  0.00    -0.311 N 
ATOM     14  C   LIG d   1      -2.705  90.290 117.568  0.00  0.00     0.210 C 
ATOM     15  C   LIG d   1      -1.237  90.029 117.214  0.00  0.00     0.109 C 
ATOM     16  O   LIG d   1      -3.452  89.347 117.868  0.00  0.00    -0.276 OA
ATOM     17  H   LIG d   1      -2.422  92.259 117.204  0.00  0.00     0.149 HD
ENDBRANCH   6  13
BRANCH   5  18
ATOM     18  N   LIG d   1      -5.609  90.702 115.997  0.00  0.00     0.381 N 
ATOM     19  H   LIG d   1      -6.028  90.783 115.092  0.00  0.00    -0.090 HD
ATOM     20  H   LIG d   1      -6.242  90.201 116.594  0.00  0.00    -0.090 HD
ATOM     21  H   LIG d   1      -4.746  90.209 115.928  0.00  0.00    -0.090 HD
ENDBRANCH   5  18
BRANCH   3  22
ATOM     22  C   LIG d   1      -7.695  94.745 117.493  0.00  0.00     0.382 C 
ATOM     23  O   LIG d   1      -8.855  94.329 117.253  0.00  0.00    -0.241 OA
ATOM     24  O   LIG d   1      -7.485  95.971 117.561  0.00  0.00    -0.241 OA
ENDBRANCH   3  22
TORSDOF 7
ENDMDL
MODEL 8
REMARK VINA RESULT:      -4.5     30.604     33.223
REMARK  7 active torsions:
REMARK  status: ('A' for Active; 'I' for Inactive)
REMARK    1  A    between atoms: C_2  and  C_3 
REMARK    2  A    between atoms: C_3  and  O_6 
REMARK    3  A    between atoms: C_3  and  C_4 
REMARK    4  A    between atoms: C_7  and  O_6 
REMARK    5  A    between atoms: C_9  and  C_10 
REMARK    6  A    between atoms: N_15  and  C_14 
REMARK    7  A    between atoms: N_20  and  C_19 
REMARK       I    between atoms: C_22  and  N_20 
ROOT
ATOM      1  C   LIG d   1      -3.694  58.649 121.528  0.00  0.00     0.161 C 
ATOM      2  C   LIG d   1      -4.864  59.407 121.359  0.00  0.00     0.016 C 
ATOM      3  C   LIG d   1      -4.962  60.498 120.465  0.00  0.00     0.038 C 
ATOM      4  C   LIG d   1      -3.935  60.812 119.563  0.00  0.00     0.028 C 
ATOM      5  C   LIG d   1      -2.552  60.393 120.050  0.00  0.00    -0.047 C 
ATOM      6  C   LIG d   1      -2.598  58.907 120.473  0.00  0.00     0.091 C 
ENDROOT
BRANCH   1   7
ATOM      7  O   LIG d   1      -4.023  57.247 121.577  0.00  0.00    -0.368 OA
BRANCH   7   8
ATOM      8  C   LIG d   1      -3.823  56.502 120.350  0.00  0.00     0.119 C 
BRANCH   8   9
ATOM      9  C   LIG d   1      -5.186  56.412 119.636  0.00  0.00     0.028 C 
ATOM     10  C   LIG d   1      -5.041  56.210 118.118  0.00  0.00     0.006 C 
ENDBRANCH   8   9
BRANCH   8  11
ATOM     11  C   LIG d   1      -3.419  55.053 120.637  0.00  0.00     0.028 C 
ATOM     12  C   LIG d   1      -2.139  54.634 119.896  0.00  0.00     0.006 C 
ENDBRANCH   8  11
ENDBRANCH   7   8
ENDBRANCH   1   7
BRANCH   6  13
ATOM     13  N   LIG d   1      -1.307  58.438 121.041  0.00  0.00    -0.311 N 
ATOM     14  C   LIG d   1      -0.354  57.858 120.314  0.00  0.00     0.210 C 
ATOM     15  C   LIG d   1       0.890  57.433 121.101  0.00  0.00     0.109 C 
ATOM     16  O   LIG d   1      -0.407  57.684 119.087  0.00  0.00    -0.276 OA
ATOM     17  H   LIG d   1      -1.168  58.569 122.024  0.00  0.00     0.149 HD
ENDBRANCH   6  13
BRANCH   5  18
ATOM     18  N   LIG d   1      -1.596  60.654 118.957  0.00  0.00     0.381 N 
ATOM     19  H   LIG d   1      -0.891  61.292 119.269  0.00  0.00    -0.090 HD
ATOM     20  H   LIG d   1      -2.088  61.077 118.190  0.00  0.00    -0.090 HD
ATOM     21  H   LIG d   1      -1.175  59.801 118.662  0.00  0.00    -0.090 HD
ENDBRANCH   5  18
BRANCH   3  22
ATOM     22  C   LIG d   1      -6.084  61.314 120.496  0.00  0.00     0.382 C 
ATOM     23  O   LIG d   1      -6.635  61.580 121.591  0.00  0.00    -0.241 OA
ATOM     24  O   LIG d   1      -6.577  61.750 119.439  0.00  0.00    -0.241 OA
ENDBRANCH   3  22
TORSDOF 7
ENDMDL
MODEL 9
REMARK VINA RESULT:      -4.5     26.463     29.127
REMARK  7 active torsions:
REMARK  status: ('A' for Active; 'I' for Inactive)
REMARK    1  A    between atoms: C_2  and  C_3 
REMARK    2  A    between atoms: C_3  and  O_6 
REMARK    3  A    between atoms: C_3  and  C_4 
REMARK    4  A    between atoms: C_7  and  O_6 
REMARK    5  A    between atoms: C_9  and  C_10 
REMARK    6  A    between atoms: N_15  and  C_14 
REMARK    7  A    between atoms: N_20  and  C_19 
REMARK       I    between atoms: C_22  and  N_20 
ROOT
ATOM      1  C   LIG d   1     -15.913  66.146 119.670  0.00  0.00     0.161 C 
ATOM      2  C   LIG d   1     -14.832  66.700 120.376  0.00  0.00     0.016 C 
ATOM      3  C   LIG d   1     -13.709  65.949 120.792  0.00  0.00     0.038 C 
ATOM      4  C   LIG d   1     -13.519  64.617 120.396  0.00  0.00     0.028 C 
ATOM      5  C   LIG d   1     -14.822  63.878 120.111  0.00  0.00    -0.047 C 
ATOM      6  C   LIG d   1     -15.672  64.720 119.132  0.00  0.00     0.091 C 
ENDROOT
BRANCH   1   7
ATOM      7  O   LIG d   1     -16.298  67.027 118.596  0.00  0.00    -0.368 OA
BRANCH   7   8
ATOM      8  C   LIG d   1     -15.495  66.955 117.393  0.00  0.00     0.119 C 
BRANCH   8   9
ATOM      9  C   LIG d   1     -14.670  68.254 117.308  0.00  0.00     0.028 C 
ATOM     10  C   LIG d   1     -14.474  68.732 115.860  0.00  0.00     0.006 C 
ENDBRANCH   8   9
BRANCH   8  11
ATOM     11  C   LIG d   1     -16.371  66.949 116.137  0.00  0.00     0.028 C 
ATOM     12  C   LIG d   1     -17.865  67.124 116.452  0.00  0.00     0.006 C 
ENDBRANCH   8  11
ENDBRANCH   7   8
ENDBRANCH   1   7
BRANCH   6  13
ATOM     13  N   LIG d   1     -17.001  64.109 118.866  0.00  0.00    -0.311 N 
ATOM     14  C   LIG d   1     -17.369  63.647 117.672  0.00  0.00     0.210 C 
ATOM     15  C   LIG d   1     -18.789  63.076 117.610  0.00  0.00     0.109 C 
ATOM     16  O   LIG d   1     -16.644  63.628 116.667  0.00  0.00    -0.276 OA
ATOM     17  H   LIG d   1     -17.641  64.057 119.634  0.00  0.00     0.149 HD
ENDBRANCH   6  13
BRANCH   5  18
ATOM     18  N   LIG d   1     -14.473  62.548 119.577  0.00  0.00     0.381 N 
ATOM     19  H   LIG d   1     -14.397  62.592 118.581  0.00  0.00    -0.090 HD
ATOM     20  H   LIG d   1     -15.207  61.902 119.809  0.00  0.00    -0.090 HD
ATOM     21  H   LIG d   1     -13.611  62.239 119.970  0.00  0.00    -0.090 HD
ENDBRANCH   5  18
BRANCH   3  22
ATOM     22  C   LIG d   1     -12.779  66.521 121.648  0.00  0.00     0.382 C 
ATOM     23  O   LIG d   1     -13.021  67.628 122.187  0.00  0.00    -0.241 OA
ATOM     24  O   LIG d   1     -11.684  65.965 121.853  0.00  0.00    -0.241 OA
ENDBRANCH   3  22
TORSDOF 7
ENDMDL
