MODEL 1
REMARK VINA RESULT:      -4.7      0.000      0.000
REMARK  7 active torsions:
REMARK  status: ('A' for Active; 'I' for Inactive)
REMARK    1  A    between atoms: C_2  and  C_3 
REMARK    2  A    between atoms: C_3  and  O_6 
REMARK    3  A    between atoms: C_3  and  C_4 
REMARK    4  A    between atoms: C_7  and  O_6 
REMARK    5  A    between atoms: C_9  and  C_10 
REMARK    6  A    between atoms: N_15  and  C_14 
REMARK    7  A    between atoms: N_20  and  C_19 
REMARK       I    between atoms: C_22  and  N_20 
ROOT
ATOM      1  C   LIG d   1      -6.087  92.749 117.964  0.00  0.00     0.161 C 
ATOM      2  C   LIG d   1      -6.373  91.464 117.474  0.00  0.00     0.016 C 
ATOM      3  C   LIG d   1      -5.378  90.553 117.049  0.00  0.00     0.038 C 
ATOM      4  C   LIG d   1      -4.011  90.813 117.228  0.00  0.00     0.028 C 
ATOM      5  C   LIG d   1      -3.675  92.300 117.251  0.00  0.00    -0.047 C 
ATOM      6  C   LIG d   1      -4.597  93.008 118.270  0.00  0.00     0.091 C 
ENDROOT
BRANCH   1   7
ATOM      7  O   LIG d   1      -6.892  93.019 119.128  0.00  0.00    -0.368 OA
BRANCH   7   8
ATOM      8  C   LIG d   1      -6.269  92.752 120.409  0.00  0.00     0.119 C 
BRANCH   8   9
ATOM      9  C   LIG d   1      -6.987  91.537 121.028  0.00  0.00     0.028 C 
ATOM     10  C   LIG d   1      -8.304  91.924 121.722  0.00  0.00     0.006 C 
ENDBRANCH   8   9
BRANCH   8  11
ATOM     11  C   LIG d   1      -6.501  93.903 121.392  0.00  0.00     0.028 C 
ATOM     12  C   LIG d   1      -6.985  95.188 120.701  0.00  0.00     0.006 C 
ENDBRANCH   8  11
ENDBRANCH   7   8
ENDBRANCH   1   7
BRANCH   6  13
ATOM     13  N   LIG d   1      -4.391  94.479 118.294  0.00  0.00    -0.311 N 
ATOM     14  C   LIG d   1      -3.613  95.097 119.181  0.00  0.00     0.210 C 
ATOM     15  C   LIG d   1      -3.556  96.621 119.041  0.00  0.00     0.109 C 
ATOM     16  O   LIG d   1      -2.939  94.524 120.050  0.00  0.00    -0.276 OA
ATOM     17  H   LIG d   1      -4.876  95.019 117.603  0.00  0.00     0.149 HD
ENDBRANCH   6  13
BRANCH   5  18
ATOM     18  N   LIG d   1      -2.243  92.428 117.581  0.00  0.00     0.381 N 
ATOM     19  H   LIG d   1      -1.963  91.673 118.175  0.00  0.00    -0.090 HD
ATOM     20  H   LIG d   1      -2.099  93.289 118.078  0.00  0.00    -0.090 HD
ATOM     21  H   LIG d   1      -1.698  92.423 116.747  0.00  0.00    -0.090 HD
ENDBRANCH   5  18
BRANCH   3  22
ATOM     22  C   LIG d   1      -5.747  89.384 116.402  0.00  0.00     0.382 C 
ATOM     23  O   LIG d   1      -6.946  89.013 116.414  0.00  0.00    -0.241 OA
ATOM     24  O   LIG d   1      -4.891  88.674 115.842  0.00  0.00    -0.241 OA
ENDBRANCH   3  22
TORSDOF 7
ENDMDL
MODEL 2
REMARK VINA RESULT:      -4.7     12.286     14.489
REMARK  7 active torsions:
REMARK  status: ('A' for Active; 'I' for Inactive)
REMARK    1  A    between atoms: C_2  and  C_3 
REMARK    2  A    between atoms: C_3  and  O_6 
REMARK    3  A    between atoms: C_3  and  C_4 
REMARK    4  A    between atoms: C_7  and  O_6 
REMARK    5  A    between atoms: C_9  and  C_10 
REMARK    6  A    between atoms: N_15  and  C_14 
REMARK    7  A    between atoms: N_20  and  C_19 
REMARK       I    between atoms: C_22  and  N_20 
ROOT
ATOM      1  C   LIG d   1      -8.798  78.603 118.650  0.00  0.00     0.161 C 
ATOM      2  C   LIG d   1      -9.036  79.643 117.736  0.00  0.00     0.016 C 
ATOM      3  C   LIG d   1      -9.713  80.837 118.076  0.00  0.00     0.038 C 
ATOM      4  C   LIG d   1     -10.067  81.138 119.400  0.00  0.00     0.028 C 
ATOM      5  C   LIG d   1     -10.297  79.900 120.261  0.00  0.00    -0.047 C 
ATOM      6  C   LIG d   1      -9.078  78.960 120.124  0.00  0.00     0.091 C 
ENDROOT
BRANCH   1   7
ATOM      7  O   LIG d   1      -7.448  78.120 118.499  0.00  0.00    -0.368 OA
BRANCH   7   8
ATOM      8  C   LIG d   1      -6.477  79.082 118.018  0.00  0.00     0.119 C 
BRANCH   8   9
ATOM      9  C   LIG d   1      -5.630  78.383 116.937  0.00  0.00     0.028 C 
ATOM     10  C   LIG d   1      -6.316  77.127 116.374  0.00  0.00     0.006 C 
ENDBRANCH   8   9
BRANCH   8  11
ATOM     11  C   LIG d   1      -5.488  79.473 119.119  0.00  0.00     0.028 C 
ATOM     12  C   LIG d   1      -5.876  80.777 119.833  0.00  0.00     0.006 C 
ENDBRANCH   8  11
ENDBRANCH   7   8
ENDBRANCH   1   7
BRANCH   6  13
ATOM     13  N   LIG d   1      -9.259  77.686 120.869  0.00  0.00    -0.311 N 
ATOM     14  C   LIG d   1      -8.309  77.138 121.624  0.00  0.00     0.210 C 
ATOM     15  C   LIG d   1      -8.695  75.813 122.289  0.00  0.00     0.109 C 
ATOM     16  O   LIG d   1      -7.194  77.639 121.833  0.00  0.00    -0.276 OA
ATOM     17  H   LIG d   1     -10.145  77.228 120.781  0.00  0.00     0.149 HD
ENDBRANCH   6  13
BRANCH   5  18
ATOM     18  N   LIG d   1     -10.523  80.356 121.646  0.00  0.00     0.381 N 
ATOM     19  H   LIG d   1     -10.825  81.310 121.643  0.00  0.00    -0.090 HD
ATOM     20  H   LIG d   1      -9.657  80.302 122.151  0.00  0.00    -0.090 HD
ATOM     21  H   LIG d   1     -11.210  79.784 122.086  0.00  0.00    -0.090 HD
ENDBRANCH   5  18
BRANCH   3  22
ATOM     22  C   LIG d   1     -10.078  81.728 117.079  0.00  0.00     0.382 C 
ATOM     23  O   LIG d   1      -9.328  81.902 116.088  0.00  0.00    -0.241 OA
ATOM     24  O   LIG d   1     -11.127  82.393 117.178  0.00  0.00    -0.241 OA
ENDBRANCH   3  22
TORSDOF 7
ENDMDL
MODEL 3
REMARK VINA RESULT:      -4.6      2.051      4.146
REMARK  7 active torsions:
REMARK  status: ('A' for Active; 'I' for Inactive)
REMARK    1  A    between atoms: C_2  and  C_3 
REMARK    2  A    between atoms: C_3  and  O_6 
REMARK    3  A    between atoms: C_3  and  C_4 
REMARK    4  A    between atoms: C_7  and  O_6 
REMARK    5  A    between atoms: C_9  and  C_10 
REMARK    6  A    between atoms: N_15  and  C_14 
REMARK    7  A    between atoms: N_20  and  C_19 
REMARK       I    between atoms: C_22  and  N_20 
ROOT
ATOM      1  C   LIG d   1      -3.945  92.074 117.954  0.00  0.00     0.161 C 
ATOM      2  C   LIG d   1      -4.304  90.829 117.413  0.00  0.00     0.016 C 
ATOM      3  C   LIG d   1      -5.451  90.630 116.610  0.00  0.00     0.038 C 
ATOM      4  C   LIG d   1      -6.239  91.702 116.165  0.00  0.00     0.028 C 
ATOM      5  C   LIG d   1      -6.205  92.907 117.098  0.00  0.00    -0.047 C 
ATOM      6  C   LIG d   1      -4.731  93.276 117.388  0.00  0.00     0.091 C 
ENDROOT
BRANCH   1   7
ATOM      7  O   LIG d   1      -2.528  92.285 117.798  0.00  0.00    -0.368 OA
BRANCH   7   8
ATOM      8  C   LIG d   1      -1.702  91.931 118.935  0.00  0.00     0.119 C 
BRANCH   8   9
ATOM      9  C   LIG d   1      -1.486  93.211 119.766  0.00  0.00     0.028 C 
ATOM     10  C   LIG d   1      -1.002  94.393 118.908  0.00  0.00     0.006 C 
ENDBRANCH   8   9
BRANCH   8  11
ATOM     11  C   LIG d   1      -0.303  91.494 118.493  0.00  0.00     0.028 C 
ATOM     12  C   LIG d   1      -0.334  90.383 117.431  0.00  0.00     0.006 C 
ENDBRANCH   8  11
ENDBRANCH   7   8
ENDBRANCH   1   7
BRANCH   6  13
ATOM     13  N   LIG d   1      -4.607  94.393 118.361  0.00  0.00    -0.311 N 
ATOM     14  C   LIG d   1      -5.018  94.313 119.625  0.00  0.00     0.210 C 
ATOM     15  C   LIG d   1      -4.814  95.586 120.453  0.00  0.00     0.109 C 
ATOM     16  O   LIG d   1      -5.502  93.298 120.149  0.00  0.00    -0.276 OA
ATOM     17  H   LIG d   1      -4.197  95.243 118.028  0.00  0.00     0.149 HD
ENDBRANCH   6  13
BRANCH   5  18
ATOM     18  N   LIG d   1      -6.955  93.997 116.447  0.00  0.00     0.381 N 
ATOM     19  H   LIG d   1      -6.334  94.556 115.897  0.00  0.00    -0.090 HD
ATOM     20  H   LIG d   1      -7.361  94.582 117.156  0.00  0.00    -0.090 HD
ATOM     21  H   LIG d   1      -7.673  93.618 115.868  0.00  0.00    -0.090 HD
ENDBRANCH   5  18
BRANCH   3  22
ATOM     22  C   LIG d   1      -5.841  89.342 116.276  0.00  0.00     0.382 C 
ATOM     23  O   LIG d   1      -7.021  88.970 116.489  0.00  0.00    -0.241 OA
ATOM     24  O   LIG d   1      -5.018  88.534 115.806  0.00  0.00    -0.241 OA
ENDBRANCH   3  22
TORSDOF 7
ENDMDL
MODEL 4
REMARK VINA RESULT:      -4.6      1.651      2.495
REMARK  7 active torsions:
REMARK  status: ('A' for Active; 'I' for Inactive)
REMARK    1  A    between atoms: C_2  and  C_3 
REMARK    2  A    between atoms: C_3  and  O_6 
REMARK    3  A    between atoms: C_3  and  C_4 
REMARK    4  A    between atoms: C_7  and  O_6 
REMARK    5  A    between atoms: C_9  and  C_10 
REMARK    6  A    between atoms: N_15  and  C_14 
REMARK    7  A    between atoms: N_20  and  C_19 
REMARK       I    between atoms: C_22  and  N_20 
ROOT
ATOM      1  C   LIG d   1      -4.934  92.879 117.506  0.00  0.00     0.161 C 
ATOM      2  C   LIG d   1      -6.065  92.120 117.161  0.00  0.00     0.016 C 
ATOM      3  C   LIG d   1      -6.025  90.726 116.929  0.00  0.00     0.038 C 
ATOM      4  C   LIG d   1      -4.871  89.966 117.175  0.00  0.00     0.028 C 
ATOM      5  C   LIG d   1      -3.579  90.764 117.037  0.00  0.00    -0.047 C 
ATOM      6  C   LIG d   1      -3.690  92.050 117.888  0.00  0.00     0.091 C 
ENDROOT
BRANCH   1   7
ATOM      7  O   LIG d   1      -5.268  93.799 118.565  0.00  0.00    -0.368 OA
BRANCH   7   8
ATOM      8  C   LIG d   1      -6.431  93.460 119.360  0.00  0.00     0.119 C 
BRANCH   8   9
ATOM      9  C   LIG d   1      -7.220  94.761 119.604  0.00  0.00     0.028 C 
ATOM     10  C   LIG d   1      -6.905  95.843 118.557  0.00  0.00     0.006 C 
ENDBRANCH   8   9
BRANCH   8  11
ATOM     11  C   LIG d   1      -6.029  92.963 120.752  0.00  0.00     0.028 C 
ATOM     12  C   LIG d   1      -5.966  91.430 120.842  0.00  0.00     0.006 C 
ENDBRANCH   8  11
ENDBRANCH   7   8
ENDBRANCH   1   7
BRANCH   6  13
ATOM     13  N   LIG d   1      -2.502  92.930 117.744  0.00  0.00    -0.311 N 
ATOM     14  C   LIG d   1      -1.753  93.326 118.772  0.00  0.00     0.210 C 
ATOM     15  C   LIG d   1      -0.586  94.247 118.405  0.00  0.00     0.109 C 
ATOM     16  O   LIG d   1      -1.926  92.975 119.949  0.00  0.00    -0.276 OA
ATOM     17  H   LIG d   1      -2.270  93.236 116.819  0.00  0.00     0.149 HD
ENDBRANCH   6  13
BRANCH   5  18
ATOM     18  N   LIG d   1      -2.468  89.889 117.455  0.00  0.00     0.381 N 
ATOM     19  H   LIG d   1      -2.648  88.950 117.162  0.00  0.00    -0.090 HD
ATOM     20  H   LIG d   1      -2.405  89.900 118.458  0.00  0.00    -0.090 HD
ATOM     21  H   LIG d   1      -1.613  90.210 117.057  0.00  0.00    -0.090 HD
ENDBRANCH   5  18
BRANCH   3  22
ATOM     22  C   LIG d   1      -7.137  90.084 116.406  0.00  0.00     0.382 C 
ATOM     23  O   LIG d   1      -7.240  88.837 116.494  0.00  0.00    -0.241 OA
ATOM     24  O   LIG d   1      -8.017  90.732 115.807  0.00  0.00    -0.241 OA
ENDBRANCH   3  22
TORSDOF 7
ENDMDL
MODEL 5
REMARK VINA RESULT:      -4.4      2.208      3.818
REMARK  7 active torsions:
REMARK  status: ('A' for Active; 'I' for Inactive)
REMARK    1  A    between atoms: C_2  and  C_3 
REMARK    2  A    between atoms: C_3  and  O_6 
REMARK    3  A    between atoms: C_3  and  C_4 
REMARK    4  A    between atoms: C_7  and  O_6 
REMARK    5  A    between atoms: C_9  and  C_10 
REMARK    6  A    between atoms: N_15  and  C_14 
REMARK    7  A    between atoms: N_20  and  C_19 
REMARK       I    between atoms: C_22  and  N_20 
ROOT
ATOM      1  C   LIG d   1      -4.731  91.854 118.785  0.00  0.00     0.161 C 
ATOM      2  C   LIG d   1      -4.995  90.674 118.071  0.00  0.00     0.016 C 
ATOM      3  C   LIG d   1      -5.789  90.633 116.902  0.00  0.00     0.038 C 
ATOM      4  C   LIG d   1      -6.253  91.801 116.279  0.00  0.00     0.028 C 
ATOM      5  C   LIG d   1      -6.435  92.969 117.242  0.00  0.00    -0.047 C 
ATOM      6  C   LIG d   1      -5.136  93.154 118.059  0.00  0.00     0.091 C 
ENDROOT
BRANCH   1   7
ATOM      7  O   LIG d   1      -3.339  91.901 119.156  0.00  0.00    -0.368 OA
BRANCH   7   8
ATOM      8  C   LIG d   1      -2.498  90.856 118.607  0.00  0.00     0.119 C 
BRANCH   8   9
ATOM      9  C   LIG d   1      -1.790  90.164 119.788  0.00  0.00     0.028 C 
ATOM     10  C   LIG d   1      -2.377  88.776 120.093  0.00  0.00     0.006 C 
ENDBRANCH   8   9
BRANCH   8  11
ATOM     11  C   LIG d   1      -1.374  91.440 117.746  0.00  0.00     0.028 C 
ATOM     12  C   LIG d   1      -0.158  90.507 117.641  0.00  0.00     0.006 C 
ENDBRANCH   8  11
ENDBRANCH   7   8
ENDBRANCH   1   7
BRANCH   6  13
ATOM     13  N   LIG d   1      -5.258  94.223 119.084  0.00  0.00    -0.311 N 
ATOM     14  C   LIG d   1      -4.318  95.140 119.303  0.00  0.00     0.210 C 
ATOM     15  C   LIG d   1      -4.636  96.139 120.420  0.00  0.00     0.109 C 
ATOM     16  O   LIG d   1      -3.265  95.242 118.656  0.00  0.00    -0.276 OA
ATOM     17  H   LIG d   1      -6.095  94.234 119.634  0.00  0.00     0.149 HD
ENDBRANCH   6  13
BRANCH   5  18
ATOM     18  N   LIG d   1      -6.788  94.157 116.441  0.00  0.00     0.381 N 
ATOM     19  H   LIG d   1      -6.533  94.008 115.485  0.00  0.00    -0.090 HD
ATOM     20  H   LIG d   1      -6.273  94.947 116.786  0.00  0.00    -0.090 HD
ATOM     21  H   LIG d   1      -7.766  94.334 116.507  0.00  0.00    -0.090 HD
ENDBRANCH   5  18
BRANCH   3  22
ATOM     22  C   LIG d   1      -6.161  89.409 116.366  0.00  0.00     0.382 C 
ATOM     23  O   LIG d   1      -7.343  89.006 116.484  0.00  0.00    -0.241 OA
ATOM     24  O   LIG d   1      -5.318  88.683 115.805  0.00  0.00    -0.241 OA
ENDBRANCH   3  22
TORSDOF 7
ENDMDL
MODEL 6
REMARK VINA RESULT:      -4.4      2.479      4.530
REMARK  7 active torsions:
REMARK  status: ('A' for Active; 'I' for Inactive)
REMARK    1  A    between atoms: C_2  and  C_3 
REMARK    2  A    between atoms: C_3  and  O_6 
REMARK    3  A    between atoms: C_3  and  C_4 
REMARK    4  A    between atoms: C_7  and  O_6 
REMARK    5  A    between atoms: C_9  and  C_10 
REMARK    6  A    between atoms: N_15  and  C_14 
REMARK    7  A    between atoms: N_20  and  C_19 
REMARK       I    between atoms: C_22  and  N_20 
ROOT
ATOM      1  C   LIG d   1      -3.238  92.572 117.677  0.00  0.00     0.161 C 
ATOM      2  C   LIG d   1      -4.503  93.146 117.471  0.00  0.00     0.016 C 
ATOM      3  C   LIG d   1      -5.596  92.442 116.915  0.00  0.00     0.038 C 
ATOM      4  C   LIG d   1      -5.540  91.063 116.666  0.00  0.00     0.028 C 
ATOM      5  C   LIG d   1      -4.130  90.555 116.386  0.00  0.00    -0.047 C 
ATOM      6  C   LIG d   1      -3.190  91.038 117.514  0.00  0.00     0.091 C 
ENDROOT
BRANCH   1   7
ATOM      7  O   LIG d   1      -2.733  92.954 118.972  0.00  0.00    -0.368 OA
BRANCH   7   8
ATOM      8  C   LIG d   1      -3.727  93.287 119.971  0.00  0.00     0.119 C 
BRANCH   8   9
ATOM      9  C   LIG d   1      -3.174  94.461 120.802  0.00  0.00     0.028 C 
ATOM     10  C   LIG d   1      -2.076  95.240 120.058  0.00  0.00     0.006 C 
ENDBRANCH   8   9
BRANCH   8  11
ATOM     11  C   LIG d   1      -3.921  92.141 120.968  0.00  0.00     0.028 C 
ATOM     12  C   LIG d   1      -5.204  91.336 120.710  0.00  0.00     0.006 C 
ENDBRANCH   8  11
ENDBRANCH   7   8
ENDBRANCH   1   7
BRANCH   6  13
ATOM     13  N   LIG d   1      -1.774  90.656 117.275  0.00  0.00    -0.311 N 
ATOM     14  C   LIG d   1      -1.218  89.552 117.772  0.00  0.00     0.210 C 
ATOM     15  C   LIG d   1       0.260  89.357 117.421  0.00  0.00     0.109 C 
ATOM     16  O   LIG d   1      -1.818  88.699 118.444  0.00  0.00    -0.276 OA
ATOM     17  H   LIG d   1      -1.222  91.275 116.714  0.00  0.00     0.149 HD
ENDBRANCH   6  13
BRANCH   5  18
ATOM     18  N   LIG d   1      -4.198  89.085 116.281  0.00  0.00     0.381 N 
ATOM     19  H   LIG d   1      -5.153  88.788 116.309  0.00  0.00    -0.090 HD
ATOM     20  H   LIG d   1      -3.718  88.680 117.065  0.00  0.00    -0.090 HD
ATOM     21  H   LIG d   1      -3.774  88.784 115.431  0.00  0.00    -0.090 HD
ENDBRANCH   5  18
BRANCH   3  22
ATOM     22  C   LIG d   1      -6.749  93.128 116.566  0.00  0.00     0.382 C 
ATOM     23  O   LIG d   1      -6.976  94.263 117.051  0.00  0.00    -0.241 OA
ATOM     24  O   LIG d   1      -7.588  92.609 115.805  0.00  0.00    -0.241 OA
ENDBRANCH   3  22
TORSDOF 7
ENDMDL
MODEL 7
REMARK VINA RESULT:      -4.4     11.258     13.676
REMARK  7 active torsions:
REMARK  status: ('A' for Active; 'I' for Inactive)
REMARK    1  A    between atoms: C_2  and  C_3 
REMARK    2  A    between atoms: C_3  and  O_6 
REMARK    3  A    between atoms: C_3  and  C_4 
REMARK    4  A    between atoms: C_7  and  O_6 
REMARK    5  A    between atoms: C_9  and  C_10 
REMARK    6  A    between atoms: N_15  and  C_14 
REMARK    7  A    between atoms: N_20  and  C_19 
REMARK       I    between atoms: C_22  and  N_20 
ROOT
ATOM      1  C   LIG d   1      -8.300  79.996 120.666  0.00  0.00     0.161 C 
ATOM      2  C   LIG d   1      -8.819  78.721 120.387  0.00  0.00     0.016 C 
ATOM      3  C   LIG d   1     -10.119  78.310 120.763  0.00  0.00     0.038 C 
ATOM      4  C   LIG d   1     -11.048  79.203 121.315  0.00  0.00     0.028 C 
ATOM      5  C   LIG d   1     -10.402  80.357 122.074  0.00  0.00    -0.047 C 
ATOM      6  C   LIG d   1      -9.339  81.021 121.169  0.00  0.00     0.091 C 
ENDROOT
BRANCH   1   7
ATOM      7  O   LIG d   1      -7.612  80.508 119.508  0.00  0.00    -0.368 OA
BRANCH   7   8
ATOM      8  C   LIG d   1      -8.145  80.110 118.221  0.00  0.00     0.119 C 
BRANCH   8   9
ATOM      9  C   LIG d   1      -6.969  79.592 117.372  0.00  0.00     0.028 C 
ATOM     10  C   LIG d   1      -7.009  78.066 117.182  0.00  0.00     0.006 C 
ENDBRANCH   8   9
BRANCH   8  11
ATOM     11  C   LIG d   1      -8.702  81.312 117.453  0.00  0.00     0.028 C 
ATOM     12  C   LIG d   1     -10.227  81.449 117.583  0.00  0.00     0.006 C 
ENDBRANCH   8  11
ENDBRANCH   7   8
ENDBRANCH   1   7
BRANCH   6  13
ATOM     13  N   LIG d   1      -8.599  82.106 121.865  0.00  0.00    -0.311 N 
ATOM     14  C   LIG d   1      -8.929  83.393 121.772  0.00  0.00     0.210 C 
ATOM     15  C   LIG d   1      -8.022  84.350 122.553  0.00  0.00     0.109 C 
ATOM     16  O   LIG d   1      -9.904  83.830 121.144  0.00  0.00    -0.276 OA
ATOM     17  H   LIG d   1      -7.812  81.837 122.422  0.00  0.00     0.149 HD
ENDBRANCH   6  13
BRANCH   5  18
ATOM     18  N   LIG d   1     -11.477  81.283 122.477  0.00  0.00     0.381 N 
ATOM     19  H   LIG d   1     -12.243  80.766 122.860  0.00  0.00    -0.090 HD
ATOM     20  H   LIG d   1     -11.803  81.776 121.665  0.00  0.00    -0.090 HD
ATOM     21  H   LIG d   1     -11.134  81.931 123.152  0.00  0.00    -0.090 HD
ENDBRANCH   5  18
BRANCH   3  22
ATOM     22  C   LIG d   1     -10.486  76.980 120.624  0.00  0.00     0.382 C 
ATOM     23  O   LIG d   1      -9.725  76.073 121.039  0.00  0.00    -0.241 OA
ATOM     24  O   LIG d   1     -11.548  76.675 120.049  0.00  0.00    -0.241 OA
ENDBRANCH   3  22
TORSDOF 7
ENDMDL
MODEL 8
REMARK VINA RESULT:      -4.3      2.625      4.832
REMARK  7 active torsions:
REMARK  status: ('A' for Active; 'I' for Inactive)
REMARK    1  A    between atoms: C_2  and  C_3 
REMARK    2  A    between atoms: C_3  and  O_6 
REMARK    3  A    between atoms: C_3  and  C_4 
REMARK    4  A    between atoms: C_7  and  O_6 
REMARK    5  A    between atoms: C_9  and  C_10 
REMARK    6  A    between atoms: N_15  and  C_14 
REMARK    7  A    between atoms: N_20  and  C_19 
REMARK       I    between atoms: C_22  and  N_20 
ROOT
ATOM      1  C   LIG d   1      -3.690  90.597 117.961  0.00  0.00     0.161 C 
ATOM      2  C   LIG d   1      -4.800  90.038 117.305  0.00  0.00     0.016 C 
ATOM      3  C   LIG d   1      -5.922  90.794 116.893  0.00  0.00     0.038 C 
ATOM      4  C   LIG d   1      -5.944  92.194 116.976  0.00  0.00     0.028 C 
ATOM      5  C   LIG d   1      -5.062  92.749 118.090  0.00  0.00    -0.047 C 
ATOM      6  C   LIG d   1      -3.647  92.140 117.960  0.00  0.00     0.091 C 
ENDROOT
BRANCH   1   7
ATOM      7  O   LIG d   1      -2.473  90.062 117.404  0.00  0.00    -0.368 OA
BRANCH   7   8
ATOM      8  C   LIG d   1      -1.677  89.236 118.289  0.00  0.00     0.119 C 
BRANCH   8   9
ATOM      9  C   LIG d   1      -0.242  89.206 117.729  0.00  0.00     0.028 C 
ATOM     10  C   LIG d   1       0.257  90.602 117.319  0.00  0.00     0.006 C 
ENDBRANCH   8   9
BRANCH   8  11
ATOM     11  C   LIG d   1      -2.151  87.779 118.267  0.00  0.00     0.028 C 
ATOM     12  C   LIG d   1      -2.604  87.279 119.648  0.00  0.00     0.006 C 
ENDBRANCH   8  11
ENDBRANCH   7   8
ENDBRANCH   1   7
BRANCH   6  13
ATOM     13  N   LIG d   1      -2.744  92.565 119.061  0.00  0.00    -0.311 N 
ATOM     14  C   LIG d   1      -1.669  93.329 118.873  0.00  0.00     0.210 C 
ATOM     15  C   LIG d   1      -0.864  93.634 120.140  0.00  0.00     0.109 C 
ATOM     16  O   LIG d   1      -1.324  93.809 117.783  0.00  0.00    -0.276 OA
ATOM     17  H   LIG d   1      -2.968  92.246 119.983  0.00  0.00     0.149 HD
ENDBRANCH   6  13
BRANCH   5  18
ATOM     18  N   LIG d   1      -5.071  94.219 117.974  0.00  0.00     0.381 N 
ATOM     19  H   LIG d   1      -4.265  94.600 118.429  0.00  0.00    -0.090 HD
ATOM     20  H   LIG d   1      -5.891  94.577 118.433  0.00  0.00    -0.090 HD
ATOM     21  H   LIG d   1      -5.077  94.486 117.014  0.00  0.00    -0.090 HD
ENDBRANCH   5  18
BRANCH   3  22
ATOM     22  C   LIG d   1      -7.055  90.143 116.429  0.00  0.00     0.382 C 
ATOM     23  O   LIG d   1      -7.179  88.906 116.594  0.00  0.00    -0.241 OA
ATOM     24  O   LIG d   1      -7.933  90.771 115.807  0.00  0.00    -0.241 OA
ENDBRANCH   3  22
TORSDOF 7
ENDMDL
MODEL 9
REMARK VINA RESULT:      -4.3     12.671     15.358
REMARK  7 active torsions:
REMARK  status: ('A' for Active; 'I' for Inactive)
REMARK    1  A    between atoms: C_2  and  C_3 
REMARK    2  A    between atoms: C_3  and  O_6 
REMARK    3  A    between atoms: C_3  and  C_4 
REMARK    4  A    between atoms: C_7  and  O_6 
REMARK    5  A    between atoms: C_9  and  C_10 
REMARK    6  A    between atoms: N_15  and  C_14 
REMARK    7  A    between atoms: N_20  and  C_19 
REMARK       I    between atoms: C_22  and  N_20 
ROOT
ATOM      1  C   LIG d   1      -6.106  77.789 118.071  0.00  0.00     0.161 C 
ATOM      2  C   LIG d   1      -7.453  78.108 117.833  0.00  0.00     0.016 C 
ATOM      3  C   LIG d   1      -8.057  79.310 118.268  0.00  0.00     0.038 C 
ATOM      4  C   LIG d   1      -7.310  80.349 118.843  0.00  0.00     0.028 C 
ATOM      5  C   LIG d   1      -6.051  79.867 119.557  0.00  0.00    -0.047 C 
ATOM      6  C   LIG d   1      -5.248  78.958 118.599  0.00  0.00     0.091 C 
ENDROOT
BRANCH   1   7
ATOM      7  O   LIG d   1      -5.517  77.234 116.879  0.00  0.00    -0.368 OA
BRANCH   7   8
ATOM      8  C   LIG d   1      -5.199  75.821 116.923  0.00  0.00     0.119 C 
BRANCH   8   9
ATOM      9  C   LIG d   1      -3.840  75.630 116.222  0.00  0.00     0.028 C 
ATOM     10  C   LIG d   1      -2.841  74.840 117.084  0.00  0.00     0.006 C 
ENDBRANCH   8   9
BRANCH   8  11
ATOM     11  C   LIG d   1      -6.198  75.000 116.102  0.00  0.00     0.028 C 
ATOM     12  C   LIG d   1      -6.454  73.605 116.696  0.00  0.00     0.006 C 
ENDBRANCH   8  11
ENDBRANCH   7   8
ENDBRANCH   1   7
BRANCH   6  13
ATOM     13  N   LIG d   1      -4.044  78.376 119.247  0.00  0.00    -0.311 N 
ATOM     14  C   LIG d   1      -2.850  78.319 118.659  0.00  0.00     0.210 C 
ATOM     15  C   LIG d   1      -1.748  77.660 119.496  0.00  0.00     0.109 C 
ATOM     16  O   LIG d   1      -2.591  78.780 117.538  0.00  0.00    -0.276 OA
ATOM     17  H   LIG d   1      -4.157  78.006 120.171  0.00  0.00     0.149 HD
ENDBRANCH   6  13
BRANCH   5  18
ATOM     18  N   LIG d   1      -5.299  81.061 119.988  0.00  0.00     0.381 N 
ATOM     19  H   LIG d   1      -5.238  81.714 119.233  0.00  0.00    -0.090 HD
ATOM     20  H   LIG d   1      -4.367  80.783 120.241  0.00  0.00    -0.090 HD
ATOM     21  H   LIG d   1      -5.750  81.485 120.768  0.00  0.00    -0.090 HD
ENDBRANCH   5  18
BRANCH   3  22
ATOM     22  C   LIG d   1      -9.430  79.466 118.165  0.00  0.00     0.382 C 
ATOM     23  O   LIG d   1     -10.193  78.517 118.467  0.00  0.00    -0.241 OA
ATOM     24  O   LIG d   1      -9.915  80.528 117.732  0.00  0.00    -0.241 OA
ENDBRANCH   3  22
TORSDOF 7
ENDMDL
