MODEL 1
REMARK VINA RESULT:      -5.8      0.000      0.000
REMARK  7 active torsions:
REMARK  status: ('A' for Active; 'I' for Inactive)
REMARK    1  A    between atoms: C_2  and  C_3 
REMARK    2  A    between atoms: C_3  and  O_6 
REMARK    3  A    between atoms: C_3  and  C_4 
REMARK    4  A    between atoms: C_7  and  O_6 
REMARK    5  A    between atoms: C_9  and  C_10 
REMARK    6  A    between atoms: N_15  and  C_14 
REMARK    7  A    between atoms: N_20  and  C_19 
REMARK       I    between atoms: C_22  and  N_20 
ROOT
ATOM      1  C   LIG d   1      -7.264  75.759 117.793  0.00  0.00     0.161 C 
ATOM      2  C   LIG d   1      -8.261  76.739 117.934  0.00  0.00     0.016 C 
ATOM      3  C   LIG d   1      -7.994  78.127 117.929  0.00  0.00     0.038 C 
ATOM      4  C   LIG d   1      -6.722  78.637 117.630  0.00  0.00     0.028 C 
ATOM      5  C   LIG d   1      -5.588  77.679 117.981  0.00  0.00    -0.047 C 
ATOM      6  C   LIG d   1      -5.886  76.298 117.355  0.00  0.00     0.091 C 
ENDROOT
BRANCH   1   7
ATOM      7  O   LIG d   1      -7.712  74.732 116.887  0.00  0.00    -0.368 OA
BRANCH   7   8
ATOM      8  C   LIG d   1      -8.130  73.485 117.493  0.00  0.00     0.119 C 
BRANCH   8   9
ATOM      9  C   LIG d   1      -7.060  72.427 117.160  0.00  0.00     0.028 C 
ATOM     10  C   LIG d   1      -7.654  71.015 117.020  0.00  0.00     0.006 C 
ENDBRANCH   8   9
BRANCH   8  11
ATOM     11  C   LIG d   1      -9.425  72.964 116.863  0.00  0.00     0.028 C 
ATOM     12  C   LIG d   1     -10.313  74.091 116.310  0.00  0.00     0.006 C 
ENDBRANCH   8  11
ENDBRANCH   7   8
ENDBRANCH   1   7
BRANCH   6  13
ATOM     13  N   LIG d   1      -4.868  75.278 117.720  0.00  0.00    -0.311 N 
ATOM     14  C   LIG d   1      -3.867  74.921 116.917  0.00  0.00     0.210 C 
ATOM     15  C   LIG d   1      -2.941  73.838 117.480  0.00  0.00     0.109 C 
ATOM     16  O   LIG d   1      -3.639  75.422 115.805  0.00  0.00    -0.276 OA
ATOM     17  H   LIG d   1      -4.959  74.844 118.617  0.00  0.00     0.149 HD
ENDBRANCH   6  13
BRANCH   5  18
ATOM     18  N   LIG d   1      -4.332  78.277 117.491  0.00  0.00     0.381 N 
ATOM     19  H   LIG d   1      -4.062  79.034 118.088  0.00  0.00    -0.090 HD
ATOM     20  H   LIG d   1      -4.484  78.642 116.568  0.00  0.00    -0.090 HD
ATOM     21  H   LIG d   1      -3.612  77.589 117.470  0.00  0.00    -0.090 HD
ENDBRANCH   5  18
BRANCH   3  22
ATOM     22  C   LIG d   1      -8.999  79.021 118.265  0.00  0.00     0.382 C 
ATOM     23  O   LIG d   1     -10.202  78.688 118.140  0.00  0.00    -0.241 OA
ATOM     24  O   LIG d   1      -8.718  80.172 118.650  0.00  0.00    -0.241 OA
ENDBRANCH   3  22
TORSDOF 7
ENDMDL
MODEL 2
REMARK VINA RESULT:      -5.7      1.862      4.952
REMARK  7 active torsions:
REMARK  status: ('A' for Active; 'I' for Inactive)
REMARK    1  A    between atoms: C_2  and  C_3 
REMARK    2  A    between atoms: C_3  and  O_6 
REMARK    3  A    between atoms: C_3  and  C_4 
REMARK    4  A    between atoms: C_7  and  O_6 
REMARK    5  A    between atoms: C_9  and  C_10 
REMARK    6  A    between atoms: N_15  and  C_14 
REMARK    7  A    between atoms: N_20  and  C_19 
REMARK       I    between atoms: C_22  and  N_20 
ROOT
ATOM      1  C   LIG d   1      -6.049  74.659 116.458  0.00  0.00     0.161 C 
ATOM      2  C   LIG d   1      -4.804  74.022 116.324  0.00  0.00     0.016 C 
ATOM      3  C   LIG d   1      -3.713  74.257 117.191  0.00  0.00     0.038 C 
ATOM      4  C   LIG d   1      -3.841  75.037 118.350  0.00  0.00     0.028 C 
ATOM      5  C   LIG d   1      -4.930  76.099 118.248  0.00  0.00    -0.047 C 
ATOM      6  C   LIG d   1      -6.242  75.429 117.781  0.00  0.00     0.091 C 
ENDROOT
BRANCH   1   7
ATOM      7  O   LIG d   1      -7.110  73.701 116.276  0.00  0.00    -0.368 OA
BRANCH   7   8
ATOM      8  C   LIG d   1      -7.547  73.000 117.466  0.00  0.00     0.119 C 
BRANCH   8   9
ATOM      9  C   LIG d   1      -7.197  71.511 117.280  0.00  0.00     0.028 C 
ATOM     10  C   LIG d   1      -8.446  70.613 117.253  0.00  0.00     0.006 C 
ENDBRANCH   8   9
BRANCH   8  11
ATOM     11  C   LIG d   1      -9.071  73.043 117.610  0.00  0.00     0.028 C 
ATOM     12  C   LIG d   1      -9.751  73.866 116.505  0.00  0.00     0.006 C 
ENDBRANCH   8  11
ENDBRANCH   7   8
ENDBRANCH   1   7
BRANCH   6  13
ATOM     13  N   LIG d   1      -7.338  76.411 117.574  0.00  0.00    -0.311 N 
ATOM     14  C   LIG d   1      -8.278  76.663 118.483  0.00  0.00     0.210 C 
ATOM     15  C   LIG d   1      -9.327  77.697 118.060  0.00  0.00     0.109 C 
ATOM     16  O   LIG d   1      -8.326  76.152 119.612  0.00  0.00    -0.276 OA
ATOM     17  H   LIG d   1      -7.358  76.895 116.698  0.00  0.00     0.149 HD
ENDBRANCH   6  13
BRANCH   5  18
ATOM     18  N   LIG d   1      -5.048  76.744 119.569  0.00  0.00     0.381 N 
ATOM     19  H   LIG d   1      -5.071  77.739 119.460  0.00  0.00    -0.090 HD
ATOM     20  H   LIG d   1      -4.243  76.506 120.121  0.00  0.00    -0.090 HD
ATOM     21  H   LIG d   1      -5.877  76.434 120.027  0.00  0.00    -0.090 HD
ENDBRANCH   5  18
BRANCH   3  22
ATOM     22  C   LIG d   1      -2.464  73.739 116.880  0.00  0.00     0.382 C 
ATOM     23  O   LIG d   1      -1.867  73.005 117.704  0.00  0.00    -0.241 OA
ATOM     24  O   LIG d   1      -1.909  74.033 115.805  0.00  0.00    -0.241 OA
ENDBRANCH   3  22
TORSDOF 7
ENDMDL
MODEL 3
REMARK VINA RESULT:      -5.5      1.662      4.852
REMARK  7 active torsions:
REMARK  status: ('A' for Active; 'I' for Inactive)
REMARK    1  A    between atoms: C_2  and  C_3 
REMARK    2  A    between atoms: C_3  and  O_6 
REMARK    3  A    between atoms: C_3  and  C_4 
REMARK    4  A    between atoms: C_7  and  O_6 
REMARK    5  A    between atoms: C_9  and  C_10 
REMARK    6  A    between atoms: N_15  and  C_14 
REMARK    7  A    between atoms: N_20  and  C_19 
REMARK       I    between atoms: C_22  and  N_20 
ROOT
ATOM      1  C   LIG d   1      -7.291  75.261 117.367  0.00  0.00     0.161 C 
ATOM      2  C   LIG d   1      -6.078  74.671 116.973  0.00  0.00     0.016 C 
ATOM      3  C   LIG d   1      -4.811  75.226 117.265  0.00  0.00     0.038 C 
ATOM      4  C   LIG d   1      -4.666  76.339 118.108  0.00  0.00     0.028 C 
ATOM      5  C   LIG d   1      -5.882  77.259 118.111  0.00  0.00    -0.047 C 
ATOM      6  C   LIG d   1      -7.149  76.415 118.382  0.00  0.00     0.091 C 
ENDROOT
BRANCH   1   7
ATOM      7  O   LIG d   1      -8.182  74.250 117.879  0.00  0.00    -0.368 OA
BRANCH   7   8
ATOM      8  C   LIG d   1      -8.310  73.049 117.080  0.00  0.00     0.119 C 
BRANCH   8   9
ATOM      9  C   LIG d   1      -9.784  72.937 116.645  0.00  0.00     0.028 C 
ATOM     10  C   LIG d   1     -10.394  74.301 116.283  0.00  0.00     0.006 C 
ENDBRANCH   8   9
BRANCH   8  11
ATOM     11  C   LIG d   1      -8.037  71.793 117.914  0.00  0.00     0.028 C 
ATOM     12  C   LIG d   1      -8.826  70.569 117.423  0.00  0.00     0.006 C 
ENDBRANCH   8  11
ENDBRANCH   7   8
ENDBRANCH   1   7
BRANCH   6  13
ATOM     13  N   LIG d   1      -8.393  77.224 118.319  0.00  0.00    -0.311 N 
ATOM     14  C   LIG d   1      -8.952  77.793 119.386  0.00  0.00     0.210 C 
ATOM     15  C   LIG d   1     -10.243  78.568 119.103  0.00  0.00     0.109 C 
ATOM     16  O   LIG d   1      -8.484  77.757 120.534  0.00  0.00    -0.276 OA
ATOM     17  H   LIG d   1      -8.823  77.332 117.421  0.00  0.00     0.149 HD
ENDBRANCH   6  13
BRANCH   5  18
ATOM     18  N   LIG d   1      -5.651  78.298 119.132  0.00  0.00     0.381 N 
ATOM     19  H   LIG d   1      -6.521  78.718 119.391  0.00  0.00    -0.090 HD
ATOM     20  H   LIG d   1      -5.060  79.011 118.742  0.00  0.00    -0.090 HD
ATOM     21  H   LIG d   1      -5.216  77.898 119.934  0.00  0.00    -0.090 HD
ENDBRANCH   5  18
BRANCH   3  22
ATOM     22  C   LIG d   1      -3.674  74.691 116.679  0.00  0.00     0.382 C 
ATOM     23  O   LIG d   1      -3.237  73.578 117.060  0.00  0.00    -0.241 OA
ATOM     24  O   LIG d   1      -3.055  75.327 115.805  0.00  0.00    -0.241 OA
ENDBRANCH   3  22
TORSDOF 7
ENDMDL
MODEL 4
REMARK VINA RESULT:      -5.4      2.001      4.852
REMARK  7 active torsions:
REMARK  status: ('A' for Active; 'I' for Inactive)
REMARK    1  A    between atoms: C_2  and  C_3 
REMARK    2  A    between atoms: C_3  and  O_6 
REMARK    3  A    between atoms: C_3  and  C_4 
REMARK    4  A    between atoms: C_7  and  O_6 
REMARK    5  A    between atoms: C_9  and  C_10 
REMARK    6  A    between atoms: N_15  and  C_14 
REMARK    7  A    between atoms: N_20  and  C_19 
REMARK       I    between atoms: C_22  and  N_20 
ROOT
ATOM      1  C   LIG d   1      -7.482  75.991 116.748  0.00  0.00     0.161 C 
ATOM      2  C   LIG d   1      -8.441  74.979 116.920  0.00  0.00     0.016 C 
ATOM      3  C   LIG d   1      -8.112  73.614 117.082  0.00  0.00     0.038 C 
ATOM      4  C   LIG d   1      -6.785  73.184 117.234  0.00  0.00     0.028 C 
ATOM      5  C   LIG d   1      -5.770  74.102 116.562  0.00  0.00    -0.047 C 
ATOM      6  C   LIG d   1      -6.027  75.556 117.022  0.00  0.00     0.091 C 
ENDROOT
BRANCH   1   7
ATOM      7  O   LIG d   1      -7.825  77.133 117.557  0.00  0.00    -0.368 OA
BRANCH   7   8
ATOM      8  C   LIG d   1      -8.693  76.874 118.688  0.00  0.00     0.119 C 
BRANCH   8   9
ATOM      9  C   LIG d   1      -9.768  77.978 118.708  0.00  0.00     0.028 C 
ATOM     10  C   LIG d   1      -9.254  79.309 118.136  0.00  0.00     0.006 C 
ENDBRANCH   8   9
BRANCH   8  11
ATOM     11  C   LIG d   1      -7.939  77.019 120.014  0.00  0.00     0.028 C 
ATOM     12  C   LIG d   1      -7.393  75.682 120.538  0.00  0.00     0.006 C 
ENDBRANCH   8  11
ENDBRANCH   7   8
ENDBRANCH   1   7
BRANCH   6  13
ATOM     13  N   LIG d   1      -5.131  76.531 116.347  0.00  0.00    -0.311 N 
ATOM     14  C   LIG d   1      -3.977  76.947 116.866  0.00  0.00     0.210 C 
ATOM     15  C   LIG d   1      -3.218  77.970 116.014  0.00  0.00     0.109 C 
ATOM     16  O   LIG d   1      -3.496  76.543 117.935  0.00  0.00    -0.276 OA
ATOM     17  H   LIG d   1      -5.430  76.886 115.460  0.00  0.00     0.149 HD
ENDBRANCH   6  13
BRANCH   5  18
ATOM     18  N   LIG d   1      -4.424  73.613 116.916  0.00  0.00     0.381 N 
ATOM     19  H   LIG d   1      -3.782  73.825 116.178  0.00  0.00    -0.090 HD
ATOM     20  H   LIG d   1      -4.460  72.615 117.026  0.00  0.00    -0.090 HD
ATOM     21  H   LIG d   1      -4.119  74.038 117.763  0.00  0.00    -0.090 HD
ENDBRANCH   5  18
BRANCH   3  22
ATOM     22  C   LIG d   1      -9.115  72.657 117.053  0.00  0.00     0.382 C 
ATOM     23  O   LIG d   1      -8.844  71.474 116.732  0.00  0.00    -0.241 OA
ATOM     24  O   LIG d   1     -10.295  72.970 117.300  0.00  0.00    -0.241 OA
ENDBRANCH   3  22
TORSDOF 7
ENDMDL
MODEL 5
REMARK VINA RESULT:      -5.2     14.318     17.786
REMARK  7 active torsions:
REMARK  status: ('A' for Active; 'I' for Inactive)
REMARK    1  A    between atoms: C_2  and  C_3 
REMARK    2  A    between atoms: C_3  and  O_6 
REMARK    3  A    between atoms: C_3  and  C_4 
REMARK    4  A    between atoms: C_7  and  O_6 
REMARK    5  A    between atoms: C_9  and  C_10 
REMARK    6  A    between atoms: N_15  and  C_14 
REMARK    7  A    between atoms: N_20  and  C_19 
REMARK       I    between atoms: C_22  and  N_20 
ROOT
ATOM      1  C   LIG d   1      -6.418  92.738 118.524  0.00  0.00     0.161 C 
ATOM      2  C   LIG d   1      -6.762  91.526 117.901  0.00  0.00     0.016 C 
ATOM      3  C   LIG d   1      -5.814  90.659 117.309  0.00  0.00     0.038 C 
ATOM      4  C   LIG d   1      -4.434  90.875 117.433  0.00  0.00     0.028 C 
ATOM      5  C   LIG d   1      -4.063  92.343 117.615  0.00  0.00    -0.047 C 
ATOM      6  C   LIG d   1      -4.907  92.935 118.766  0.00  0.00     0.091 C 
ENDROOT
BRANCH   1   7
ATOM      7  O   LIG d   1      -7.146  92.876 119.760  0.00  0.00    -0.368 OA
BRANCH   7   8
ATOM      8  C   LIG d   1      -8.022  94.026 119.859  0.00  0.00     0.119 C 
BRANCH   8   9
ATOM      9  C   LIG d   1      -9.392  93.524 120.355  0.00  0.00     0.028 C 
ATOM     10  C   LIG d   1     -10.157  94.595 121.150  0.00  0.00     0.006 C 
ENDBRANCH   8   9
BRANCH   8  11
ATOM     11  C   LIG d   1      -8.289  94.643 118.483  0.00  0.00     0.028 C 
ATOM     12  C   LIG d   1      -8.107  96.169 118.469  0.00  0.00     0.006 C 
ENDBRANCH   8  11
ENDBRANCH   7   8
ENDBRANCH   1   7
BRANCH   6  13
ATOM     13  N   LIG d   1      -4.668  94.389 118.955  0.00  0.00    -0.311 N 
ATOM     14  C   LIG d   1      -4.386  94.939 120.135  0.00  0.00     0.210 C 
ATOM     15  C   LIG d   1      -4.195  96.459 120.111  0.00  0.00     0.109 C 
ATOM     16  O   LIG d   1      -4.244  94.308 121.193  0.00  0.00    -0.276 OA
ATOM     17  H   LIG d   1      -4.733  94.971 118.143  0.00  0.00     0.149 HD
ENDBRANCH   6  13
BRANCH   5  18
ATOM     18  N   LIG d   1      -2.612  92.408 117.869  0.00  0.00     0.381 N 
ATOM     19  H   LIG d   1      -2.387  91.875 118.685  0.00  0.00    -0.090 HD
ATOM     20  H   LIG d   1      -2.354  93.365 118.035  0.00  0.00    -0.090 HD
ATOM     21  H   LIG d   1      -2.112  92.053 117.083  0.00  0.00    -0.090 HD
ENDBRANCH   5  18
BRANCH   3  22
ATOM     22  C   LIG d   1      -6.248  89.584 116.549  0.00  0.00     0.382 C 
ATOM     23  O   LIG d   1      -7.435  89.189 116.642  0.00  0.00    -0.241 OA
ATOM     24  O   LIG d   1      -5.455  88.976 115.805  0.00  0.00    -0.241 OA
ENDBRANCH   3  22
TORSDOF 7
ENDMDL
MODEL 6
REMARK VINA RESULT:      -4.9     14.368     17.381
REMARK  7 active torsions:
REMARK  status: ('A' for Active; 'I' for Inactive)
REMARK    1  A    between atoms: C_2  and  C_3 
REMARK    2  A    between atoms: C_3  and  O_6 
REMARK    3  A    between atoms: C_3  and  C_4 
REMARK    4  A    between atoms: C_7  and  O_6 
REMARK    5  A    between atoms: C_9  and  C_10 
REMARK    6  A    between atoms: N_15  and  C_14 
REMARK    7  A    between atoms: N_20  and  C_19 
REMARK       I    between atoms: C_22  and  N_20 
ROOT
ATOM      1  C   LIG d   1      -5.923  93.104 118.145  0.00  0.00     0.161 C 
ATOM      2  C   LIG d   1      -6.501  91.962 117.565  0.00  0.00     0.016 C 
ATOM      3  C   LIG d   1      -5.791  90.759 117.341  0.00  0.00     0.038 C 
ATOM      4  C   LIG d   1      -4.488  90.566 117.822  0.00  0.00     0.028 C 
ATOM      5  C   LIG d   1      -3.697  91.862 117.964  0.00  0.00    -0.047 C 
ATOM      6  C   LIG d   1      -4.534  92.875 118.777  0.00  0.00     0.091 C 
ENDROOT
BRANCH   1   7
ATOM      7  O   LIG d   1      -6.827  93.671 119.113  0.00  0.00    -0.368 OA
BRANCH   7   8
ATOM      8  C   LIG d   1      -7.557  92.726 119.933  0.00  0.00     0.119 C 
BRANCH   8   9
ATOM      9  C   LIG d   1      -9.026  93.192 119.980  0.00  0.00     0.028 C 
ATOM     10  C   LIG d   1      -9.187  94.667 119.578  0.00  0.00     0.006 C 
ENDBRANCH   8   9
BRANCH   8  11
ATOM     11  C   LIG d   1      -7.075  92.761 121.387  0.00  0.00     0.028 C 
ATOM     12  C   LIG d   1      -6.178  91.566 121.745  0.00  0.00     0.006 C 
ENDBRANCH   8  11
ENDBRANCH   7   8
ENDBRANCH   1   7
BRANCH   6  13
ATOM     13  N   LIG d   1      -3.868  94.199 118.891  0.00  0.00    -0.311 N 
ATOM     14  C   LIG d   1      -3.610  94.793 120.055  0.00  0.00     0.210 C 
ATOM     15  C   LIG d   1      -2.936  96.164 119.947  0.00  0.00     0.109 C 
ATOM     16  O   LIG d   1      -3.847  94.299 121.168  0.00  0.00    -0.276 OA
ATOM     17  H   LIG d   1      -3.613  94.656 118.037  0.00  0.00     0.149 HD
ENDBRANCH   6  13
BRANCH   5  18
ATOM     18  N   LIG d   1      -2.409  91.531 118.603  0.00  0.00     0.381 N 
ATOM     19  H   LIG d   1      -2.556  91.315 119.569  0.00  0.00    -0.090 HD
ATOM     20  H   LIG d   1      -1.803  92.330 118.547  0.00  0.00    -0.090 HD
ATOM     21  H   LIG d   1      -1.990  90.753 118.142  0.00  0.00    -0.090 HD
ENDBRANCH   5  18
BRANCH   3  22
ATOM     22  C   LIG d   1      -6.373  89.748 116.592  0.00  0.00     0.382 C 
ATOM     23  O   LIG d   1      -5.663  89.034 115.843  0.00  0.00    -0.241 OA
ATOM     24  O   LIG d   1      -7.606  89.569 116.622  0.00  0.00    -0.241 OA
ENDBRANCH   3  22
TORSDOF 7
ENDMDL
MODEL 7
REMARK VINA RESULT:      -4.8     14.506     17.468
REMARK  7 active torsions:
REMARK  status: ('A' for Active; 'I' for Inactive)
REMARK    1  A    between atoms: C_2  and  C_3 
REMARK    2  A    between atoms: C_3  and  O_6 
REMARK    3  A    between atoms: C_3  and  C_4 
REMARK    4  A    between atoms: C_7  and  O_6 
REMARK    5  A    between atoms: C_9  and  C_10 
REMARK    6  A    between atoms: N_15  and  C_14 
REMARK    7  A    between atoms: N_20  and  C_19 
REMARK       I    between atoms: C_22  and  N_20 
ROOT
ATOM      1  C   LIG d   1      -4.891  91.708 119.327  0.00  0.00     0.161 C 
ATOM      2  C   LIG d   1      -5.087  90.690 118.379  0.00  0.00     0.016 C 
ATOM      3  C   LIG d   1      -6.083  90.742 117.376  0.00  0.00     0.038 C 
ATOM      4  C   LIG d   1      -6.856  91.892 117.158  0.00  0.00     0.028 C 
ATOM      5  C   LIG d   1      -7.037  92.746 118.408  0.00  0.00    -0.047 C 
ATOM      6  C   LIG d   1      -5.651  93.019 119.035  0.00  0.00     0.091 C 
ENDROOT
BRANCH   1   7
ATOM      7  O   LIG d   1      -3.482  91.969 119.478  0.00  0.00    -0.368 OA
BRANCH   7   8
ATOM      8  C   LIG d   1      -2.727  92.124 118.251  0.00  0.00     0.119 C 
BRANCH   8   9
ATOM      9  C   LIG d   1      -1.571  91.105 118.287  0.00  0.00     0.028 C 
ATOM     10  C   LIG d   1      -1.310  90.563 119.702  0.00  0.00     0.006 C 
ENDBRANCH   8   9
BRANCH   8  11
ATOM     11  C   LIG d   1      -2.053  93.498 118.181  0.00  0.00     0.028 C 
ATOM     12  C   LIG d   1      -2.133  94.269 119.508  0.00  0.00     0.006 C 
ENDBRANCH   8  11
ENDBRANCH   7   8
ENDBRANCH   1   7
BRANCH   6  13
ATOM     13  N   LIG d   1      -5.745  93.778 120.309  0.00  0.00    -0.311 N 
ATOM     14  C   LIG d   1      -5.673  95.106 120.378  0.00  0.00     0.210 C 
ATOM     15  C   LIG d   1      -5.772  95.686 121.792  0.00  0.00     0.109 C 
ATOM     16  O   LIG d   1      -5.569  95.861 119.399  0.00  0.00    -0.276 OA
ATOM     17  H   LIG d   1      -5.861  93.246 121.149  0.00  0.00     0.149 HD
ENDBRANCH   6  13
BRANCH   5  18
ATOM     18  N   LIG d   1      -7.743  93.978 118.007  0.00  0.00     0.381 N 
ATOM     19  H   LIG d   1      -8.118  93.869 117.085  0.00  0.00    -0.090 HD
ATOM     20  H   LIG d   1      -7.087  94.739 117.993  0.00  0.00    -0.090 HD
ATOM     21  H   LIG d   1      -8.477  94.175 118.651  0.00  0.00    -0.090 HD
ENDBRANCH   5  18
BRANCH   3  22
ATOM     22  C   LIG d   1      -6.340  89.619 116.605  0.00  0.00     0.382 C 
ATOM     23  O   LIG d   1      -5.427  89.116 115.905  0.00  0.00    -0.241 OA
ATOM     24  O   LIG d   1      -7.484  89.128 116.564  0.00  0.00    -0.241 OA
ENDBRANCH   3  22
TORSDOF 7
ENDMDL
MODEL 8
REMARK VINA RESULT:      -4.6     13.741     16.419
REMARK  7 active torsions:
REMARK  status: ('A' for Active; 'I' for Inactive)
REMARK    1  A    between atoms: C_2  and  C_3 
REMARK    2  A    between atoms: C_3  and  O_6 
REMARK    3  A    between atoms: C_3  and  C_4 
REMARK    4  A    between atoms: C_7  and  O_6 
REMARK    5  A    between atoms: C_9  and  C_10 
REMARK    6  A    between atoms: N_15  and  C_14 
REMARK    7  A    between atoms: N_20  and  C_19 
REMARK       I    between atoms: C_22  and  N_20 
ROOT
ATOM      1  C   LIG d   1      -2.764  90.783 118.333  0.00  0.00     0.161 C 
ATOM      2  C   LIG d   1      -3.779  90.175 117.575  0.00  0.00     0.016 C 
ATOM      3  C   LIG d   1      -5.003  90.811 117.262  0.00  0.00     0.038 C 
ATOM      4  C   LIG d   1      -5.234  92.162 117.561  0.00  0.00     0.028 C 
ATOM      5  C   LIG d   1      -4.442  92.660 118.765  0.00  0.00    -0.047 C 
ATOM      6  C   LIG d   1      -2.953  92.295 118.572  0.00  0.00     0.091 C 
ENDROOT
BRANCH   1   7
ATOM      7  O   LIG d   1      -1.482  90.528 117.726  0.00  0.00    -0.368 OA
BRANCH   7   8
ATOM      8  C   LIG d   1      -0.573  89.691 118.483  0.00  0.00     0.119 C 
BRANCH   8   9
ATOM      9  C   LIG d   1       0.852  90.229 118.252  0.00  0.00     0.028 C 
ATOM     10  C   LIG d   1       0.997  90.945 116.898  0.00  0.00     0.006 C 
ENDBRANCH   8   9
BRANCH   8  11
ATOM     11  C   LIG d   1      -0.558  88.257 117.946  0.00  0.00     0.028 C 
ATOM     12  C   LIG d   1      -1.476  87.314 118.739  0.00  0.00     0.006 C 
ENDBRANCH   8  11
ENDBRANCH   7   8
ENDBRANCH   1   7
BRANCH   6  13
ATOM     13  N   LIG d   1      -2.120  92.673 119.744  0.00  0.00    -0.311 N 
ATOM     14  C   LIG d   1      -0.966  93.329 119.643  0.00  0.00     0.210 C 
ATOM     15  C   LIG d   1      -0.258  93.601 120.973  0.00  0.00     0.109 C 
ATOM     16  O   LIG d   1      -0.478  93.741 118.580  0.00  0.00    -0.276 OA
ATOM     17  H   LIG d   1      -2.457  92.405 120.648  0.00  0.00     0.149 HD
ENDBRANCH   6  13
BRANCH   5  18
ATOM     18  N   LIG d   1      -4.672  94.113 118.879  0.00  0.00     0.381 N 
ATOM     19  H   LIG d   1      -5.261  94.423 118.132  0.00  0.00    -0.090 HD
ATOM     20  H   LIG d   1      -3.790  94.588 118.802  0.00  0.00    -0.090 HD
ATOM     21  H   LIG d   1      -5.095  94.324 119.755  0.00  0.00    -0.090 HD
ENDBRANCH   5  18
BRANCH   3  22
ATOM     22  C   LIG d   1      -6.027  90.081 116.679  0.00  0.00     0.382 C 
ATOM     23  O   LIG d   1      -5.759  89.085 115.965  0.00  0.00    -0.241 OA
ATOM     24  O   LIG d   1      -7.214  90.431 116.822  0.00  0.00    -0.241 OA
ENDBRANCH   3  22
TORSDOF 7
ENDMDL
MODEL 9
REMARK VINA RESULT:      -4.6      1.989      4.839
REMARK  7 active torsions:
REMARK  status: ('A' for Active; 'I' for Inactive)
REMARK    1  A    between atoms: C_2  and  C_3 
REMARK    2  A    between atoms: C_3  and  O_6 
REMARK    3  A    between atoms: C_3  and  C_4 
REMARK    4  A    between atoms: C_7  and  O_6 
REMARK    5  A    between atoms: C_9  and  C_10 
REMARK    6  A    between atoms: N_15  and  C_14 
REMARK    7  A    between atoms: N_20  and  C_19 
REMARK       I    between atoms: C_22  and  N_20 
ROOT
ATOM      1  C   LIG d   1      -7.201  76.288 118.120  0.00  0.00     0.161 C 
ATOM      2  C   LIG d   1      -8.358  75.555 117.808  0.00  0.00     0.016 C 
ATOM      3  C   LIG d   1      -8.330  74.268 117.224  0.00  0.00     0.038 C 
ATOM      4  C   LIG d   1      -7.132  73.559 117.049  0.00  0.00     0.028 C 
ATOM      5  C   LIG d   1      -5.914  74.461 116.882  0.00  0.00    -0.047 C 
ATOM      6  C   LIG d   1      -5.886  75.486 118.038  0.00  0.00     0.091 C 
ENDROOT
BRANCH   1   7
ATOM      7  O   LIG d   1      -7.341  76.891 119.421  0.00  0.00    -0.368 OA
BRANCH   7   8
ATOM      8  C   LIG d   1      -7.540  78.326 119.441  0.00  0.00     0.119 C 
BRANCH   8   9
ATOM      9  C   LIG d   1      -8.966  78.588 119.963  0.00  0.00     0.028 C 
ATOM     10  C   LIG d   1      -9.391  77.577 121.041  0.00  0.00     0.006 C 
ENDBRANCH   8   9
BRANCH   8  11
ATOM     11  C   LIG d   1      -7.513  78.912 118.026  0.00  0.00     0.028 C 
ATOM     12  C   LIG d   1      -6.717  80.224 117.939  0.00  0.00     0.006 C 
ENDBRANCH   8  11
ENDBRANCH   7   8
ENDBRANCH   1   7
BRANCH   6  13
ATOM     13  N   LIG d   1      -4.772  76.461 117.905  0.00  0.00    -0.311 N 
ATOM     14  C   LIG d   1      -4.564  77.191 116.811  0.00  0.00     0.210 C 
ATOM     15  C   LIG d   1      -3.348  78.120 116.875  0.00  0.00     0.109 C 
ATOM     16  O   LIG d   1      -5.291  77.182 115.806  0.00  0.00    -0.276 OA
ATOM     17  H   LIG d   1      -4.152  76.555 118.685  0.00  0.00     0.149 HD
ENDBRANCH   6  13
BRANCH   5  18
ATOM     18  N   LIG d   1      -4.720  73.595 116.847  0.00  0.00     0.381 N 
ATOM     19  H   LIG d   1      -4.916  72.729 117.309  0.00  0.00    -0.090 HD
ATOM     20  H   LIG d   1      -3.973  74.052 117.338  0.00  0.00    -0.090 HD
ATOM     21  H   LIG d   1      -4.451  73.423 115.903  0.00  0.00    -0.090 HD
ENDBRANCH   5  18
BRANCH   3  22
ATOM     22  C   LIG d   1      -9.508  73.693 116.771  0.00  0.00     0.382 C 
ATOM     23  O   LIG d   1      -9.556  72.461 116.540  0.00  0.00    -0.241 OA
ATOM     24  O   LIG d   1     -10.510  74.398 116.548  0.00  0.00    -0.241 OA
ENDBRANCH   3  22
TORSDOF 7
ENDMDL
