MODEL 1
REMARK VINA RESULT:      -5.8      0.000      0.000
REMARK  7 active torsions:
REMARK  status: ('A' for Active; 'I' for Inactive)
REMARK    1  A    between atoms: C_2  and  C_3 
REMARK    2  A    between atoms: C_3  and  O_6 
REMARK    3  A    between atoms: C_3  and  C_4 
REMARK    4  A    between atoms: C_7  and  O_6 
REMARK    5  A    between atoms: C_9  and  C_10 
REMARK    6  A    between atoms: N_15  and  C_14 
REMARK    7  A    between atoms: N_20  and  C_19 
REMARK       I    between atoms: C_22  and  N_20 
ROOT
ATOM      1  C   LIG d   1      -7.151  75.232 116.891  0.00  0.00     0.161 C 
ATOM      2  C   LIG d   1      -5.822  75.003 116.496  0.00  0.00     0.016 C 
ATOM      3  C   LIG d   1      -4.716  75.682 117.056  0.00  0.00     0.038 C 
ATOM      4  C   LIG d   1      -4.851  76.533 118.163  0.00  0.00     0.028 C 
ATOM      5  C   LIG d   1      -6.229  77.177 118.267  0.00  0.00    -0.047 C 
ATOM      6  C   LIG d   1      -7.308  76.074 118.174  0.00  0.00     0.091 C 
ENDROOT
BRANCH   1   7
ATOM      7  O   LIG d   1      -7.842  73.975 117.029  0.00  0.00    -0.368 OA
BRANCH   7   8
ATOM      8  C   LIG d   1      -7.032  72.841 117.426  0.00  0.00     0.119 C 
BRANCH   8   9
ATOM      9  C   LIG d   1      -7.411  71.659 116.515  0.00  0.00     0.028 C 
ATOM     10  C   LIG d   1      -8.507  70.772 117.129  0.00  0.00     0.006 C 
ENDBRANCH   8   9
BRANCH   8  11
ATOM     11  C   LIG d   1      -7.372  72.384 118.848  0.00  0.00     0.028 C 
ATOM     12  C   LIG d   1      -7.313  73.527 119.872  0.00  0.00     0.006 C 
ENDBRANCH   8  11
ENDBRANCH   7   8
ENDBRANCH   1   7
BRANCH   6  13
ATOM     13  N   LIG d   1      -8.687  76.627 118.183  0.00  0.00    -0.311 N 
ATOM     14  C   LIG d   1      -9.417  76.761 119.290  0.00  0.00     0.210 C 
ATOM     15  C   LIG d   1     -10.820  77.335 119.073  0.00  0.00     0.109 C 
ATOM     16  O   LIG d   1      -9.022  76.489 120.434  0.00  0.00    -0.276 OA
ATOM     17  H   LIG d   1      -9.074  76.903 117.302  0.00  0.00     0.149 HD
ENDBRANCH   6  13
BRANCH   5  18
ATOM     18  N   LIG d   1      -6.276  77.926 119.537  0.00  0.00     0.381 N 
ATOM     19  H   LIG d   1      -5.550  78.614 119.552  0.00  0.00    -0.090 HD
ATOM     20  H   LIG d   1      -6.121  77.288 120.297  0.00  0.00    -0.090 HD
ATOM     21  H   LIG d   1      -7.164  78.367 119.641  0.00  0.00    -0.090 HD
ENDBRANCH   5  18
BRANCH   3  22
ATOM     22  C   LIG d   1      -3.462  75.544 116.481  0.00  0.00     0.382 C 
ATOM     23  O   LIG d   1      -2.865  76.550 116.027  0.00  0.00    -0.241 OA
ATOM     24  O   LIG d   1      -2.938  74.419 116.371  0.00  0.00    -0.241 OA
ENDBRANCH   3  22
TORSDOF 7
ENDMDL
MODEL 2
REMARK VINA RESULT:      -5.5      2.320      5.267
REMARK  7 active torsions:
REMARK  status: ('A' for Active; 'I' for Inactive)
REMARK    1  A    between atoms: C_2  and  C_3 
REMARK    2  A    between atoms: C_3  and  O_6 
REMARK    3  A    between atoms: C_3  and  C_4 
REMARK    4  A    between atoms: C_7  and  O_6 
REMARK    5  A    between atoms: C_9  and  C_10 
REMARK    6  A    between atoms: N_15  and  C_14 
REMARK    7  A    between atoms: N_20  and  C_19 
REMARK       I    between atoms: C_22  and  N_20 
ROOT
ATOM      1  C   LIG d   1      -7.589  75.849 120.318  0.00  0.00     0.161 C 
ATOM      2  C   LIG d   1      -8.974  75.639 120.217  0.00  0.00     0.016 C 
ATOM      3  C   LIG d   1      -9.909  76.684 120.034  0.00  0.00     0.038 C 
ATOM      4  C   LIG d   1      -9.505  78.005 119.786  0.00  0.00     0.028 C 
ATOM      5  C   LIG d   1      -8.142  78.343 120.381  0.00  0.00    -0.047 C 
ATOM      6  C   LIG d   1      -7.121  77.270 119.939  0.00  0.00     0.091 C 
ENDROOT
BRANCH   1   7
ATOM      7  O   LIG d   1      -6.887  74.865 119.533  0.00  0.00    -0.368 OA
BRANCH   7   8
ATOM      8  C   LIG d   1      -7.689  74.113 118.588  0.00  0.00     0.119 C 
BRANCH   8   9
ATOM      9  C   LIG d   1      -7.298  72.629 118.727  0.00  0.00     0.028 C 
ATOM     10  C   LIG d   1      -7.584  71.825 117.447  0.00  0.00     0.006 C 
ENDBRANCH   8   9
BRANCH   8  11
ATOM     11  C   LIG d   1      -7.346  74.490 117.144  0.00  0.00     0.028 C 
ATOM     12  C   LIG d   1      -8.246  75.606 116.589  0.00  0.00     0.006 C 
ENDBRANCH   8  11
ENDBRANCH   7   8
ENDBRANCH   1   7
BRANCH   6  13
ATOM     13  N   LIG d   1      -5.781  77.479 120.545  0.00  0.00    -0.311 N 
ATOM     14  C   LIG d   1      -4.657  77.552 119.833  0.00  0.00     0.210 C 
ATOM     15  C   LIG d   1      -3.381  77.751 120.657  0.00  0.00     0.109 C 
ATOM     16  O   LIG d   1      -4.600  77.504 118.595  0.00  0.00    -0.276 OA
ATOM     17  H   LIG d   1      -5.739  77.560 121.542  0.00  0.00     0.149 HD
ENDBRANCH   6  13
BRANCH   5  18
ATOM     18  N   LIG d   1      -7.784  79.702 119.931  0.00  0.00     0.381 N 
ATOM     19  H   LIG d   1      -7.208  80.145 120.618  0.00  0.00    -0.090 HD
ATOM     20  H   LIG d   1      -8.625  80.242 119.829  0.00  0.00    -0.090 HD
ATOM     21  H   LIG d   1      -7.302  79.657 119.061  0.00  0.00    -0.090 HD
ENDBRANCH   5  18
BRANCH   3  22
ATOM     22  C   LIG d   1     -11.266  76.419 120.138  0.00  0.00     0.382 C 
ATOM     23  O   LIG d   1     -12.014  76.578 119.143  0.00  0.00    -0.241 OA
ATOM     24  O   LIG d   1     -11.759  76.065 121.226  0.00  0.00    -0.241 OA
ENDBRANCH   3  22
TORSDOF 7
ENDMDL
MODEL 3
REMARK VINA RESULT:      -5.2     16.659     18.960
REMARK  7 active torsions:
REMARK  status: ('A' for Active; 'I' for Inactive)
REMARK    1  A    between atoms: C_2  and  C_3 
REMARK    2  A    between atoms: C_3  and  O_6 
REMARK    3  A    between atoms: C_3  and  C_4 
REMARK    4  A    between atoms: C_7  and  O_6 
REMARK    5  A    between atoms: C_9  and  C_10 
REMARK    6  A    between atoms: N_15  and  C_14 
REMARK    7  A    between atoms: N_20  and  C_19 
REMARK       I    between atoms: C_22  and  N_20 
ROOT
ATOM      1  C   LIG d   1      -6.291  93.547 117.895  0.00  0.00     0.161 C 
ATOM      2  C   LIG d   1      -6.768  92.347 117.343  0.00  0.00     0.016 C 
ATOM      3  C   LIG d   1      -5.924  91.349 116.803  0.00  0.00     0.038 C 
ATOM      4  C   LIG d   1      -4.527  91.419 116.916  0.00  0.00     0.028 C 
ATOM      5  C   LIG d   1      -3.998  92.846 117.012  0.00  0.00    -0.047 C 
ATOM      6  C   LIG d   1      -4.766  93.592 118.127  0.00  0.00     0.091 C 
ENDROOT
BRANCH   1   7
ATOM      7  O   LIG d   1      -6.993  93.835 119.121  0.00  0.00    -0.368 OA
BRANCH   7   8
ATOM      8  C   LIG d   1      -8.213  94.605 118.991  0.00  0.00     0.119 C 
BRANCH   8   9
ATOM      9  C   LIG d   1      -7.813  96.088 118.863  0.00  0.00     0.028 C 
ATOM     10  C   LIG d   1      -7.149  96.628 120.141  0.00  0.00     0.006 C 
ENDBRANCH   8   9
BRANCH   8  11
ATOM     11  C   LIG d   1      -9.063  94.522 120.262  0.00  0.00     0.028 C 
ATOM     12  C   LIG d   1      -8.616  93.393 121.204  0.00  0.00     0.006 C 
ENDBRANCH   8  11
ENDBRANCH   7   8
ENDBRANCH   1   7
BRANCH   6  13
ATOM     13  N   LIG d   1      -4.368  95.020 118.232  0.00  0.00    -0.311 N 
ATOM     14  C   LIG d   1      -3.662  95.512 119.248  0.00  0.00     0.210 C 
ATOM     15  C   LIG d   1      -3.377  97.015 119.170  0.00  0.00     0.109 C 
ATOM     16  O   LIG d   1      -3.218  94.840 120.192  0.00  0.00    -0.276 OA
ATOM     17  H   LIG d   1      -4.660  95.630 117.493  0.00  0.00     0.149 HD
ENDBRANCH   6  13
BRANCH   5  18
ATOM     18  N   LIG d   1      -2.546  92.766 117.264  0.00  0.00     0.381 N 
ATOM     19  H   LIG d   1      -2.054  93.300 116.575  0.00  0.00    -0.090 HD
ATOM     20  H   LIG d   1      -2.255  91.808 117.187  0.00  0.00    -0.090 HD
ATOM     21  H   LIG d   1      -2.338  93.113 118.174  0.00  0.00    -0.090 HD
ENDBRANCH   5  18
BRANCH   3  22
ATOM     22  C   LIG d   1      -6.476  90.285 116.106  0.00  0.00     0.382 C 
ATOM     23  O   LIG d   1      -7.696  90.294 115.812  0.00  0.00    -0.241 OA
ATOM     24  O   LIG d   1      -5.780  89.297 115.806  0.00  0.00    -0.241 OA
ENDBRANCH   3  22
TORSDOF 7
ENDMDL
MODEL 4
REMARK VINA RESULT:      -5.1     15.787     17.782
REMARK  7 active torsions:
REMARK  status: ('A' for Active; 'I' for Inactive)
REMARK    1  A    between atoms: C_2  and  C_3 
REMARK    2  A    between atoms: C_3  and  O_6 
REMARK    3  A    between atoms: C_3  and  C_4 
REMARK    4  A    between atoms: C_7  and  O_6 
REMARK    5  A    between atoms: C_9  and  C_10 
REMARK    6  A    between atoms: N_15  and  C_14 
REMARK    7  A    between atoms: N_20  and  C_19 
REMARK       I    between atoms: C_22  and  N_20 
ROOT
ATOM      1  C   LIG d   1      -3.064  92.613 117.310  0.00  0.00     0.161 C 
ATOM      2  C   LIG d   1      -4.372  93.124 117.352  0.00  0.00     0.016 C 
ATOM      3  C   LIG d   1      -5.509  92.386 116.952  0.00  0.00     0.038 C 
ATOM      4  C   LIG d   1      -5.431  91.024 116.623  0.00  0.00     0.028 C 
ATOM      5  C   LIG d   1      -4.067  90.609 116.083  0.00  0.00    -0.047 C 
ATOM      6  C   LIG d   1      -2.972  91.093 117.060  0.00  0.00     0.091 C 
ENDROOT
BRANCH   1   7
ATOM      7  O   LIG d   1      -2.363  92.966 118.519  0.00  0.00    -0.368 OA
BRANCH   7   8
ATOM      8  C   LIG d   1      -2.571  92.091 119.655  0.00  0.00     0.119 C 
BRANCH   8   9
ATOM      9  C   LIG d   1      -3.466  92.841 120.660  0.00  0.00     0.028 C 
ATOM     10  C   LIG d   1      -4.810  92.130 120.895  0.00  0.00     0.006 C 
ENDBRANCH   8   9
BRANCH   8  11
ATOM     11  C   LIG d   1      -1.260  91.823 120.400  0.00  0.00     0.028 C 
ATOM     12  C   LIG d   1      -0.034  92.397 119.673  0.00  0.00     0.006 C 
ENDBRANCH   8  11
ENDBRANCH   7   8
ENDBRANCH   1   7
BRANCH   6  13
ATOM     13  N   LIG d   1      -1.601  90.802 116.565  0.00  0.00    -0.311 N 
ATOM     14  C   LIG d   1      -0.801  89.891 117.117  0.00  0.00     0.210 C 
ATOM     15  C   LIG d   1       0.579  89.763 116.464  0.00  0.00     0.109 C 
ATOM     16  O   LIG d   1      -1.114  89.155 118.064  0.00  0.00    -0.276 OA
ATOM     17  H   LIG d   1      -1.277  91.331 115.779  0.00  0.00     0.149 HD
ENDBRANCH   6  13
BRANCH   5  18
ATOM     18  N   LIG d   1      -4.082  89.143 115.913  0.00  0.00     0.381 N 
ATOM     19  H   LIG d   1      -4.553  88.717 116.686  0.00  0.00    -0.090 HD
ATOM     20  H   LIG d   1      -3.135  88.808 115.896  0.00  0.00    -0.090 HD
ATOM     21  H   LIG d   1      -4.542  88.904 115.062  0.00  0.00    -0.090 HD
ENDBRANCH   5  18
BRANCH   3  22
ATOM     22  C   LIG d   1      -6.737  93.021 116.839  0.00  0.00     0.382 C 
ATOM     23  O   LIG d   1      -7.580  92.925 117.763  0.00  0.00    -0.241 OA
ATOM     24  O   LIG d   1      -7.029  93.652 115.806  0.00  0.00    -0.241 OA
ENDBRANCH   3  22
TORSDOF 7
ENDMDL
MODEL 5
REMARK VINA RESULT:      -5.1     16.139     18.192
REMARK  7 active torsions:
REMARK  status: ('A' for Active; 'I' for Inactive)
REMARK    1  A    between atoms: C_2  and  C_3 
REMARK    2  A    between atoms: C_3  and  O_6 
REMARK    3  A    between atoms: C_3  and  C_4 
REMARK    4  A    between atoms: C_7  and  O_6 
REMARK    5  A    between atoms: C_9  and  C_10 
REMARK    6  A    between atoms: N_15  and  C_14 
REMARK    7  A    between atoms: N_20  and  C_19 
REMARK       I    between atoms: C_22  and  N_20 
ROOT
ATOM      1  C   LIG d   1      -0.105  58.764 118.454  0.00  0.00     0.161 C 
ATOM      2  C   LIG d   1       1.158  58.672 119.062  0.00  0.00     0.016 C 
ATOM      3  C   LIG d   1       1.426  59.124 120.374  0.00  0.00     0.038 C 
ATOM      4  C   LIG d   1       0.404  59.564 121.229  0.00  0.00     0.028 C 
ATOM      5  C   LIG d   1      -0.796  60.146 120.490  0.00  0.00    -0.047 C 
ATOM      6  C   LIG d   1      -1.256  59.140 119.411  0.00  0.00     0.091 C 
ENDROOT
BRANCH   1   7
ATOM      7  O   LIG d   1      -0.407  57.535 117.765  0.00  0.00    -0.368 OA
BRANCH   7   8
ATOM      8  C   LIG d   1       0.586  56.485 117.869  0.00  0.00     0.119 C 
BRANCH   8   9
ATOM      9  C   LIG d   1       0.481  55.622 116.597  0.00  0.00     0.028 C 
ATOM     10  C   LIG d   1      -0.861  54.876 116.503  0.00  0.00     0.006 C 
ENDBRANCH   8   9
BRANCH   8  11
ATOM     11  C   LIG d   1       0.275  55.537 119.030  0.00  0.00     0.028 C 
ATOM     12  C   LIG d   1       1.534  55.099 119.796  0.00  0.00     0.006 C 
ENDBRANCH   8  11
ENDBRANCH   7   8
ENDBRANCH   1   7
BRANCH   6  13
ATOM     13  N   LIG d   1      -2.374  59.667 118.584  0.00  0.00    -0.311 N 
ATOM     14  C   LIG d   1      -3.656  59.541 118.920  0.00  0.00     0.210 C 
ATOM     15  C   LIG d   1      -4.649  60.138 117.917  0.00  0.00     0.109 C 
ATOM     16  O   LIG d   1      -4.065  59.020 119.969  0.00  0.00    -0.276 OA
ATOM     17  H   LIG d   1      -2.130  60.132 117.732  0.00  0.00     0.149 HD
ENDBRANCH   6  13
BRANCH   5  18
ATOM     18  N   LIG d   1      -1.838  60.438 121.492  0.00  0.00     0.381 N 
ATOM     19  H   LIG d   1      -2.537  59.722 121.472  0.00  0.00    -0.090 HD
ATOM     20  H   LIG d   1      -2.276  61.312 121.260  0.00  0.00    -0.090 HD
ATOM     21  H   LIG d   1      -1.433  60.491 122.400  0.00  0.00    -0.090 HD
ENDBRANCH   5  18
BRANCH   3  22
ATOM     22  C   LIG d   1       2.734  59.175 120.830  0.00  0.00     0.382 C 
ATOM     23  O   LIG d   1       3.017  59.848 121.851  0.00  0.00    -0.241 OA
ATOM     24  O   LIG d   1       3.643  58.593 120.209  0.00  0.00    -0.241 OA
ENDBRANCH   3  22
TORSDOF 7
ENDMDL
MODEL 6
REMARK VINA RESULT:      -5.0      1.861      2.606
REMARK  7 active torsions:
REMARK  status: ('A' for Active; 'I' for Inactive)
REMARK    1  A    between atoms: C_2  and  C_3 
REMARK    2  A    between atoms: C_3  and  O_6 
REMARK    3  A    between atoms: C_3  and  C_4 
REMARK    4  A    between atoms: C_7  and  O_6 
REMARK    5  A    between atoms: C_9  and  C_10 
REMARK    6  A    between atoms: N_15  and  C_14 
REMARK    7  A    between atoms: N_20  and  C_19 
REMARK       I    between atoms: C_22  and  N_20 
ROOT
ATOM      1  C   LIG d   1      -6.833  76.053 118.621  0.00  0.00     0.161 C 
ATOM      2  C   LIG d   1      -5.465  76.356 118.718  0.00  0.00     0.016 C 
ATOM      3  C   LIG d   1      -4.956  77.415 119.505  0.00  0.00     0.038 C 
ATOM      4  C   LIG d   1      -5.775  78.154 120.372  0.00  0.00     0.028 C 
ATOM      5  C   LIG d   1      -7.232  78.214 119.925  0.00  0.00    -0.047 C 
ATOM      6  C   LIG d   1      -7.731  76.778 119.646  0.00  0.00     0.091 C 
ENDROOT
BRANCH   1   7
ATOM      7  O   LIG d   1      -7.025  74.627 118.706  0.00  0.00    -0.368 OA
BRANCH   7   8
ATOM      8  C   LIG d   1      -7.513  73.977 117.507  0.00  0.00     0.119 C 
BRANCH   8   9
ATOM      9  C   LIG d   1      -6.961  72.539 117.503  0.00  0.00     0.028 C 
ATOM     10  C   LIG d   1      -7.989  71.516 116.990  0.00  0.00     0.006 C 
ENDBRANCH   8   9
BRANCH   8  11
ATOM     11  C   LIG d   1      -6.944  74.634 116.246  0.00  0.00     0.028 C 
ATOM     12  C   LIG d   1      -5.606  74.018 115.805  0.00  0.00     0.006 C 
ENDBRANCH   8  11
ENDBRANCH   7   8
ENDBRANCH   1   7
BRANCH   6  13
ATOM     13  N   LIG d   1      -9.122  76.752 119.123  0.00  0.00    -0.311 N 
ATOM     14  C   LIG d   1     -10.197  76.662 119.904  0.00  0.00     0.210 C 
ATOM     15  C   LIG d   1     -11.536  76.631 119.161  0.00  0.00     0.109 C 
ATOM     16  O   LIG d   1     -10.170  76.638 121.144  0.00  0.00    -0.276 OA
ATOM     17  H   LIG d   1      -9.237  76.799 118.130  0.00  0.00     0.149 HD
ENDBRANCH   6  13
BRANCH   5  18
ATOM     18  N   LIG d   1      -7.996  78.895 120.987  0.00  0.00     0.381 N 
ATOM     19  H   LIG d   1      -7.721  79.855 121.040  0.00  0.00    -0.090 HD
ATOM     20  H   LIG d   1      -7.788  78.458 121.868  0.00  0.00    -0.090 HD
ATOM     21  H   LIG d   1      -8.972  78.832 120.799  0.00  0.00    -0.090 HD
ENDBRANCH   5  18
BRANCH   3  22
ATOM     22  C   LIG d   1      -3.620  77.771 119.398  0.00  0.00     0.382 C 
ATOM     23  O   LIG d   1      -3.050  78.357 120.349  0.00  0.00    -0.241 OA
ATOM     24  O   LIG d   1      -2.991  77.552 118.345  0.00  0.00    -0.241 OA
ENDBRANCH   3  22
TORSDOF 7
ENDMDL
MODEL 7
REMARK VINA RESULT:      -4.9     14.595     16.648
REMARK  7 active torsions:
REMARK  status: ('A' for Active; 'I' for Inactive)
REMARK    1  A    between atoms: C_2  and  C_3 
REMARK    2  A    between atoms: C_3  and  O_6 
REMARK    3  A    between atoms: C_3  and  C_4 
REMARK    4  A    between atoms: C_7  and  O_6 
REMARK    5  A    between atoms: C_9  and  C_10 
REMARK    6  A    between atoms: N_15  and  C_14 
REMARK    7  A    between atoms: N_20  and  C_19 
REMARK       I    between atoms: C_22  and  N_20 
ROOT
ATOM      1  C   LIG d   1       0.428  89.888 116.832  0.00  0.00     0.161 C 
ATOM      2  C   LIG d   1       1.768  90.231 117.074  0.00  0.00     0.016 C 
ATOM      3  C   LIG d   1       2.182  91.526 117.462  0.00  0.00     0.038 C 
ATOM      4  C   LIG d   1       1.261  92.534 117.783  0.00  0.00     0.028 C 
ATOM      5  C   LIG d   1      -0.077  92.382 117.068  0.00  0.00    -0.047 C 
ATOM      6  C   LIG d   1      -0.602  90.944 117.285  0.00  0.00     0.091 C 
ENDROOT
BRANCH   1   7
ATOM      7  O   LIG d   1       0.134  88.611 117.433  0.00  0.00    -0.368 OA
BRANCH   7   8
ATOM      8  C   LIG d   1      -0.134  87.522 116.517  0.00  0.00     0.119 C 
BRANCH   8   9
ATOM      9  C   LIG d   1      -1.577  87.047 116.771  0.00  0.00     0.028 C 
ATOM     10  C   LIG d   1      -2.043  87.329 118.209  0.00  0.00     0.006 C 
ENDBRANCH   8   9
BRANCH   8  11
ATOM     11  C   LIG d   1       0.751  86.309 116.820  0.00  0.00     0.028 C 
ATOM     12  C   LIG d   1       1.683  86.536 118.021  0.00  0.00     0.006 C 
ENDBRANCH   8  11
ENDBRANCH   7   8
ENDBRANCH   1   7
BRANCH   6  13
ATOM     13  N   LIG d   1      -1.866  90.685 116.548  0.00  0.00    -0.311 N 
ATOM     14  C   LIG d   1      -3.071  90.752 117.113  0.00  0.00     0.210 C 
ATOM     15  C   LIG d   1      -4.241  90.429 116.179  0.00  0.00     0.109 C 
ATOM     16  O   LIG d   1      -3.283  91.081 118.289  0.00  0.00    -0.276 OA
ATOM     17  H   LIG d   1      -1.788  90.442 115.580  0.00  0.00     0.149 HD
ENDBRANCH   6  13
BRANCH   5  18
ATOM     18  N   LIG d   1      -0.986  93.415 117.598  0.00  0.00     0.381 N 
ATOM     19  H   LIG d   1      -0.933  93.433 118.597  0.00  0.00    -0.090 HD
ATOM     20  H   LIG d   1      -1.929  93.185 117.336  0.00  0.00    -0.090 HD
ATOM     21  H   LIG d   1      -0.740  94.308 117.229  0.00  0.00    -0.090 HD
ENDBRANCH   5  18
BRANCH   3  22
ATOM     22  C   LIG d   1       3.534  91.835 117.493  0.00  0.00     0.382 C 
ATOM     23  O   LIG d   1       4.370  90.957 117.813  0.00  0.00    -0.241 OA
ATOM     24  O   LIG d   1       3.923  92.993 117.248  0.00  0.00    -0.241 OA
ENDBRANCH   3  22
TORSDOF 7
ENDMDL
MODEL 8
REMARK VINA RESULT:      -4.9     16.004     18.590
REMARK  7 active torsions:
REMARK  status: ('A' for Active; 'I' for Inactive)
REMARK    1  A    between atoms: C_2  and  C_3 
REMARK    2  A    between atoms: C_3  and  O_6 
REMARK    3  A    between atoms: C_3  and  C_4 
REMARK    4  A    between atoms: C_7  and  O_6 
REMARK    5  A    between atoms: C_9  and  C_10 
REMARK    6  A    between atoms: N_15  and  C_14 
REMARK    7  A    between atoms: N_20  and  C_19 
REMARK       I    between atoms: C_22  and  N_20 
ROOT
ATOM      1  C   LIG d   1      -3.161  93.156 117.414  0.00  0.00     0.161 C 
ATOM      2  C   LIG d   1      -4.557  93.058 117.294  0.00  0.00     0.016 C 
ATOM      3  C   LIG d   1      -5.234  91.840 117.055  0.00  0.00     0.038 C 
ATOM      4  C   LIG d   1      -4.566  90.606 117.070  0.00  0.00     0.028 C 
ATOM      5  C   LIG d   1      -3.094  90.708 116.685  0.00  0.00    -0.047 C 
ATOM      6  C   LIG d   1      -2.426  91.806 117.544  0.00  0.00     0.091 C 
ENDROOT
BRANCH   1   7
ATOM      7  O   LIG d   1      -2.825  94.018 118.519  0.00  0.00    -0.368 OA
BRANCH   7   8
ATOM      8  C   LIG d   1      -3.864  94.218 119.510  0.00  0.00     0.119 C 
BRANCH   8   9
ATOM      9  C   LIG d   1      -3.921  95.726 119.823  0.00  0.00     0.028 C 
ATOM     10  C   LIG d   1      -5.178  96.398 119.247  0.00  0.00     0.006 C 
ENDBRANCH   8   9
BRANCH   8  11
ATOM     11  C   LIG d   1      -3.506  93.541 120.836  0.00  0.00     0.028 C 
ATOM     12  C   LIG d   1      -4.025  92.097 120.928  0.00  0.00     0.006 C 
ENDBRANCH   8  11
ENDBRANCH   7   8
ENDBRANCH   1   7
BRANCH   6  13
ATOM     13  N   LIG d   1      -1.005  92.029 117.173  0.00  0.00    -0.311 N 
ATOM     14  C   LIG d   1      -0.006  92.018 118.055  0.00  0.00     0.210 C 
ATOM     15  C   LIG d   1       1.381  92.291 117.464  0.00  0.00     0.109 C 
ATOM     16  O   LIG d   1      -0.134  91.777 119.264  0.00  0.00    -0.276 OA
ATOM     17  H   LIG d   1      -0.807  92.202 116.207  0.00  0.00     0.149 HD
ENDBRANCH   6  13
BRANCH   5  18
ATOM     18  N   LIG d   1      -2.490  89.376 116.876  0.00  0.00     0.381 N 
ATOM     19  H   LIG d   1      -2.153  89.289 117.814  0.00  0.00    -0.090 HD
ATOM     20  H   LIG d   1      -1.710  89.280 116.250  0.00  0.00    -0.090 HD
ATOM     21  H   LIG d   1      -3.164  88.666 116.690  0.00  0.00    -0.090 HD
ENDBRANCH   5  18
BRANCH   3  22
ATOM     22  C   LIG d   1      -6.588  91.852 116.757  0.00  0.00     0.382 C 
ATOM     23  O   LIG d   1      -7.082  90.944 116.047  0.00  0.00    -0.241 OA
ATOM     24  O   LIG d   1      -7.313  92.785 117.152  0.00  0.00    -0.241 OA
ENDBRANCH   3  22
TORSDOF 7
ENDMDL
MODEL 9
REMARK VINA RESULT:      -4.8      3.172      6.291
REMARK  7 active torsions:
REMARK  status: ('A' for Active; 'I' for Inactive)
REMARK    1  A    between atoms: C_2  and  C_3 
REMARK    2  A    between atoms: C_3  and  O_6 
REMARK    3  A    between atoms: C_3  and  C_4 
REMARK    4  A    between atoms: C_7  and  O_6 
REMARK    5  A    between atoms: C_9  and  C_10 
REMARK    6  A    between atoms: N_15  and  C_14 
REMARK    7  A    between atoms: N_20  and  C_19 
REMARK       I    between atoms: C_22  and  N_20 
ROOT
ATOM      1  C   LIG d   1      -9.041  77.194 120.300  0.00  0.00     0.161 C 
ATOM      2  C   LIG d   1     -10.154  76.336 120.288  0.00  0.00     0.016 C 
ATOM      3  C   LIG d   1     -11.438  76.720 120.740  0.00  0.00     0.038 C 
ATOM      4  C   LIG d   1     -11.733  78.044 121.096  0.00  0.00     0.028 C 
ATOM      5  C   LIG d   1     -10.521  78.820 121.603  0.00  0.00    -0.047 C 
ATOM      6  C   LIG d   1      -9.370  78.675 120.581  0.00  0.00     0.091 C 
ENDROOT
BRANCH   1   7
ATOM      7  O   LIG d   1      -8.314  77.068 119.062  0.00  0.00    -0.368 OA
BRANCH   7   8
ATOM      8  C   LIG d   1      -8.405  75.784 118.397  0.00  0.00     0.119 C 
BRANCH   8   9
ATOM      9  C   LIG d   1      -7.144  74.981 118.768  0.00  0.00     0.028 C 
ATOM     10  C   LIG d   1      -7.471  73.721 119.587  0.00  0.00     0.006 C 
ENDBRANCH   8   9
BRANCH   8  11
ATOM     11  C   LIG d   1      -8.353  75.941 116.874  0.00  0.00     0.028 C 
ATOM     12  C   LIG d   1      -7.077  75.345 116.257  0.00  0.00     0.006 C 
ENDBRANCH   8  11
ENDBRANCH   7   8
ENDBRANCH   1   7
BRANCH   6  13
ATOM     13  N   LIG d   1      -8.119  79.334 121.040  0.00  0.00    -0.311 N 
ATOM     14  C   LIG d   1      -7.804  80.594 120.746  0.00  0.00     0.210 C 
ATOM     15  C   LIG d   1      -6.458  81.070 121.302  0.00  0.00     0.109 C 
ATOM     16  O   LIG d   1      -8.525  81.372 120.105  0.00  0.00    -0.276 OA
ATOM     17  H   LIG d   1      -7.490  78.784 121.592  0.00  0.00     0.149 HD
ENDBRANCH   6  13
BRANCH   5  18
ATOM     18  N   LIG d   1     -10.941  80.219 121.807  0.00  0.00     0.381 N 
ATOM     19  H   LIG d   1     -11.911  80.250 122.047  0.00  0.00    -0.090 HD
ATOM     20  H   LIG d   1     -10.811  80.726 120.949  0.00  0.00    -0.090 HD
ATOM     21  H   LIG d   1     -10.399  80.635 122.532  0.00  0.00    -0.090 HD
ENDBRANCH   5  18
BRANCH   3  22
ATOM     22  C   LIG d   1     -12.432  75.764 120.876  0.00  0.00     0.382 C 
ATOM     23  O   LIG d   1     -12.527  75.106 121.940  0.00  0.00    -0.241 OA
ATOM     24  O   LIG d   1     -13.208  75.521 119.933  0.00  0.00    -0.241 OA
ENDBRANCH   3  22
TORSDOF 7
ENDMDL
