MODEL 1
REMARK VINA RESULT:      -5.9      0.000      0.000
REMARK  7 active torsions:
REMARK  status: ('A' for Active; 'I' for Inactive)
REMARK    1  A    between atoms: C_2  and  C_3 
REMARK    2  A    between atoms: C_3  and  O_6 
REMARK    3  A    between atoms: C_3  and  C_4 
REMARK    4  A    between atoms: C_7  and  O_6 
REMARK    5  A    between atoms: C_9  and  C_10 
REMARK    6  A    between atoms: N_15  and  C_14 
REMARK    7  A    between atoms: N_20  and  C_19 
REMARK       I    between atoms: C_22  and  N_20 
ROOT
ATOM      1  C   LIG d   1      -7.555  76.985 117.661  0.00  0.00     0.161 C 
ATOM      2  C   LIG d   1      -8.794  77.519 118.054  0.00  0.00     0.016 C 
ATOM      3  C   LIG d   1      -8.995  78.889 118.340  0.00  0.00     0.038 C 
ATOM      4  C   LIG d   1      -8.000  79.850 118.104  0.00  0.00     0.028 C 
ATOM      5  C   LIG d   1      -6.584  79.289 118.189  0.00  0.00    -0.047 C 
ATOM      6  C   LIG d   1      -6.486  78.034 117.291  0.00  0.00     0.091 C 
ENDROOT
BRANCH   1   7
ATOM      7  O   LIG d   1      -7.746  76.059 116.573  0.00  0.00    -0.368 OA
BRANCH   7   8
ATOM      8  C   LIG d   1      -7.699  74.652 116.918  0.00  0.00     0.119 C 
BRANCH   8   9
ATOM      9  C   LIG d   1      -6.915  73.929 115.805  0.00  0.00     0.028 C 
ATOM     10  C   LIG d   1      -6.706  72.436 116.110  0.00  0.00     0.006 C 
ENDBRANCH   8   9
BRANCH   8  11
ATOM     11  C   LIG d   1      -9.097  74.028 116.901  0.00  0.00     0.028 C 
ATOM     12  C   LIG d   1     -10.125  74.887 116.147  0.00  0.00     0.006 C 
ENDBRANCH   8  11
ENDBRANCH   7   8
ENDBRANCH   1   7
BRANCH   6  13
ATOM     13  N   LIG d   1      -5.158  77.375 117.382  0.00  0.00    -0.311 N 
ATOM     14  C   LIG d   1      -4.106  77.742 116.652  0.00  0.00     0.210 C 
ATOM     15  C   LIG d   1      -2.837  76.916 116.887  0.00  0.00     0.109 C 
ATOM     16  O   LIG d   1      -4.093  78.693 115.857  0.00  0.00    -0.276 OA
ATOM     17  H   LIG d   1      -5.070  76.612 118.025  0.00  0.00     0.149 HD
ENDBRANCH   6  13
BRANCH   5  18
ATOM     18  N   LIG d   1      -5.655  80.361 117.788  0.00  0.00     0.381 N 
ATOM     19  H   LIG d   1      -5.596  81.048 118.513  0.00  0.00    -0.090 HD
ATOM     20  H   LIG d   1      -6.010  80.806 116.960  0.00  0.00    -0.090 HD
ATOM     21  H   LIG d   1      -4.752  79.981 117.608  0.00  0.00    -0.090 HD
ENDBRANCH   5  18
BRANCH   3  22
ATOM     22  C   LIG d   1     -10.190  79.305 118.905  0.00  0.00     0.382 C 
ATOM     23  O   LIG d   1     -10.374  80.519 119.162  0.00  0.00    -0.241 OA
ATOM     24  O   LIG d   1     -11.071  78.476 119.203  0.00  0.00    -0.241 OA
ENDBRANCH   3  22
TORSDOF 7
ENDMDL
MODEL 2
REMARK VINA RESULT:      -5.8      2.472      6.105
REMARK  7 active torsions:
REMARK  status: ('A' for Active; 'I' for Inactive)
REMARK    1  A    between atoms: C_2  and  C_3 
REMARK    2  A    between atoms: C_3  and  O_6 
REMARK    3  A    between atoms: C_3  and  C_4 
REMARK    4  A    between atoms: C_7  and  O_6 
REMARK    5  A    between atoms: C_9  and  C_10 
REMARK    6  A    between atoms: N_15  and  C_14 
REMARK    7  A    between atoms: N_20  and  C_19 
REMARK       I    between atoms: C_22  and  N_20 
ROOT
ATOM      1  C   LIG d   1      -8.111  77.755 117.978  0.00  0.00     0.161 C 
ATOM      2  C   LIG d   1      -7.866  76.571 117.263  0.00  0.00     0.016 C 
ATOM      3  C   LIG d   1      -8.852  75.587 117.026  0.00  0.00     0.038 C 
ATOM      4  C   LIG d   1     -10.199  75.791 117.360  0.00  0.00     0.028 C 
ATOM      5  C   LIG d   1     -10.394  76.749 118.531  0.00  0.00    -0.047 C 
ATOM      6  C   LIG d   1      -9.601  78.047 118.255  0.00  0.00     0.091 C 
ENDROOT
BRANCH   1   7
ATOM      7  O   LIG d   1      -7.499  78.871 117.301  0.00  0.00    -0.368 OA
BRANCH   7   8
ATOM      8  C   LIG d   1      -6.457  79.565 118.030  0.00  0.00     0.119 C 
BRANCH   8   9
ATOM      9  C   LIG d   1      -6.774  81.072 117.967  0.00  0.00     0.028 C 
ATOM     10  C   LIG d   1      -6.450  81.796 119.285  0.00  0.00     0.006 C 
ENDBRANCH   8   9
BRANCH   8  11
ATOM     11  C   LIG d   1      -5.097  79.407 117.344  0.00  0.00     0.028 C 
ATOM     12  C   LIG d   1      -4.387  78.099 117.724  0.00  0.00     0.006 C 
ENDBRANCH   8  11
ENDBRANCH   7   8
ENDBRANCH   1   7
BRANCH   6  13
ATOM     13  N   LIG d   1      -9.669  79.005 119.389  0.00  0.00    -0.311 N 
ATOM     14  C   LIG d   1     -10.110  80.255 119.267  0.00  0.00     0.210 C 
ATOM     15  C   LIG d   1     -10.078  81.081 120.556  0.00  0.00     0.109 C 
ATOM     16  O   LIG d   1     -10.555  80.749 118.220  0.00  0.00    -0.276 OA
ATOM     17  H   LIG d   1      -9.356  78.677 120.282  0.00  0.00     0.149 HD
ENDBRANCH   6  13
BRANCH   5  18
ATOM     18  N   LIG d   1     -11.843  76.978 118.683  0.00  0.00     0.381 N 
ATOM     19  H   LIG d   1     -12.068  77.916 118.415  0.00  0.00    -0.090 HD
ATOM     20  H   LIG d   1     -12.092  76.858 119.649  0.00  0.00    -0.090 HD
ATOM     21  H   LIG d   1     -12.351  76.334 118.118  0.00  0.00    -0.090 HD
ENDBRANCH   5  18
BRANCH   3  22
ATOM     22  C   LIG d   1      -8.487  74.364 116.483  0.00  0.00     0.382 C 
ATOM     23  O   LIG d   1      -9.182  73.344 116.710  0.00  0.00    -0.241 OA
ATOM     24  O   LIG d   1      -7.447  74.259 115.806  0.00  0.00    -0.241 OA
ENDBRANCH   3  22
TORSDOF 7
ENDMDL
MODEL 3
REMARK VINA RESULT:      -5.7      1.640      4.931
REMARK  7 active torsions:
REMARK  status: ('A' for Active; 'I' for Inactive)
REMARK    1  A    between atoms: C_2  and  C_3 
REMARK    2  A    between atoms: C_3  and  O_6 
REMARK    3  A    between atoms: C_3  and  C_4 
REMARK    4  A    between atoms: C_7  and  O_6 
REMARK    5  A    between atoms: C_9  and  C_10 
REMARK    6  A    between atoms: N_15  and  C_14 
REMARK    7  A    between atoms: N_20  and  C_19 
REMARK       I    between atoms: C_22  and  N_20 
ROOT
ATOM      1  C   LIG d   1      -7.176  77.161 116.971  0.00  0.00     0.161 C 
ATOM      2  C   LIG d   1      -5.955  76.649 116.502  0.00  0.00     0.016 C 
ATOM      3  C   LIG d   1      -4.705  77.258 116.761  0.00  0.00     0.038 C 
ATOM      4  C   LIG d   1      -4.578  78.344 117.640  0.00  0.00     0.028 C 
ATOM      5  C   LIG d   1      -5.837  79.199 117.733  0.00  0.00    -0.047 C 
ATOM      6  C   LIG d   1      -7.046  78.282 118.024  0.00  0.00     0.091 C 
ENDROOT
BRANCH   1   7
ATOM      7  O   LIG d   1      -7.993  76.088 117.480  0.00  0.00    -0.368 OA
BRANCH   7   8
ATOM      8  C   LIG d   1      -8.792  75.376 116.503  0.00  0.00     0.119 C 
BRANCH   8   9
ATOM      9  C   LIG d   1     -10.195  75.179 117.108  0.00  0.00     0.028 C 
ATOM     10  C   LIG d   1     -10.591  76.322 118.058  0.00  0.00     0.006 C 
ENDBRANCH   8   9
BRANCH   8  11
ATOM     11  C   LIG d   1      -8.251  73.963 116.263  0.00  0.00     0.028 C 
ATOM     12  C   LIG d   1      -9.276  72.868 116.601  0.00  0.00     0.006 C 
ENDBRANCH   8  11
ENDBRANCH   7   8
ENDBRANCH   1   7
BRANCH   6  13
ATOM     13  N   LIG d   1      -8.331  79.028 118.047  0.00  0.00    -0.311 N 
ATOM     14  C   LIG d   1      -8.840  79.578 119.148  0.00  0.00     0.210 C 
ATOM     15  C   LIG d   1     -10.185  80.285 118.956  0.00  0.00     0.109 C 
ATOM     16  O   LIG d   1      -8.289  79.575 120.259  0.00  0.00    -0.276 OA
ATOM     17  H   LIG d   1      -8.829  79.106 117.182  0.00  0.00     0.149 HD
ENDBRANCH   6  13
BRANCH   5  18
ATOM     18  N   LIG d   1      -5.612  80.210 118.784  0.00  0.00     0.381 N 
ATOM     19  H   LIG d   1      -5.513  81.114 118.368  0.00  0.00    -0.090 HD
ATOM     20  H   LIG d   1      -4.760  79.991 119.269  0.00  0.00    -0.090 HD
ATOM     21  H   LIG d   1      -6.376  80.213 119.423  0.00  0.00    -0.090 HD
ENDBRANCH   5  18
BRANCH   3  22
ATOM     22  C   LIG d   1      -3.571  76.804 116.106  0.00  0.00     0.382 C 
ATOM     23  O   LIG d   1      -3.464  75.590 115.805  0.00  0.00    -0.241 OA
ATOM     24  O   LIG d   1      -2.634  77.584 115.851  0.00  0.00    -0.241 OA
ENDBRANCH   3  22
TORSDOF 7
ENDMDL
MODEL 4
REMARK VINA RESULT:      -5.3     14.504     17.116
REMARK  7 active torsions:
REMARK  status: ('A' for Active; 'I' for Inactive)
REMARK    1  A    between atoms: C_2  and  C_3 
REMARK    2  A    between atoms: C_3  and  O_6 
REMARK    3  A    between atoms: C_3  and  C_4 
REMARK    4  A    between atoms: C_7  and  O_6 
REMARK    5  A    between atoms: C_9  and  C_10 
REMARK    6  A    between atoms: N_15  and  C_14 
REMARK    7  A    between atoms: N_20  and  C_19 
REMARK       I    between atoms: C_22  and  N_20 
ROOT
ATOM      1  C   LIG d   1      -5.466  93.256 119.067  0.00  0.00     0.161 C 
ATOM      2  C   LIG d   1      -5.578  92.265 118.077  0.00  0.00     0.016 C 
ATOM      3  C   LIG d   1      -6.621  92.233 117.123  0.00  0.00     0.038 C 
ATOM      4  C   LIG d   1      -7.545  93.282 116.998  0.00  0.00     0.028 C 
ATOM      5  C   LIG d   1      -7.771  94.047 118.297  0.00  0.00    -0.047 C 
ATOM      6  C   LIG d   1      -6.401  94.469 118.876  0.00  0.00     0.091 C 
ENDROOT
BRANCH   1   7
ATOM      7  O   LIG d   1      -4.096  93.691 119.169  0.00  0.00    -0.368 OA
BRANCH   7   8
ATOM      8  C   LIG d   1      -3.094  92.758 118.695  0.00  0.00     0.119 C 
BRANCH   8   9
ATOM      9  C   LIG d   1      -2.618  91.935 119.907  0.00  0.00     0.028 C 
ATOM     10  C   LIG d   1      -2.337  90.466 119.545  0.00  0.00     0.006 C 
ENDBRANCH   8   9
BRANCH   8  11
ATOM     11  C   LIG d   1      -1.848  93.490 118.187  0.00  0.00     0.028 C 
ATOM     12  C   LIG d   1      -1.553  94.779 118.970  0.00  0.00     0.006 C 
ENDBRANCH   8  11
ENDBRANCH   7   8
ENDBRANCH   1   7
BRANCH   6  13
ATOM     13  N   LIG d   1      -6.527  95.150 120.191  0.00  0.00    -0.311 N 
ATOM     14  C   LIG d   1      -6.606  96.473 120.326  0.00  0.00     0.210 C 
ATOM     15  C   LIG d   1      -6.710  96.970 121.772  0.00  0.00     0.109 C 
ATOM     16  O   LIG d   1      -6.632  97.280 119.385  0.00  0.00    -0.276 OA
ATOM     17  H   LIG d   1      -6.545  94.569 121.006  0.00  0.00     0.149 HD
ENDBRANCH   6  13
BRANCH   5  18
ATOM     18  N   LIG d   1      -8.647  95.194 117.992  0.00  0.00     0.381 N 
ATOM     19  H   LIG d   1      -8.393  95.976 118.562  0.00  0.00    -0.090 HD
ATOM     20  H   LIG d   1      -9.597  94.943 118.206  0.00  0.00    -0.090 HD
ATOM     21  H   LIG d   1      -8.569  95.436 117.029  0.00  0.00    -0.090 HD
ENDBRANCH   5  18
BRANCH   3  22
ATOM     22  C   LIG d   1      -6.771  91.123 116.306  0.00  0.00     0.382 C 
ATOM     23  O   LIG d   1      -7.913  90.643 116.103  0.00  0.00    -0.241 OA
ATOM     24  O   LIG d   1      -5.775  90.567 115.805  0.00  0.00    -0.241 OA
ENDBRANCH   3  22
TORSDOF 7
ENDMDL
MODEL 5
REMARK VINA RESULT:      -5.0      2.217      5.407
REMARK  7 active torsions:
REMARK  status: ('A' for Active; 'I' for Inactive)
REMARK    1  A    between atoms: C_2  and  C_3 
REMARK    2  A    between atoms: C_3  and  O_6 
REMARK    3  A    between atoms: C_3  and  C_4 
REMARK    4  A    between atoms: C_7  and  O_6 
REMARK    5  A    between atoms: C_9  and  C_10 
REMARK    6  A    between atoms: N_15  and  C_14 
REMARK    7  A    between atoms: N_20  and  C_19 
REMARK       I    between atoms: C_22  and  N_20 
ROOT
ATOM      1  C   LIG d   1      -8.778  78.711 118.402  0.00  0.00     0.161 C 
ATOM      2  C   LIG d   1      -9.259  77.475 117.938  0.00  0.00     0.016 C 
ATOM      3  C   LIG d   1      -8.434  76.493 117.345  0.00  0.00     0.038 C 
ATOM      4  C   LIG d   1      -7.037  76.618 117.313  0.00  0.00     0.028 C 
ATOM      5  C   LIG d   1      -6.559  78.066 117.312  0.00  0.00    -0.047 C 
ATOM      6  C   LIG d   1      -7.241  78.820 118.477  0.00  0.00     0.091 C 
ENDROOT
BRANCH   1   7
ATOM      7  O   LIG d   1      -9.365  79.013 119.684  0.00  0.00    -0.368 OA
BRANCH   7   8
ATOM      8  C   LIG d   1     -10.589  79.788 119.658  0.00  0.00     0.119 C 
BRANCH   8   9
ATOM      9  C   LIG d   1     -10.197  81.267 119.479  0.00  0.00     0.028 C 
ATOM     10  C   LIG d   1     -10.537  81.798 118.076  0.00  0.00     0.006 C 
ENDBRANCH   8   9
BRANCH   8  11
ATOM     11  C   LIG d   1     -11.319  79.722 121.003  0.00  0.00     0.028 C 
ATOM     12  C   LIG d   1     -11.363  78.301 121.588  0.00  0.00     0.006 C 
ENDBRANCH   8  11
ENDBRANCH   7   8
ENDBRANCH   1   7
BRANCH   6  13
ATOM     13  N   LIG d   1      -6.893  80.265 118.498  0.00  0.00    -0.311 N 
ATOM     14  C   LIG d   1      -6.543  80.918 119.604  0.00  0.00     0.210 C 
ATOM     15  C   LIG d   1      -6.244  82.408 119.408  0.00  0.00     0.109 C 
ATOM     16  O   LIG d   1      -6.420  80.399 120.724  0.00  0.00    -0.276 OA
ATOM     17  H   LIG d   1      -6.936  80.757 117.627  0.00  0.00     0.149 HD
ENDBRANCH   6  13
BRANCH   5  18
ATOM     18  N   LIG d   1      -5.088  78.050 117.417  0.00  0.00     0.381 N 
ATOM     19  H   LIG d   1      -4.803  77.354 118.077  0.00  0.00    -0.090 HD
ATOM     20  H   LIG d   1      -4.775  78.946 117.748  0.00  0.00    -0.090 HD
ATOM     21  H   LIG d   1      -4.685  77.858 116.526  0.00  0.00    -0.090 HD
ENDBRANCH   5  18
BRANCH   3  22
ATOM     22  C   LIG d   1      -9.010  75.386 116.739  0.00  0.00     0.382 C 
ATOM     23  O   LIG d   1     -10.244  75.187 116.842  0.00  0.00    -0.241 OA
ATOM     24  O   LIG d   1      -8.304  74.561 116.129  0.00  0.00    -0.241 OA
ENDBRANCH   3  22
TORSDOF 7
ENDMDL
MODEL 6
REMARK VINA RESULT:      -5.0      2.089      5.027
REMARK  7 active torsions:
REMARK  status: ('A' for Active; 'I' for Inactive)
REMARK    1  A    between atoms: C_2  and  C_3 
REMARK    2  A    between atoms: C_3  and  O_6 
REMARK    3  A    between atoms: C_3  and  C_4 
REMARK    4  A    between atoms: C_7  and  O_6 
REMARK    5  A    between atoms: C_9  and  C_10 
REMARK    6  A    between atoms: N_15  and  C_14 
REMARK    7  A    between atoms: N_20  and  C_19 
REMARK       I    between atoms: C_22  and  N_20 
ROOT
ATOM      1  C   LIG d   1      -7.190  78.737 118.042  0.00  0.00     0.161 C 
ATOM      2  C   LIG d   1      -8.464  78.175 118.226  0.00  0.00     0.016 C 
ATOM      3  C   LIG d   1      -8.834  76.904 117.730  0.00  0.00     0.038 C 
ATOM      4  C   LIG d   1      -7.900  76.038 117.142  0.00  0.00     0.028 C 
ATOM      5  C   LIG d   1      -6.730  76.763 116.486  0.00  0.00    -0.047 C 
ATOM      6  C   LIG d   1      -6.125  77.760 117.500  0.00  0.00     0.091 C 
ENDROOT
BRANCH   1   7
ATOM      7  O   LIG d   1      -6.738  79.338 119.272  0.00  0.00    -0.368 OA
BRANCH   7   8
ATOM      8  C   LIG d   1      -6.629  80.783 119.272  0.00  0.00     0.119 C 
BRANCH   8   9
ATOM      9  C   LIG d   1      -7.072  81.281 117.883  0.00  0.00     0.028 C 
ATOM     10  C   LIG d   1      -8.198  82.326 117.965  0.00  0.00     0.006 C 
ENDBRANCH   8   9
BRANCH   8  11
ATOM     11  C   LIG d   1      -5.172  81.232 119.418  0.00  0.00     0.028 C 
ATOM     12  C   LIG d   1      -5.037  82.609 120.088  0.00  0.00     0.006 C 
ENDBRANCH   8  11
ENDBRANCH   7   8
ENDBRANCH   1   7
BRANCH   6  13
ATOM     13  N   LIG d   1      -5.029  78.572 116.911  0.00  0.00    -0.311 N 
ATOM     14  C   LIG d   1      -3.743  78.233 116.987  0.00  0.00     0.210 C 
ATOM     15  C   LIG d   1      -2.773  79.221 116.330  0.00  0.00     0.109 C 
ATOM     16  O   LIG d   1      -3.316  77.192 117.508  0.00  0.00    -0.276 OA
ATOM     17  H   LIG d   1      -5.288  79.418 116.442  0.00  0.00     0.149 HD
ENDBRANCH   6  13
BRANCH   5  18
ATOM     18  N   LIG d   1      -5.767  75.740 116.036  0.00  0.00     0.381 N 
ATOM     19  H   LIG d   1      -5.805  75.654 115.040  0.00  0.00    -0.090 HD
ATOM     20  H   LIG d   1      -6.021  74.855 116.438  0.00  0.00    -0.090 HD
ATOM     21  H   LIG d   1      -4.846  75.991 116.320  0.00  0.00    -0.090 HD
ENDBRANCH   5  18
BRANCH   3  22
ATOM     22  C   LIG d   1     -10.160  76.504 117.785  0.00  0.00     0.382 C 
ATOM     23  O   LIG d   1     -10.990  77.172 118.448  0.00  0.00    -0.241 OA
ATOM     24  O   LIG d   1     -10.529  75.459 117.216  0.00  0.00    -0.241 OA
ENDBRANCH   3  22
TORSDOF 7
ENDMDL
MODEL 7
REMARK VINA RESULT:      -5.0      3.251      6.045
REMARK  7 active torsions:
REMARK  status: ('A' for Active; 'I' for Inactive)
REMARK    1  A    between atoms: C_2  and  C_3 
REMARK    2  A    between atoms: C_3  and  O_6 
REMARK    3  A    between atoms: C_3  and  C_4 
REMARK    4  A    between atoms: C_7  and  O_6 
REMARK    5  A    between atoms: C_9  and  C_10 
REMARK    6  A    between atoms: N_15  and  C_14 
REMARK    7  A    between atoms: N_20  and  C_19 
REMARK       I    between atoms: C_22  and  N_20 
ROOT
ATOM      1  C   LIG d   1      -6.916  80.813 118.721  0.00  0.00     0.161 C 
ATOM      2  C   LIG d   1      -5.623  80.753 119.266  0.00  0.00     0.016 C 
ATOM      3  C   LIG d   1      -4.978  81.861 119.862  0.00  0.00     0.038 C 
ATOM      4  C   LIG d   1      -5.646  83.073 120.091  0.00  0.00     0.028 C 
ATOM      5  C   LIG d   1      -6.779  83.336 119.105  0.00  0.00    -0.047 C 
ATOM      6  C   LIG d   1      -7.702  82.097 119.060  0.00  0.00     0.091 C 
ENDROOT
BRANCH   1   7
ATOM      7  O   LIG d   1      -7.667  79.647 119.114  0.00  0.00    -0.368 OA
BRANCH   7   8
ATOM      8  C   LIG d   1      -8.086  78.767 118.042  0.00  0.00     0.119 C 
BRANCH   8   9
ATOM      9  C   LIG d   1      -9.498  78.256 118.388  0.00  0.00     0.028 C 
ATOM     10  C   LIG d   1      -9.717  76.797 117.953  0.00  0.00     0.006 C 
ENDBRANCH   8   9
BRANCH   8  11
ATOM     11  C   LIG d   1      -7.207  77.515 117.973  0.00  0.00     0.028 C 
ATOM     12  C   LIG d   1      -6.132  77.602 116.878  0.00  0.00     0.006 C 
ENDBRANCH   8  11
ENDBRANCH   7   8
ENDBRANCH   1   7
BRANCH   6  13
ATOM     13  N   LIG d   1      -8.790  82.237 118.057  0.00  0.00    -0.311 N 
ATOM     14  C   LIG d   1     -10.068  81.968 118.319  0.00  0.00     0.210 C 
ATOM     15  C   LIG d   1     -11.025  82.159 117.138  0.00  0.00     0.109 C 
ATOM     16  O   LIG d   1     -10.505  81.619 119.427  0.00  0.00    -0.276 OA
ATOM     17  H   LIG d   1      -8.529  82.544 117.141  0.00  0.00     0.149 HD
ENDBRANCH   6  13
BRANCH   5  18
ATOM     18  N   LIG d   1      -7.475  84.561 119.542  0.00  0.00     0.381 N 
ATOM     19  H   LIG d   1      -6.985  85.366 119.206  0.00  0.00    -0.090 HD
ATOM     20  H   LIG d   1      -7.481  84.591 120.546  0.00  0.00    -0.090 HD
ATOM     21  H   LIG d   1      -8.409  84.563 119.196  0.00  0.00    -0.090 HD
ENDBRANCH   5  18
BRANCH   3  22
ATOM     22  C   LIG d   1      -3.636  81.774 120.201  0.00  0.00     0.382 C 
ATOM     23  O   LIG d   1      -3.221  80.796 120.870  0.00  0.00    -0.241 OA
ATOM     24  O   LIG d   1      -2.845  82.682 119.886  0.00  0.00    -0.241 OA
ENDBRANCH   3  22
TORSDOF 7
ENDMDL
MODEL 8
REMARK VINA RESULT:      -4.9      3.100      5.070
REMARK  7 active torsions:
REMARK  status: ('A' for Active; 'I' for Inactive)
REMARK    1  A    between atoms: C_2  and  C_3 
REMARK    2  A    between atoms: C_3  and  O_6 
REMARK    3  A    between atoms: C_3  and  C_4 
REMARK    4  A    between atoms: C_7  and  O_6 
REMARK    5  A    between atoms: C_9  and  C_10 
REMARK    6  A    between atoms: N_15  and  C_14 
REMARK    7  A    between atoms: N_20  and  C_19 
REMARK       I    between atoms: C_22  and  N_20 
ROOT
ATOM      1  C   LIG d   1      -7.937  79.595 118.802  0.00  0.00     0.161 C 
ATOM      2  C   LIG d   1      -8.863  78.544 118.698  0.00  0.00     0.016 C 
ATOM      3  C   LIG d   1     -10.184  78.618 119.196  0.00  0.00     0.038 C 
ATOM      4  C   LIG d   1     -10.719  79.812 119.702  0.00  0.00     0.028 C 
ATOM      5  C   LIG d   1      -9.667  80.747 120.288  0.00  0.00    -0.047 C 
ATOM      6  C   LIG d   1      -8.537  80.943 119.251  0.00  0.00     0.091 C 
ENDROOT
BRANCH   1   7
ATOM      7  O   LIG d   1      -7.232  79.751 117.555  0.00  0.00    -0.368 OA
BRANCH   7   8
ATOM      8  C   LIG d   1      -5.871  79.254 117.525  0.00  0.00     0.119 C 
BRANCH   8   9
ATOM      9  C   LIG d   1      -5.922  77.795 117.031  0.00  0.00     0.028 C 
ATOM     10  C   LIG d   1      -4.525  77.235 116.712  0.00  0.00     0.006 C 
ENDBRANCH   8   9
BRANCH   8  11
ATOM     11  C   LIG d   1      -5.273  79.184 118.933  0.00  0.00     0.028 C 
ATOM     12  C   LIG d   1      -4.179  80.238 119.169  0.00  0.00     0.006 C 
ENDBRANCH   8  11
ENDBRANCH   7   8
ENDBRANCH   1   7
BRANCH   6  13
ATOM     13  N   LIG d   1      -7.425  81.778 119.776  0.00  0.00    -0.311 N 
ATOM     14  C   LIG d   1      -7.361  83.099 119.614  0.00  0.00     0.210 C 
ATOM     15  C   LIG d   1      -6.119  83.764 120.217  0.00  0.00     0.109 C 
ATOM     16  O   LIG d   1      -8.229  83.786 119.057  0.00  0.00    -0.276 OA
ATOM     17  H   LIG d   1      -6.693  81.306 120.269  0.00  0.00     0.149 HD
ENDBRANCH   6  13
BRANCH   5  18
ATOM     18  N   LIG d   1     -10.344  82.007 120.651  0.00  0.00     0.381 N 
ATOM     19  H   LIG d   1     -10.458  82.577 119.837  0.00  0.00    -0.090 HD
ATOM     20  H   LIG d   1      -9.770  82.506 121.308  0.00  0.00    -0.090 HD
ATOM     21  H   LIG d   1     -11.233  81.812 121.056  0.00  0.00    -0.090 HD
ENDBRANCH   5  18
BRANCH   3  22
ATOM     22  C   LIG d   1     -10.972  77.477 119.228  0.00  0.00     0.382 C 
ATOM     23  O   LIG d   1     -11.203  76.846 118.169  0.00  0.00    -0.241 OA
ATOM     24  O   LIG d   1     -11.490  77.097 120.295  0.00  0.00    -0.241 OA
ENDBRANCH   3  22
TORSDOF 7
ENDMDL
MODEL 9
REMARK VINA RESULT:      -4.9     14.646     16.679
REMARK  7 active torsions:
REMARK  status: ('A' for Active; 'I' for Inactive)
REMARK    1  A    between atoms: C_2  and  C_3 
REMARK    2  A    between atoms: C_3  and  O_6 
REMARK    3  A    between atoms: C_3  and  C_4 
REMARK    4  A    between atoms: C_7  and  O_6 
REMARK    5  A    between atoms: C_9  and  C_10 
REMARK    6  A    between atoms: N_15  and  C_14 
REMARK    7  A    between atoms: N_20  and  C_19 
REMARK       I    between atoms: C_22  and  N_20 
ROOT
ATOM      1  C   LIG d   1      -4.112  92.813 118.858  0.00  0.00     0.161 C 
ATOM      2  C   LIG d   1      -4.679  92.104 117.786  0.00  0.00     0.016 C 
ATOM      3  C   LIG d   1      -6.028  92.246 117.386  0.00  0.00     0.038 C 
ATOM      4  C   LIG d   1      -6.866  93.226 117.938  0.00  0.00     0.028 C 
ATOM      5  C   LIG d   1      -6.485  93.616 119.362  0.00  0.00    -0.047 C 
ATOM      6  C   LIG d   1      -4.980  93.968 119.401  0.00  0.00     0.091 C 
ENDROOT
BRANCH   1   7
ATOM      7  O   LIG d   1      -2.808  93.300 118.485  0.00  0.00    -0.368 OA
BRANCH   7   8
ATOM      8  C   LIG d   1      -1.692  92.786 119.254  0.00  0.00     0.119 C 
BRANCH   8   9
ATOM      9  C   LIG d   1      -0.705  92.140 118.263  0.00  0.00     0.028 C 
ATOM     10  C   LIG d   1      -0.762  90.604 118.296  0.00  0.00     0.006 C 
ENDBRANCH   8   9
BRANCH   8  11
ATOM     11  C   LIG d   1      -2.133  91.653 120.185  0.00  0.00     0.028 C 
ATOM     12  C   LIG d   1      -1.813  91.936 121.662  0.00  0.00     0.006 C 
ENDBRANCH   8  11
ENDBRANCH   7   8
ENDBRANCH   1   7
BRANCH   6  13
ATOM     13  N   LIG d   1      -4.506  94.279 120.774  0.00  0.00    -0.311 N 
ATOM     14  C   LIG d   1      -3.803  95.369 121.077  0.00  0.00     0.210 C 
ATOM     15  C   LIG d   1      -3.397  95.488 122.550  0.00  0.00     0.109 C 
ATOM     16  O   LIG d   1      -3.504  96.264 120.273  0.00  0.00    -0.276 OA
ATOM     17  H   LIG d   1      -4.731  93.621 121.495  0.00  0.00     0.149 HD
ENDBRANCH   6  13
BRANCH   5  18
ATOM     18  N   LIG d   1      -7.352  94.740 119.764  0.00  0.00     0.381 N 
ATOM     19  H   LIG d   1      -7.801  94.528 120.632  0.00  0.00    -0.090 HD
ATOM     20  H   LIG d   1      -8.062  94.868 119.065  0.00  0.00    -0.090 HD
ATOM     21  H   LIG d   1      -6.812  95.572 119.855  0.00  0.00    -0.090 HD
ENDBRANCH   5  18
BRANCH   3  22
ATOM     22  C   LIG d   1      -6.562  91.374 116.449  0.00  0.00     0.382 C 
ATOM     23  O   LIG d   1      -5.820  90.547 115.868  0.00  0.00    -0.241 OA
ATOM     24  O   LIG d   1      -7.769  91.435 116.145  0.00  0.00    -0.241 OA
ENDBRANCH   3  22
TORSDOF 7
ENDMDL
