MODEL 1
REMARK VINA RESULT:      -5.0      0.000      0.000
REMARK  7 active torsions:
REMARK  status: ('A' for Active; 'I' for Inactive)
REMARK    1  A    between atoms: C_2  and  C_3 
REMARK    2  A    between atoms: C_3  and  O_6 
REMARK    3  A    between atoms: C_3  and  C_4 
REMARK    4  A    between atoms: C_7  and  O_6 
REMARK    5  A    between atoms: C_9  and  C_10 
REMARK    6  A    between atoms: N_15  and  C_14 
REMARK    7  A    between atoms: N_20  and  C_19 
REMARK       I    between atoms: C_22  and  N_20 
ROOT
ATOM      1  C   LIG d   1      -6.896  77.203 117.051  0.00  0.00     0.161 C 
ATOM      2  C   LIG d   1      -7.516  75.983 116.735  0.00  0.00     0.016 C 
ATOM      3  C   LIG d   1      -8.822  75.642 117.155  0.00  0.00     0.038 C 
ATOM      4  C   LIG d   1      -9.659  76.566 117.797  0.00  0.00     0.028 C 
ATOM      5  C   LIG d   1      -8.899  77.631 118.579  0.00  0.00    -0.047 C 
ATOM      6  C   LIG d   1      -7.835  78.268 117.656  0.00  0.00     0.091 C 
ENDROOT
BRANCH   1   7
ATOM      7  O   LIG d   1      -6.227  77.728 115.887  0.00  0.00    -0.368 OA
BRANCH   7   8
ATOM      8  C   LIG d   1      -4.780  77.650 115.894  0.00  0.00     0.119 C 
BRANCH   8   9
ATOM      9  C   LIG d   1      -4.368  76.811 117.118  0.00  0.00     0.028 C 
ATOM     10  C   LIG d   1      -3.663  75.503 116.723  0.00  0.00     0.006 C 
ENDBRANCH   8   9
BRANCH   8  11
ATOM     11  C   LIG d   1      -4.149  79.028 116.115  0.00  0.00     0.028 C 
ATOM     12  C   LIG d   1      -3.419  79.140 117.463  0.00  0.00     0.006 C 
ENDBRANCH   8  11
ENDBRANCH   7   8
ENDBRANCH   1   7
BRANCH   6  13
ATOM     13  N   LIG d   1      -6.989  79.262 118.367  0.00  0.00    -0.311 N 
ATOM     14  C   LIG d   1      -6.959  80.556 118.055  0.00  0.00     0.210 C 
ATOM     15  C   LIG d   1      -6.003  81.404 118.900  0.00  0.00     0.109 C 
ATOM     16  O   LIG d   1      -7.658  81.089 117.179  0.00  0.00    -0.276 OA
ATOM     17  H   LIG d   1      -6.413  78.921 119.112  0.00  0.00     0.149 HD
ENDBRANCH   6  13
BRANCH   5  18
ATOM     18  N   LIG d   1      -9.886  78.606 119.081  0.00  0.00     0.381 N 
ATOM     19  H   LIG d   1      -9.981  79.358 118.429  0.00  0.00    -0.090 HD
ATOM     20  H   LIG d   1      -9.556  78.983 119.953  0.00  0.00    -0.090 HD
ATOM     21  H   LIG d   1     -10.766  78.160 119.216  0.00  0.00    -0.090 HD
ENDBRANCH   5  18
BRANCH   3  22
ATOM     22  C   LIG d   1      -9.288  74.350 116.968  0.00  0.00     0.382 C 
ATOM     23  O   LIG d   1      -8.504  73.377 117.086  0.00  0.00    -0.241 OA
ATOM     24  O   LIG d   1     -10.472  74.147 116.640  0.00  0.00    -0.241 OA
ENDBRANCH   3  22
TORSDOF 7
ENDMDL
MODEL 2
REMARK VINA RESULT:      -5.0      2.060      3.982
REMARK  7 active torsions:
REMARK  status: ('A' for Active; 'I' for Inactive)
REMARK    1  A    between atoms: C_2  and  C_3 
REMARK    2  A    between atoms: C_3  and  O_6 
REMARK    3  A    between atoms: C_3  and  C_4 
REMARK    4  A    between atoms: C_7  and  O_6 
REMARK    5  A    between atoms: C_9  and  C_10 
REMARK    6  A    between atoms: N_15  and  C_14 
REMARK    7  A    between atoms: N_20  and  C_19 
REMARK       I    between atoms: C_22  and  N_20 
ROOT
ATOM      1  C   LIG d   1      -7.212  78.277 117.721  0.00  0.00     0.161 C 
ATOM      2  C   LIG d   1      -8.458  77.646 117.875  0.00  0.00     0.016 C 
ATOM      3  C   LIG d   1      -8.739  76.349 117.387  0.00  0.00     0.038 C 
ATOM      4  C   LIG d   1      -7.740  75.530 116.842  0.00  0.00     0.028 C 
ATOM      5  C   LIG d   1      -6.593  76.311 116.210  0.00  0.00    -0.047 C 
ATOM      6  C   LIG d   1      -6.077  77.355 117.226  0.00  0.00     0.091 C 
ENDROOT
BRANCH   1   7
ATOM      7  O   LIG d   1      -6.834  78.920 118.954  0.00  0.00    -0.368 OA
BRANCH   7   8
ATOM      8  C   LIG d   1      -6.787  80.368 118.930  0.00  0.00     0.119 C 
BRANCH   8   9
ATOM      9  C   LIG d   1      -7.175  80.820 117.508  0.00  0.00     0.028 C 
ATOM     10  C   LIG d   1      -7.962  82.141 117.507  0.00  0.00     0.006 C 
ENDBRANCH   8   9
BRANCH   8  11
ATOM     11  C   LIG d   1      -5.361  80.883 119.144  0.00  0.00     0.028 C 
ATOM     12  C   LIG d   1      -4.475  79.885 119.906  0.00  0.00     0.006 C 
ENDBRANCH   8  11
ENDBRANCH   7   8
ENDBRANCH   1   7
BRANCH   6  13
ATOM     13  N   LIG d   1      -5.011  78.221 116.659  0.00  0.00    -0.311 N 
ATOM     14  C   LIG d   1      -3.710  77.983 116.821  0.00  0.00     0.210 C 
ATOM     15  C   LIG d   1      -2.779  79.010 116.170  0.00  0.00     0.109 C 
ATOM     16  O   LIG d   1      -3.239  77.001 117.415  0.00  0.00    -0.276 OA
ATOM     17  H   LIG d   1      -5.304  79.022 116.135  0.00  0.00     0.149 HD
ENDBRANCH   6  13
BRANCH   5  18
ATOM     18  N   LIG d   1      -5.560  75.339 115.805  0.00  0.00     0.381 N 
ATOM     19  H   LIG d   1      -4.967  75.132 116.584  0.00  0.00    -0.090 HD
ATOM     20  H   LIG d   1      -4.997  75.746 115.079  0.00  0.00    -0.090 HD
ATOM     21  H   LIG d   1      -5.990  74.503 115.474  0.00  0.00    -0.090 HD
ENDBRANCH   5  18
BRANCH   3  22
ATOM     22  C   LIG d   1     -10.042  75.875 117.408  0.00  0.00     0.382 C 
ATOM     23  O   LIG d   1     -10.925  76.497 118.045  0.00  0.00    -0.241 OA
ATOM     24  O   LIG d   1     -10.335  74.809 116.833  0.00  0.00    -0.241 OA
ENDBRANCH   3  22
TORSDOF 7
ENDMDL
MODEL 3
REMARK VINA RESULT:      -4.9     13.991     16.142
REMARK  7 active torsions:
REMARK  status: ('A' for Active; 'I' for Inactive)
REMARK    1  A    between atoms: C_2  and  C_3 
REMARK    2  A    between atoms: C_3  and  O_6 
REMARK    3  A    between atoms: C_3  and  C_4 
REMARK    4  A    between atoms: C_7  and  O_6 
REMARK    5  A    between atoms: C_9  and  C_10 
REMARK    6  A    between atoms: N_15  and  C_14 
REMARK    7  A    between atoms: N_20  and  C_19 
REMARK       I    between atoms: C_22  and  N_20 
ROOT
ATOM      1  C   LIG d   1      -5.463  92.944 118.760  0.00  0.00     0.161 C 
ATOM      2  C   LIG d   1      -5.778  91.949 117.820  0.00  0.00     0.016 C 
ATOM      3  C   LIG d   1      -6.856  92.052 116.910  0.00  0.00     0.038 C 
ATOM      4  C   LIG d   1      -7.603  93.232 116.776  0.00  0.00     0.028 C 
ATOM      5  C   LIG d   1      -7.643  94.071 118.049  0.00  0.00    -0.047 C 
ATOM      6  C   LIG d   1      -6.198  94.285 118.555  0.00  0.00     0.091 C 
ENDROOT
BRANCH   1   7
ATOM      7  O   LIG d   1      -4.037  93.153 118.790  0.00  0.00    -0.368 OA
BRANCH   7   8
ATOM      8  C   LIG d   1      -3.346  92.666 119.967  0.00  0.00     0.119 C 
BRANCH   8   9
ATOM      9  C   LIG d   1      -2.442  93.805 120.477  0.00  0.00     0.028 C 
ATOM     10  C   LIG d   1      -2.665  94.106 121.969  0.00  0.00     0.006 C 
ENDBRANCH   8   9
BRANCH   8  11
ATOM     11  C   LIG d   1      -2.393  91.518 119.618  0.00  0.00     0.028 C 
ATOM     12  C   LIG d   1      -2.735  90.215 120.357  0.00  0.00     0.006 C 
ENDBRANCH   8  11
ENDBRANCH   7   8
ENDBRANCH   1   7
BRANCH   6  13
ATOM     13  N   LIG d   1      -6.152  95.025 119.843  0.00  0.00    -0.311 N 
ATOM     14  C   LIG d   1      -5.377  96.088 120.050  0.00  0.00     0.210 C 
ATOM     15  C   LIG d   1      -5.467  96.690 121.456  0.00  0.00     0.109 C 
ATOM     16  O   LIG d   1      -4.648  96.610 119.193  0.00  0.00    -0.276 OA
ATOM     17  H   LIG d   1      -6.736  94.688 120.583  0.00  0.00     0.149 HD
ENDBRANCH   6  13
BRANCH   5  18
ATOM     18  N   LIG d   1      -8.336  95.333 117.729  0.00  0.00     0.381 N 
ATOM     19  H   LIG d   1      -8.057  96.045 118.373  0.00  0.00    -0.090 HD
ATOM     20  H   LIG d   1      -9.327  95.193 117.824  0.00  0.00    -0.090 HD
ATOM     21  H   LIG d   1      -8.121  95.614 116.798  0.00  0.00    -0.090 HD
ENDBRANCH   5  18
BRANCH   3  22
ATOM     22  C   LIG d   1      -7.220  90.952 116.149  0.00  0.00     0.382 C 
ATOM     23  O   LIG d   1      -8.422  90.775 115.838  0.00  0.00    -0.241 OA
ATOM     24  O   LIG d   1      -6.367  90.111 115.806  0.00  0.00    -0.241 OA
ENDBRANCH   3  22
TORSDOF 7
ENDMDL
MODEL 4
REMARK VINA RESULT:      -4.9     19.041     20.704
REMARK  7 active torsions:
REMARK  status: ('A' for Active; 'I' for Inactive)
REMARK    1  A    between atoms: C_2  and  C_3 
REMARK    2  A    between atoms: C_3  and  O_6 
REMARK    3  A    between atoms: C_3  and  C_4 
REMARK    4  A    between atoms: C_7  and  O_6 
REMARK    5  A    between atoms: C_9  and  C_10 
REMARK    6  A    between atoms: N_15  and  C_14 
REMARK    7  A    between atoms: N_20  and  C_19 
REMARK       I    between atoms: C_22  and  N_20 
ROOT
ATOM      1  C   LIG d   1      -0.868  59.174 117.865  0.00  0.00     0.161 C 
ATOM      2  C   LIG d   1      -2.103  58.506 117.826  0.00  0.00     0.016 C 
ATOM      3  C   LIG d   1      -2.226  57.106 117.673  0.00  0.00     0.038 C 
ATOM      4  C   LIG d   1      -1.110  56.257 117.701  0.00  0.00     0.028 C 
ATOM      5  C   LIG d   1       0.176  56.930 117.231  0.00  0.00    -0.047 C 
ATOM      6  C   LIG d   1       0.362  58.253 118.009  0.00  0.00     0.091 C 
ENDROOT
BRANCH   1   7
ATOM      7  O   LIG d   1      -0.879  60.161 118.916  0.00  0.00    -0.368 OA
BRANCH   7   8
ATOM      8  C   LIG d   1      -0.990  59.652 120.268  0.00  0.00     0.119 C 
BRANCH   8   9
ATOM      9  C   LIG d   1      -2.451  59.847 120.718  0.00  0.00     0.028 C 
ATOM     10  C   LIG d   1      -3.038  58.584 121.370  0.00  0.00     0.006 C 
ENDBRANCH   8   9
BRANCH   8  11
ATOM     11  C   LIG d   1      -0.150  60.479 121.245  0.00  0.00     0.028 C 
ATOM     12  C   LIG d   1       1.358  60.377 120.970  0.00  0.00     0.006 C 
ENDBRANCH   8  11
ENDBRANCH   7   8
ENDBRANCH   1   7
BRANCH   6  13
ATOM     13  N   LIG d   1       1.552  59.017 117.551  0.00  0.00    -0.311 N 
ATOM     14  C   LIG d   1       2.772  58.843 118.054  0.00  0.00     0.210 C 
ATOM     15  C   LIG d   1       3.854  59.747 117.455  0.00  0.00     0.109 C 
ATOM     16  O   LIG d   1       3.068  58.003 118.918  0.00  0.00    -0.276 OA
ATOM     17  H   LIG d   1       1.408  59.697 116.831  0.00  0.00     0.149 HD
ENDBRANCH   6  13
BRANCH   5  18
ATOM     18  N   LIG d   1       1.281  55.976 117.442  0.00  0.00     0.381 N 
ATOM     19  H   LIG d   1       1.802  55.869 116.594  0.00  0.00    -0.090 HD
ATOM     20  H   LIG d   1       0.896  55.081 117.689  0.00  0.00    -0.090 HD
ATOM     21  H   LIG d   1       1.878  56.301 118.169  0.00  0.00    -0.090 HD
ENDBRANCH   5  18
BRANCH   3  22
ATOM     22  C   LIG d   1      -3.474  56.546 117.450  0.00  0.00     0.382 C 
ATOM     23  O   LIG d   1      -3.580  55.505 116.758  0.00  0.00    -0.241 OA
ATOM     24  O   LIG d   1      -4.501  57.093 117.896  0.00  0.00    -0.241 OA
ENDBRANCH   3  22
TORSDOF 7
ENDMDL
MODEL 5
REMARK VINA RESULT:      -4.8     18.344     20.602
REMARK  7 active torsions:
REMARK  status: ('A' for Active; 'I' for Inactive)
REMARK    1  A    between atoms: C_2  and  C_3 
REMARK    2  A    between atoms: C_3  and  O_6 
REMARK    3  A    between atoms: C_3  and  C_4 
REMARK    4  A    between atoms: C_7  and  O_6 
REMARK    5  A    between atoms: C_9  and  C_10 
REMARK    6  A    between atoms: N_15  and  C_14 
REMARK    7  A    between atoms: N_20  and  C_19 
REMARK       I    between atoms: C_22  and  N_20 
ROOT
ATOM      1  C   LIG d   1       0.539  59.416 117.411  0.00  0.00     0.161 C 
ATOM      2  C   LIG d   1       1.850  59.419 117.917  0.00  0.00     0.016 C 
ATOM      3  C   LIG d   1       2.163  59.714 119.264  0.00  0.00     0.038 C 
ATOM      4  C   LIG d   1       1.168  59.878 120.238  0.00  0.00     0.028 C 
ATOM      5  C   LIG d   1      -0.156  60.382 119.672  0.00  0.00    -0.047 C 
ATOM      6  C   LIG d   1      -0.568  59.484 118.483  0.00  0.00     0.091 C 
ENDROOT
BRANCH   1   7
ATOM      7  O   LIG d   1       0.346  58.267 116.563  0.00  0.00    -0.368 OA
BRANCH   7   8
ATOM      8  C   LIG d   1      -0.371  57.154 117.152  0.00  0.00     0.119 C 
BRANCH   8   9
ATOM      9  C   LIG d   1       0.611  55.971 117.252  0.00  0.00     0.028 C 
ATOM     10  C   LIG d   1       1.323  55.914 118.614  0.00  0.00     0.006 C 
ENDBRANCH   8   9
BRANCH   8  11
ATOM     11  C   LIG d   1      -1.498  56.669 116.234  0.00  0.00     0.028 C 
ATOM     12  C   LIG d   1      -2.578  55.875 116.985  0.00  0.00     0.006 C 
ENDBRANCH   8  11
ENDBRANCH   7   8
ENDBRANCH   1   7
BRANCH   6  13
ATOM     13  N   LIG d   1      -1.810  59.958 117.819  0.00  0.00    -0.311 N 
ATOM     14  C   LIG d   1      -3.022  59.493 118.112  0.00  0.00     0.210 C 
ATOM     15  C   LIG d   1      -4.165  60.103 117.295  0.00  0.00     0.109 C 
ATOM     16  O   LIG d   1      -3.264  58.655 118.995  0.00  0.00    -0.276 OA
ATOM     17  H   LIG d   1      -1.709  60.660 117.111  0.00  0.00     0.149 HD
ENDBRANCH   6  13
BRANCH   5  18
ATOM     18  N   LIG d   1      -1.141  60.376 120.770  0.00  0.00     0.381 N 
ATOM     19  H   LIG d   1      -1.701  61.204 120.727  0.00  0.00    -0.090 HD
ATOM     20  H   LIG d   1      -0.650  60.373 121.647  0.00  0.00    -0.090 HD
ATOM     21  H   LIG d   1      -1.722  59.570 120.703  0.00  0.00    -0.090 HD
ENDBRANCH   5  18
BRANCH   3  22
ATOM     22  C   LIG d   1       3.487  59.886 119.639  0.00  0.00     0.382 C 
ATOM     23  O   LIG d   1       3.802  60.819 120.417  0.00  0.00    -0.241 OA
ATOM     24  O   LIG d   1       4.376  59.147 119.175  0.00  0.00    -0.241 OA
ENDBRANCH   3  22
TORSDOF 7
ENDMDL
MODEL 6
REMARK VINA RESULT:      -4.8      2.642      4.220
REMARK  7 active torsions:
REMARK  status: ('A' for Active; 'I' for Inactive)
REMARK    1  A    between atoms: C_2  and  C_3 
REMARK    2  A    between atoms: C_3  and  O_6 
REMARK    3  A    between atoms: C_3  and  C_4 
REMARK    4  A    between atoms: C_7  and  O_6 
REMARK    5  A    between atoms: C_9  and  C_10 
REMARK    6  A    between atoms: N_15  and  C_14 
REMARK    7  A    between atoms: N_20  and  C_19 
REMARK       I    between atoms: C_22  and  N_20 
ROOT
ATOM      1  C   LIG d   1      -7.264  79.074 117.889  0.00  0.00     0.161 C 
ATOM      2  C   LIG d   1      -8.332  78.244 117.507  0.00  0.00     0.016 C 
ATOM      3  C   LIG d   1      -8.868  77.233 118.337  0.00  0.00     0.038 C 
ATOM      4  C   LIG d   1      -8.468  77.081 119.673  0.00  0.00     0.028 C 
ATOM      5  C   LIG d   1      -7.045  77.562 119.938  0.00  0.00    -0.047 C 
ATOM      6  C   LIG d   1      -6.889  78.997 119.384  0.00  0.00     0.091 C 
ENDROOT
BRANCH   1   7
ATOM      7  O   LIG d   1      -7.545  80.436 117.512  0.00  0.00    -0.368 OA
BRANCH   7   8
ATOM      8  C   LIG d   1      -8.125  81.276 118.541  0.00  0.00     0.119 C 
BRANCH   8   9
ATOM      9  C   LIG d   1      -9.618  81.453 118.205  0.00  0.00     0.028 C 
ATOM     10  C   LIG d   1      -9.841  82.344 116.971  0.00  0.00     0.006 C 
ENDBRANCH   8   9
BRANCH   8  11
ATOM     11  C   LIG d   1      -7.531  82.687 118.509  0.00  0.00     0.028 C 
ATOM     12  C   LIG d   1      -7.470  83.339 119.899  0.00  0.00     0.006 C 
ENDBRANCH   8  11
ENDBRANCH   7   8
ENDBRANCH   1   7
BRANCH   6  13
ATOM     13  N   LIG d   1      -5.503  79.512 119.527  0.00  0.00    -0.311 N 
ATOM     14  C   LIG d   1      -5.107  80.282 120.540  0.00  0.00     0.210 C 
ATOM     15  C   LIG d   1      -3.640  80.719 120.485  0.00  0.00     0.109 C 
ATOM     16  O   LIG d   1      -5.823  80.616 121.495  0.00  0.00    -0.276 OA
ATOM     17  H   LIG d   1      -4.848  79.263 118.812  0.00  0.00     0.149 HD
ENDBRANCH   6  13
BRANCH   5  18
ATOM     18  N   LIG d   1      -6.809  77.475 121.392  0.00  0.00     0.381 N 
ATOM     19  H   LIG d   1      -7.376  76.749 121.784  0.00  0.00    -0.090 HD
ATOM     20  H   LIG d   1      -7.073  78.346 121.817  0.00  0.00    -0.090 HD
ATOM     21  H   LIG d   1      -5.847  77.287 121.570  0.00  0.00    -0.090 HD
ENDBRANCH   5  18
BRANCH   3  22
ATOM     22  C   LIG d   1      -9.786  76.333 117.818  0.00  0.00     0.382 C 
ATOM     23  O   LIG d   1      -9.402  75.415 117.054  0.00  0.00    -0.241 OA
ATOM     24  O   LIG d   1     -11.000  76.455 118.069  0.00  0.00    -0.241 OA
ENDBRANCH   3  22
TORSDOF 7
ENDMDL
MODEL 7
REMARK VINA RESULT:      -4.7      2.027      5.255
REMARK  7 active torsions:
REMARK  status: ('A' for Active; 'I' for Inactive)
REMARK    1  A    between atoms: C_2  and  C_3 
REMARK    2  A    between atoms: C_3  and  O_6 
REMARK    3  A    between atoms: C_3  and  C_4 
REMARK    4  A    between atoms: C_7  and  O_6 
REMARK    5  A    between atoms: C_9  and  C_10 
REMARK    6  A    between atoms: N_15  and  C_14 
REMARK    7  A    between atoms: N_20  and  C_19 
REMARK       I    between atoms: C_22  and  N_20 
ROOT
ATOM      1  C   LIG d   1      -6.891  79.520 117.311  0.00  0.00     0.161 C 
ATOM      2  C   LIG d   1      -7.089  80.863 117.672  0.00  0.00     0.016 C 
ATOM      3  C   LIG d   1      -8.141  81.297 118.511  0.00  0.00     0.038 C 
ATOM      4  C   LIG d   1      -8.983  80.391 119.172  0.00  0.00     0.028 C 
ATOM      5  C   LIG d   1      -9.137  79.062 118.441  0.00  0.00    -0.047 C 
ATOM      6  C   LIG d   1      -7.733  78.505 118.112  0.00  0.00     0.091 C 
ENDROOT
BRANCH   1   7
ATOM      7  O   LIG d   1      -5.491  79.191 117.401  0.00  0.00    -0.368 OA
BRANCH   7   8
ATOM      8  C   LIG d   1      -4.933  79.138 118.737  0.00  0.00     0.119 C 
BRANCH   8   9
ATOM      9  C   LIG d   1      -3.754  80.129 118.786  0.00  0.00     0.028 C 
ATOM     10  C   LIG d   1      -4.070  81.375 119.631  0.00  0.00     0.006 C 
ENDBRANCH   8   9
BRANCH   8  11
ATOM     11  C   LIG d   1      -4.320  77.765 119.031  0.00  0.00     0.028 C 
ATOM     12  C   LIG d   1      -4.174  76.896 117.772  0.00  0.00     0.006 C 
ENDBRANCH   8  11
ENDBRANCH   7   8
ENDBRANCH   1   7
BRANCH   6  13
ATOM     13  N   LIG d   1      -7.793  77.247 117.322  0.00  0.00    -0.311 N 
ATOM     14  C   LIG d   1      -7.775  76.034 117.872  0.00  0.00     0.210 C 
ATOM     15  C   LIG d   1      -7.826  74.872 116.876  0.00  0.00     0.109 C 
ATOM     16  O   LIG d   1      -7.755  75.811 119.092  0.00  0.00    -0.276 OA
ATOM     17  H   LIG d   1      -7.843  77.337 116.326  0.00  0.00     0.149 HD
ENDBRANCH   6  13
BRANCH   5  18
ATOM     18  N   LIG d   1      -9.927  78.166 119.306  0.00  0.00     0.381 N 
ATOM     19  H   LIG d   1     -10.840  78.038 118.918  0.00  0.00    -0.090 HD
ATOM     20  H   LIG d   1     -10.026  78.592 120.211  0.00  0.00    -0.090 HD
ATOM     21  H   LIG d   1      -9.469  77.286 119.394  0.00  0.00    -0.090 HD
ENDBRANCH   5  18
BRANCH   3  22
ATOM     22  C   LIG d   1      -8.383  82.654 118.663  0.00  0.00     0.382 C 
ATOM     23  O   LIG d   1      -9.523  83.119 118.418  0.00  0.00    -0.241 OA
ATOM     24  O   LIG d   1      -7.465  83.426 119.000  0.00  0.00    -0.241 OA
ENDBRANCH   3  22
TORSDOF 7
ENDMDL
MODEL 8
REMARK VINA RESULT:      -4.6     12.970     15.987
REMARK  7 active torsions:
REMARK  status: ('A' for Active; 'I' for Inactive)
REMARK    1  A    between atoms: C_2  and  C_3 
REMARK    2  A    between atoms: C_3  and  O_6 
REMARK    3  A    between atoms: C_3  and  C_4 
REMARK    4  A    between atoms: C_7  and  O_6 
REMARK    5  A    between atoms: C_9  and  C_10 
REMARK    6  A    between atoms: N_15  and  C_14 
REMARK    7  A    between atoms: N_20  and  C_19 
REMARK       I    between atoms: C_22  and  N_20 
ROOT
ATOM      1  C   LIG d   1      -0.108  91.023 116.939  0.00  0.00     0.161 C 
ATOM      2  C   LIG d   1       1.288  90.904 116.836  0.00  0.00     0.016 C 
ATOM      3  C   LIG d   1       2.193  91.660 117.617  0.00  0.00     0.038 C 
ATOM      4  C   LIG d   1       1.758  92.482 118.667  0.00  0.00     0.028 C 
ATOM      5  C   LIG d   1       0.343  93.016 118.473  0.00  0.00    -0.047 C 
ATOM      6  C   LIG d   1      -0.600  91.833 118.156  0.00  0.00     0.091 C 
ENDROOT
BRANCH   1   7
ATOM      7  O   LIG d   1      -0.711  89.714 116.931  0.00  0.00    -0.368 OA
BRANCH   7   8
ATOM      8  C   LIG d   1      -1.032  89.152 118.227  0.00  0.00     0.119 C 
BRANCH   8   9
ATOM      9  C   LIG d   1      -0.143  87.909 118.426  0.00  0.00     0.028 C 
ATOM     10  C   LIG d   1       0.295  87.281 117.092  0.00  0.00     0.006 C 
ENDBRANCH   8   9
BRANCH   8  11
ATOM     11  C   LIG d   1      -2.472  88.631 118.268  0.00  0.00     0.028 C 
ATOM     12  C   LIG d   1      -2.964  88.352 119.697  0.00  0.00     0.006 C 
ENDBRANCH   8  11
ENDBRANCH   7   8
ENDBRANCH   1   7
BRANCH   6  13
ATOM     13  N   LIG d   1      -1.989  92.277 117.869  0.00  0.00    -0.311 N 
ATOM     14  C   LIG d   1      -2.952  92.315 118.788  0.00  0.00     0.210 C 
ATOM     15  C   LIG d   1      -4.317  92.785 118.276  0.00  0.00     0.109 C 
ATOM     16  O   LIG d   1      -2.797  92.034 119.986  0.00  0.00    -0.276 OA
ATOM     17  H   LIG d   1      -2.195  92.552 116.928  0.00  0.00     0.149 HD
ENDBRANCH   6  13
BRANCH   5  18
ATOM     18  N   LIG d   1      -0.032  93.742 119.701  0.00  0.00     0.381 N 
ATOM     19  H   LIG d   1      -0.970  94.081 119.621  0.00  0.00    -0.090 HD
ATOM     20  H   LIG d   1       0.580  94.531 119.812  0.00  0.00    -0.090 HD
ATOM     21  H   LIG d   1       0.045  93.139 120.490  0.00  0.00    -0.090 HD
ENDBRANCH   5  18
BRANCH   3  22
ATOM     22  C   LIG d   1       3.548  91.627 117.323  0.00  0.00     0.382 C 
ATOM     23  O   LIG d   1       4.363  92.238 118.056  0.00  0.00    -0.241 OA
ATOM     24  O   LIG d   1       3.960  91.031 116.310  0.00  0.00    -0.241 OA
ENDBRANCH   3  22
TORSDOF 7
ENDMDL
MODEL 9
REMARK VINA RESULT:      -4.6      2.289      5.029
REMARK  7 active torsions:
REMARK  status: ('A' for Active; 'I' for Inactive)
REMARK    1  A    between atoms: C_2  and  C_3 
REMARK    2  A    between atoms: C_3  and  O_6 
REMARK    3  A    between atoms: C_3  and  C_4 
REMARK    4  A    between atoms: C_7  and  O_6 
REMARK    5  A    between atoms: C_9  and  C_10 
REMARK    6  A    between atoms: N_15  and  C_14 
REMARK    7  A    between atoms: N_20  and  C_19 
REMARK       I    between atoms: C_22  and  N_20 
ROOT
ATOM      1  C   LIG d   1      -5.701  76.959 117.029  0.00  0.00     0.161 C 
ATOM      2  C   LIG d   1      -4.767  75.918 116.893  0.00  0.00     0.016 C 
ATOM      3  C   LIG d   1      -3.376  76.091 117.081  0.00  0.00     0.038 C 
ATOM      4  C   LIG d   1      -2.838  77.291 117.569  0.00  0.00     0.028 C 
ATOM      5  C   LIG d   1      -3.685  78.515 117.236  0.00  0.00    -0.047 C 
ATOM      6  C   LIG d   1      -5.145  78.248 117.669  0.00  0.00     0.091 C 
ENDROOT
BRANCH   1   7
ATOM      7  O   LIG d   1      -6.850  76.490 117.762  0.00  0.00    -0.368 OA
BRANCH   7   8
ATOM      8  C   LIG d   1      -8.139  76.724 117.143  0.00  0.00     0.119 C 
BRANCH   8   9
ATOM      9  C   LIG d   1      -9.101  77.210 118.245  0.00  0.00     0.028 C 
ATOM     10  C   LIG d   1      -8.407  77.345 119.611  0.00  0.00     0.006 C 
ENDBRANCH   8   9
BRANCH   8  11
ATOM     11  C   LIG d   1      -8.750  75.421 116.618  0.00  0.00     0.028 C 
ATOM     12  C   LIG d   1      -8.090  74.170 117.218  0.00  0.00     0.006 C 
ENDBRANCH   8  11
ENDBRANCH   7   8
ENDBRANCH   1   7
BRANCH   6  13
ATOM     13  N   LIG d   1      -6.058  79.362 117.303  0.00  0.00    -0.311 N 
ATOM     14  C   LIG d   1      -6.402  80.335 118.145  0.00  0.00     0.210 C 
ATOM     15  C   LIG d   1      -7.370  81.374 117.572  0.00  0.00     0.109 C 
ATOM     16  O   LIG d   1      -5.971  80.453 119.302  0.00  0.00    -0.276 OA
ATOM     17  H   LIG d   1      -6.429  79.361 116.373  0.00  0.00     0.149 HD
ENDBRANCH   6  13
BRANCH   5  18
ATOM     18  N   LIG d   1      -3.082  79.674 117.921  0.00  0.00     0.381 N 
ATOM     19  H   LIG d   1      -2.086  79.637 117.836  0.00  0.00    -0.090 HD
ATOM     20  H   LIG d   1      -3.317  79.633 118.897  0.00  0.00    -0.090 HD
ATOM     21  H   LIG d   1      -3.426  80.521 117.524  0.00  0.00    -0.090 HD
ENDBRANCH   5  18
BRANCH   3  22
ATOM     22  C   LIG d   1      -2.504  75.068 116.742  0.00  0.00     0.382 C 
ATOM     23  O   LIG d   1      -2.496  74.005 117.407  0.00  0.00    -0.241 OA
ATOM     24  O   LIG d   1      -1.695  75.213 115.806  0.00  0.00    -0.241 OA
ENDBRANCH   3  22
TORSDOF 7
ENDMDL
