MODEL 1
REMARK VINA RESULT:      -4.8      0.000      0.000
REMARK  7 active torsions:
REMARK  status: ('A' for Active; 'I' for Inactive)
REMARK    1  A    between atoms: C_2  and  C_3 
REMARK    2  A    between atoms: C_3  and  O_6 
REMARK    3  A    between atoms: C_3  and  C_4 
REMARK    4  A    between atoms: C_7  and  O_6 
REMARK    5  A    between atoms: C_9  and  C_10 
REMARK    6  A    between atoms: N_15  and  C_14 
REMARK    7  A    between atoms: N_20  and  C_19 
REMARK       I    between atoms: C_22  and  N_20 
ROOT
ATOM      1  C   LIG d   1      -4.661  93.119 119.427  0.00  0.00     0.161 C 
ATOM      2  C   LIG d   1      -3.754  92.155 118.957  0.00  0.00     0.016 C 
ATOM      3  C   LIG d   1      -3.907  91.478 117.725  0.00  0.00     0.038 C 
ATOM      4  C   LIG d   1      -4.904  91.832 116.803  0.00  0.00     0.028 C 
ATOM      5  C   LIG d   1      -6.139  92.447 117.453  0.00  0.00    -0.047 C 
ATOM      6  C   LIG d   1      -5.694  93.598 118.385  0.00  0.00     0.091 C 
ENDROOT
BRANCH   1   7
ATOM      7  O   LIG d   1      -3.941  94.243 119.971  0.00  0.00    -0.368 OA
BRANCH   7   8
ATOM      8  C   LIG d   1      -3.449  95.210 119.011  0.00  0.00     0.119 C 
BRANCH   8   9
ATOM      9  C   LIG d   1      -1.913  95.086 118.976  0.00  0.00     0.028 C 
ATOM     10  C   LIG d   1      -1.389  94.680 117.588  0.00  0.00     0.006 C 
ENDBRANCH   8   9
BRANCH   8  11
ATOM     11  C   LIG d   1      -3.730  96.644 119.471  0.00  0.00     0.028 C 
ATOM     12  C   LIG d   1      -3.472  97.684 118.369  0.00  0.00     0.006 C 
ENDBRANCH   8  11
ENDBRANCH   7   8
ENDBRANCH   1   7
BRANCH   6  13
ATOM     13  N   LIG d   1      -6.833  94.200 119.126  0.00  0.00    -0.311 N 
ATOM     14  C   LIG d   1      -7.299  95.424 118.885  0.00  0.00     0.210 C 
ATOM     15  C   LIG d   1      -8.467  95.859 119.776  0.00  0.00     0.109 C 
ATOM     16  O   LIG d   1      -6.876  96.180 117.997  0.00  0.00    -0.276 OA
ATOM     17  H   LIG d   1      -7.256  93.644 119.843  0.00  0.00     0.149 HD
ENDBRANCH   6  13
BRANCH   5  18
ATOM     18  N   LIG d   1      -7.036  92.894 116.371  0.00  0.00     0.381 N 
ATOM     19  H   LIG d   1      -6.506  93.062 115.539  0.00  0.00    -0.090 HD
ATOM     20  H   LIG d   1      -7.473  93.756 116.646  0.00  0.00    -0.090 HD
ATOM     21  H   LIG d   1      -7.731  92.202 116.197  0.00  0.00    -0.090 HD
ENDBRANCH   5  18
BRANCH   3  22
ATOM     22  C   LIG d   1      -3.080  90.407 117.421  0.00  0.00     0.382 C 
ATOM     23  O   LIG d   1      -1.939  90.331 117.938  0.00  0.00    -0.241 OA
ATOM     24  O   LIG d   1      -3.443  89.541 116.604  0.00  0.00    -0.241 OA
ENDBRANCH   3  22
TORSDOF 7
ENDMDL
MODEL 2
REMARK VINA RESULT:      -4.6     11.524     13.844
REMARK  7 active torsions:
REMARK  status: ('A' for Active; 'I' for Inactive)
REMARK    1  A    between atoms: C_2  and  C_3 
REMARK    2  A    between atoms: C_3  and  O_6 
REMARK    3  A    between atoms: C_3  and  C_4 
REMARK    4  A    between atoms: C_7  and  O_6 
REMARK    5  A    between atoms: C_9  and  C_10 
REMARK    6  A    between atoms: N_15  and  C_14 
REMARK    7  A    between atoms: N_20  and  C_19 
REMARK       I    between atoms: C_22  and  N_20 
ROOT
ATOM      1  C   LIG d   1      -8.114  79.985 120.438  0.00  0.00     0.161 C 
ATOM      2  C   LIG d   1      -8.466  78.750 119.868  0.00  0.00     0.016 C 
ATOM      3  C   LIG d   1      -9.357  78.622 118.778  0.00  0.00     0.038 C 
ATOM      4  C   LIG d   1      -9.842  79.739 118.082  0.00  0.00     0.028 C 
ATOM      5  C   LIG d   1      -9.913  81.001 118.936  0.00  0.00    -0.047 C 
ATOM      6  C   LIG d   1      -8.546  81.221 119.622  0.00  0.00     0.091 C 
ENDROOT
BRANCH   1   7
ATOM      7  O   LIG d   1      -6.695  80.020 120.688  0.00  0.00    -0.368 OA
BRANCH   7   8
ATOM      8  C   LIG d   1      -5.882  80.644 119.663  0.00  0.00     0.119 C 
BRANCH   8   9
ATOM      9  C   LIG d   1      -5.407  79.532 118.708  0.00  0.00     0.028 C 
ATOM     10  C   LIG d   1      -5.988  79.685 117.293  0.00  0.00     0.006 C 
ENDBRANCH   8   9
BRANCH   8  11
ATOM     11  C   LIG d   1      -4.604  81.246 120.254  0.00  0.00     0.028 C 
ATOM     12  C   LIG d   1      -4.752  82.735 120.603  0.00  0.00     0.006 C 
ENDBRANCH   8  11
ENDBRANCH   7   8
ENDBRANCH   1   7
BRANCH   6  13
ATOM     13  N   LIG d   1      -8.554  82.387 120.542  0.00  0.00    -0.311 N 
ATOM     14  C   LIG d   1      -8.155  83.606 120.184  0.00  0.00     0.210 C 
ATOM     15  C   LIG d   1      -8.226  84.661 121.293  0.00  0.00     0.109 C 
ATOM     16  O   LIG d   1      -7.778  83.922 119.045  0.00  0.00    -0.276 OA
ATOM     17  H   LIG d   1      -8.874  82.228 121.477  0.00  0.00     0.149 HD
ENDBRANCH   6  13
BRANCH   5  18
ATOM     18  N   LIG d   1     -10.303  82.116 118.052  0.00  0.00     0.381 N 
ATOM     19  H   LIG d   1     -10.856  81.770 117.293  0.00  0.00    -0.090 HD
ATOM     20  H   LIG d   1      -9.472  82.534 117.671  0.00  0.00    -0.090 HD
ATOM     21  H   LIG d   1     -10.819  82.795 118.566  0.00  0.00    -0.090 HD
ENDBRANCH   5  18
BRANCH   3  22
ATOM     22  C   LIG d   1      -9.803  77.365 118.398  0.00  0.00     0.382 C 
ATOM     23  O   LIG d   1      -8.983  76.501 118.006  0.00  0.00    -0.241 OA
ATOM     24  O   LIG d   1     -11.020  77.099 118.401  0.00  0.00    -0.241 OA
ENDBRANCH   3  22
TORSDOF 7
ENDMDL
MODEL 3
REMARK VINA RESULT:      -4.5     15.551     18.732
REMARK  7 active torsions:
REMARK  status: ('A' for Active; 'I' for Inactive)
REMARK    1  A    between atoms: C_2  and  C_3 
REMARK    2  A    between atoms: C_3  and  O_6 
REMARK    3  A    between atoms: C_3  and  C_4 
REMARK    4  A    between atoms: C_7  and  O_6 
REMARK    5  A    between atoms: C_9  and  C_10 
REMARK    6  A    between atoms: N_15  and  C_14 
REMARK    7  A    between atoms: N_20  and  C_19 
REMARK       I    between atoms: C_22  and  N_20 
ROOT
ATOM      1  C   LIG d   1      -4.412  75.606 116.824  0.00  0.00     0.161 C 
ATOM      2  C   LIG d   1      -3.554  74.512 117.026  0.00  0.00     0.016 C 
ATOM      3  C   LIG d   1      -2.745  74.359 118.175  0.00  0.00     0.038 C 
ATOM      4  C   LIG d   1      -2.852  75.221 119.277  0.00  0.00     0.028 C 
ATOM      5  C   LIG d   1      -3.335  76.620 118.907  0.00  0.00    -0.047 C 
ATOM      6  C   LIG d   1      -4.625  76.499 118.064  0.00  0.00     0.091 C 
ENDROOT
BRANCH   1   7
ATOM      7  O   LIG d   1      -5.679  75.145 116.314  0.00  0.00    -0.368 OA
BRANCH   7   8
ATOM      8  C   LIG d   1      -6.220  73.953 116.934  0.00  0.00     0.119 C 
BRANCH   8   9
ATOM      9  C   LIG d   1      -6.724  73.033 115.805  0.00  0.00     0.028 C 
ATOM     10  C   LIG d   1      -7.614  71.893 116.330  0.00  0.00     0.006 C 
ENDBRANCH   8   9
BRANCH   8  11
ATOM     11  C   LIG d   1      -7.457  74.275 117.777  0.00  0.00     0.028 C 
ATOM     12  C   LIG d   1      -8.160  75.568 117.334  0.00  0.00     0.006 C 
ENDBRANCH   8  11
ENDBRANCH   7   8
ENDBRANCH   1   7
BRANCH   6  13
ATOM     13  N   LIG d   1      -5.118  77.818 117.589  0.00  0.00    -0.311 N 
ATOM     14  C   LIG d   1      -6.024  78.541 118.245  0.00  0.00     0.210 C 
ATOM     15  C   LIG d   1      -6.407  79.862 117.571  0.00  0.00     0.109 C 
ATOM     16  O   LIG d   1      -6.522  78.229 119.337  0.00  0.00    -0.276 OA
ATOM     17  H   LIG d   1      -4.743  78.161 116.727  0.00  0.00     0.149 HD
ENDBRANCH   6  13
BRANCH   5  18
ATOM     18  N   LIG d   1      -3.533  77.369 120.162  0.00  0.00     0.381 N 
ATOM     19  H   LIG d   1      -3.259  78.323 120.034  0.00  0.00    -0.090 HD
ATOM     20  H   LIG d   1      -2.951  76.967 120.876  0.00  0.00    -0.090 HD
ATOM     21  H   LIG d   1      -4.489  77.325 120.439  0.00  0.00    -0.090 HD
ENDBRANCH   5  18
BRANCH   3  22
ATOM     22  C   LIG d   1      -1.787  73.358 118.213  0.00  0.00     0.382 C 
ATOM     23  O   LIG d   1      -1.910  72.403 119.017  0.00  0.00    -0.241 OA
ATOM     24  O   LIG d   1      -0.779  73.420 117.485  0.00  0.00    -0.241 OA
ENDBRANCH   3  22
TORSDOF 7
ENDMDL
MODEL 4
REMARK VINA RESULT:      -4.4     15.831     18.916
REMARK  7 active torsions:
REMARK  status: ('A' for Active; 'I' for Inactive)
REMARK    1  A    between atoms: C_2  and  C_3 
REMARK    2  A    between atoms: C_3  and  O_6 
REMARK    3  A    between atoms: C_3  and  C_4 
REMARK    4  A    between atoms: C_7  and  O_6 
REMARK    5  A    between atoms: C_9  and  C_10 
REMARK    6  A    between atoms: N_15  and  C_14 
REMARK    7  A    between atoms: N_20  and  C_19 
REMARK       I    between atoms: C_22  and  N_20 
ROOT
ATOM      1  C   LIG d   1      -5.345  74.708 116.966  0.00  0.00     0.161 C 
ATOM      2  C   LIG d   1      -6.019  73.491 116.771  0.00  0.00     0.016 C 
ATOM      3  C   LIG d   1      -7.406  73.326 116.993  0.00  0.00     0.038 C 
ATOM      4  C   LIG d   1      -8.245  74.412 117.282  0.00  0.00     0.028 C 
ATOM      5  C   LIG d   1      -7.528  75.562 117.982  0.00  0.00    -0.047 C 
ATOM      6  C   LIG d   1      -6.263  75.930 117.174  0.00  0.00     0.091 C 
ENDROOT
BRANCH   1   7
ATOM      7  O   LIG d   1      -4.436  74.944 115.872  0.00  0.00    -0.368 OA
BRANCH   7   8
ATOM      8  C   LIG d   1      -3.025  74.849 116.184  0.00  0.00     0.119 C 
BRANCH   8   9
ATOM      9  C   LIG d   1      -2.895  74.739 117.715  0.00  0.00     0.028 C 
ATOM     10  C   LIG d   1      -2.130  73.478 118.151  0.00  0.00     0.006 C 
ENDBRANCH   8   9
BRANCH   8  11
ATOM     11  C   LIG d   1      -2.283  76.134 115.805  0.00  0.00     0.028 C 
ATOM     12  C   LIG d   1      -0.755  75.969 115.825  0.00  0.00     0.006 C 
ENDBRANCH   8  11
ENDBRANCH   7   8
ENDBRANCH   1   7
BRANCH   6  13
ATOM     13  N   LIG d   1      -5.458  76.991 117.834  0.00  0.00    -0.311 N 
ATOM     14  C   LIG d   1      -5.211  78.176 117.279  0.00  0.00     0.210 C 
ATOM     15  C   LIG d   1      -4.343  79.116 118.121  0.00  0.00     0.109 C 
ATOM     16  O   LIG d   1      -5.655  78.550 116.183  0.00  0.00    -0.276 OA
ATOM     17  H   LIG d   1      -5.084  76.783 118.739  0.00  0.00     0.149 HD
ENDBRANCH   6  13
BRANCH   5  18
ATOM     18  N   LIG d   1      -8.485  76.678 118.098  0.00  0.00     0.381 N 
ATOM     19  H   LIG d   1      -8.749  76.800 119.056  0.00  0.00    -0.090 HD
ATOM     20  H   LIG d   1      -9.310  76.456 117.570  0.00  0.00    -0.090 HD
ATOM     21  H   LIG d   1      -8.075  77.517 117.750  0.00  0.00    -0.090 HD
ENDBRANCH   5  18
BRANCH   3  22
ATOM     22  C   LIG d   1      -7.959  72.055 116.966  0.00  0.00     0.382 C 
ATOM     23  O   LIG d   1      -8.321  71.505 118.034  0.00  0.00    -0.241 OA
ATOM     24  O   LIG d   1      -8.061  71.433 115.891  0.00  0.00    -0.241 OA
ENDBRANCH   3  22
TORSDOF 7
ENDMDL
MODEL 5
REMARK VINA RESULT:      -4.4     12.037     14.406
REMARK  7 active torsions:
REMARK  status: ('A' for Active; 'I' for Inactive)
REMARK    1  A    between atoms: C_2  and  C_3 
REMARK    2  A    between atoms: C_3  and  O_6 
REMARK    3  A    between atoms: C_3  and  C_4 
REMARK    4  A    between atoms: C_7  and  O_6 
REMARK    5  A    between atoms: C_9  and  C_10 
REMARK    6  A    between atoms: N_15  and  C_14 
REMARK    7  A    between atoms: N_20  and  C_19 
REMARK       I    between atoms: C_22  and  N_20 
ROOT
ATOM      1  C   LIG d   1      -8.580  80.096 120.661  0.00  0.00     0.161 C 
ATOM      2  C   LIG d   1      -8.870  78.841 120.101  0.00  0.00     0.016 C 
ATOM      3  C   LIG d   1      -9.538  78.676 118.865  0.00  0.00     0.038 C 
ATOM      4  C   LIG d   1      -9.829  79.764 118.029  0.00  0.00     0.028 C 
ATOM      5  C   LIG d   1     -10.008  81.077 118.783  0.00  0.00    -0.047 C 
ATOM      6  C   LIG d   1      -8.790  81.293 119.711  0.00  0.00     0.091 C 
ENDROOT
BRANCH   1   7
ATOM      7  O   LIG d   1      -7.236  80.100 121.182  0.00  0.00    -0.368 OA
BRANCH   7   8
ATOM      8  C   LIG d   1      -6.288  79.238 120.505  0.00  0.00     0.119 C 
BRANCH   8   9
ATOM      9  C   LIG d   1      -5.362  78.634 121.578  0.00  0.00     0.028 C 
ATOM     10  C   LIG d   1      -5.405  77.097 121.593  0.00  0.00     0.006 C 
ENDBRANCH   8   9
BRANCH   8  11
ATOM     11  C   LIG d   1      -5.367  80.041 119.581  0.00  0.00     0.028 C 
ATOM     12  C   LIG d   1      -5.588  79.721 118.094  0.00  0.00     0.006 C 
ENDBRANCH   8  11
ENDBRANCH   7   8
ENDBRANCH   1   7
BRANCH   6  13
ATOM     13  N   LIG d   1      -8.925  82.514 120.548  0.00  0.00    -0.311 N 
ATOM     14  C   LIG d   1      -8.388  83.688 120.224  0.00  0.00     0.210 C 
ATOM     15  C   LIG d   1      -8.630  84.812 121.237  0.00  0.00     0.109 C 
ATOM     16  O   LIG d   1      -7.761  83.914 119.178  0.00  0.00    -0.276 OA
ATOM     17  H   LIG d   1      -9.445  82.427 121.400  0.00  0.00     0.149 HD
ENDBRANCH   6  13
BRANCH   5  18
ATOM     18  N   LIG d   1     -10.169  82.148 117.782  0.00  0.00     0.381 N 
ATOM     19  H   LIG d   1     -10.561  81.771 116.943  0.00  0.00    -0.090 HD
ATOM     20  H   LIG d   1      -9.265  82.528 117.565  0.00  0.00    -0.090 HD
ATOM     21  H   LIG d   1     -10.761  82.865 118.141  0.00  0.00    -0.090 HD
ENDBRANCH   5  18
BRANCH   3  22
ATOM     22  C   LIG d   1      -9.957  77.414 118.474  0.00  0.00     0.382 C 
ATOM     23  O   LIG d   1     -11.176  77.119 118.510  0.00  0.00    -0.241 OA
ATOM     24  O   LIG d   1      -9.128  76.552 118.127  0.00  0.00    -0.241 OA
ENDBRANCH   3  22
TORSDOF 7
ENDMDL
MODEL 6
REMARK VINA RESULT:      -4.3      2.401      4.380
REMARK  7 active torsions:
REMARK  status: ('A' for Active; 'I' for Inactive)
REMARK    1  A    between atoms: C_2  and  C_3 
REMARK    2  A    between atoms: C_3  and  O_6 
REMARK    3  A    between atoms: C_3  and  C_4 
REMARK    4  A    between atoms: C_7  and  O_6 
REMARK    5  A    between atoms: C_9  and  C_10 
REMARK    6  A    between atoms: N_15  and  C_14 
REMARK    7  A    between atoms: N_20  and  C_19 
REMARK       I    between atoms: C_22  and  N_20 
ROOT
ATOM      1  C   LIG d   1      -5.265  93.807 118.545  0.00  0.00     0.161 C 
ATOM      2  C   LIG d   1      -6.150  93.004 117.807  0.00  0.00     0.016 C 
ATOM      3  C   LIG d   1      -5.752  91.835 117.118  0.00  0.00     0.038 C 
ATOM      4  C   LIG d   1      -4.460  91.303 117.246  0.00  0.00     0.028 C 
ATOM      5  C   LIG d   1      -3.402  92.353 117.571  0.00  0.00    -0.047 C 
ATOM      6  C   LIG d   1      -3.875  93.181 118.787  0.00  0.00     0.091 C 
ENDROOT
BRANCH   1   7
ATOM      7  O   LIG d   1      -5.872  94.180 119.797  0.00  0.00    -0.368 OA
BRANCH   7   8
ATOM      8  C   LIG d   1      -6.026  95.601 120.032  0.00  0.00     0.119 C 
BRANCH   8   9
ATOM      9  C   LIG d   1      -7.458  95.831 120.554  0.00  0.00     0.028 C 
ATOM     10  C   LIG d   1      -7.925  94.711 121.499  0.00  0.00     0.006 C 
ENDBRANCH   8   9
BRANCH   8  11
ATOM     11  C   LIG d   1      -5.939  96.395 118.725  0.00  0.00     0.028 C 
ATOM     12  C   LIG d   1      -7.318  96.802 118.182  0.00  0.00     0.006 C 
ENDBRANCH   8  11
ENDBRANCH   7   8
ENDBRANCH   1   7
BRANCH   6  13
ATOM     13  N   LIG d   1      -2.937  94.285 119.120  0.00  0.00    -0.311 N 
ATOM     14  C   LIG d   1      -1.967  94.175 120.026  0.00  0.00     0.210 C 
ATOM     15  C   LIG d   1      -1.126  95.439 120.229  0.00  0.00     0.109 C 
ATOM     16  O   LIG d   1      -1.702  93.141 120.657  0.00  0.00    -0.276 OA
ATOM     17  H   LIG d   1      -3.060  95.151 118.632  0.00  0.00     0.149 HD
ENDBRANCH   6  13
BRANCH   5  18
ATOM     18  N   LIG d   1      -2.131  91.644 117.813  0.00  0.00     0.381 N 
ATOM     19  H   LIG d   1      -1.407  92.306 118.009  0.00  0.00    -0.090 HD
ATOM     20  H   LIG d   1      -1.879  91.137 116.983  0.00  0.00    -0.090 HD
ATOM     21  H   LIG d   1      -2.232  91.014 118.578  0.00  0.00    -0.090 HD
ENDBRANCH   5  18
BRANCH   3  22
ATOM     22  C   LIG d   1      -6.640  91.208 116.258  0.00  0.00     0.382 C 
ATOM     23  O   LIG d   1      -6.375  90.068 115.805  0.00  0.00    -0.241 OA
ATOM     24  O   LIG d   1      -7.682  91.786 115.894  0.00  0.00    -0.241 OA
ENDBRANCH   3  22
TORSDOF 7
ENDMDL
MODEL 7
REMARK VINA RESULT:      -4.2      3.204      5.307
REMARK  7 active torsions:
REMARK  status: ('A' for Active; 'I' for Inactive)
REMARK    1  A    between atoms: C_2  and  C_3 
REMARK    2  A    between atoms: C_3  and  O_6 
REMARK    3  A    between atoms: C_3  and  C_4 
REMARK    4  A    between atoms: C_7  and  O_6 
REMARK    5  A    between atoms: C_9  and  C_10 
REMARK    6  A    between atoms: N_15  and  C_14 
REMARK    7  A    between atoms: N_20  and  C_19 
REMARK       I    between atoms: C_22  and  N_20 
ROOT
ATOM      1  C   LIG d   1      -1.484  91.565 117.870  0.00  0.00     0.161 C 
ATOM      2  C   LIG d   1      -0.089  91.612 118.032  0.00  0.00     0.016 C 
ATOM      3  C   LIG d   1       0.651  92.816 118.060  0.00  0.00     0.038 C 
ATOM      4  C   LIG d   1       0.025  94.071 118.080  0.00  0.00     0.028 C 
ATOM      5  C   LIG d   1      -1.346  94.075 117.411  0.00  0.00    -0.047 C 
ATOM      6  C   LIG d   1      -2.196  92.928 118.002  0.00  0.00     0.091 C 
ENDROOT
BRANCH   1   7
ATOM      7  O   LIG d   1      -2.051  90.613 118.792  0.00  0.00    -0.368 OA
BRANCH   7   8
ATOM      8  C   LIG d   1      -1.263  90.321 119.972  0.00  0.00     0.119 C 
BRANCH   8   9
ATOM      9  C   LIG d   1      -1.369  88.807 120.237  0.00  0.00     0.028 C 
ATOM     10  C   LIG d   1      -2.088  88.061 119.100  0.00  0.00     0.006 C 
ENDBRANCH   8   9
BRANCH   8  11
ATOM     11  C   LIG d   1      -1.853  90.992 121.216  0.00  0.00     0.028 C 
ATOM     12  C   LIG d   1      -1.164  92.323 121.559  0.00  0.00     0.006 C 
ENDBRANCH   8  11
ENDBRANCH   7   8
ENDBRANCH   1   7
BRANCH   6  13
ATOM     13  N   LIG d   1      -3.523  92.808 117.343  0.00  0.00    -0.311 N 
ATOM     14  C   LIG d   1      -4.661  92.635 118.012  0.00  0.00     0.210 C 
ATOM     15  C   LIG d   1      -5.913  92.515 117.138  0.00  0.00     0.109 C 
ATOM     16  O   LIG d   1      -4.757  92.601 119.248  0.00  0.00    -0.276 OA
ATOM     17  H   LIG d   1      -3.541  92.855 116.343  0.00  0.00     0.149 HD
ENDBRANCH   6  13
BRANCH   5  18
ATOM     18  N   LIG d   1      -1.942  95.407 117.624  0.00  0.00     0.381 N 
ATOM     19  H   LIG d   1      -2.199  95.513 118.586  0.00  0.00    -0.090 HD
ATOM     20  H   LIG d   1      -2.774  95.484 117.065  0.00  0.00    -0.090 HD
ATOM     21  H   LIG d   1      -1.293  96.117 117.367  0.00  0.00    -0.090 HD
ENDBRANCH   5  18
BRANCH   3  22
ATOM     22  C   LIG d   1       2.037  92.772 118.028  0.00  0.00     0.382 C 
ATOM     23  O   LIG d   1       2.628  92.380 116.993  0.00  0.00    -0.241 OA
ATOM     24  O   LIG d   1       2.702  93.077 119.036  0.00  0.00    -0.241 OA
ENDBRANCH   3  22
TORSDOF 7
ENDMDL
MODEL 8
REMARK VINA RESULT:      -4.2      4.625      7.243
REMARK  7 active torsions:
REMARK  status: ('A' for Active; 'I' for Inactive)
REMARK    1  A    between atoms: C_2  and  C_3 
REMARK    2  A    between atoms: C_3  and  O_6 
REMARK    3  A    between atoms: C_3  and  C_4 
REMARK    4  A    between atoms: C_7  and  O_6 
REMARK    5  A    between atoms: C_9  and  C_10 
REMARK    6  A    between atoms: N_15  and  C_14 
REMARK    7  A    between atoms: N_20  and  C_19 
REMARK       I    between atoms: C_22  and  N_20 
ROOT
ATOM      1  C   LIG d   1       0.679  91.150 116.746  0.00  0.00     0.161 C 
ATOM      2  C   LIG d   1       2.082  91.105 116.672  0.00  0.00     0.016 C 
ATOM      3  C   LIG d   1       2.929  91.929 117.447  0.00  0.00     0.038 C 
ATOM      4  C   LIG d   1       2.430  92.754 118.466  0.00  0.00     0.028 C 
ATOM      5  C   LIG d   1       0.992  93.205 118.232  0.00  0.00    -0.047 C 
ATOM      6  C   LIG d   1       0.120  91.965 117.931  0.00  0.00     0.091 C 
ENDROOT
BRANCH   1   7
ATOM      7  O   LIG d   1       0.148  89.811 116.764  0.00  0.00    -0.368 OA
BRANCH   7   8
ATOM      8  C   LIG d   1       0.232  89.108 118.028  0.00  0.00     0.119 C 
BRANCH   8   9
ATOM      9  C   LIG d   1       1.028  87.811 117.784  0.00  0.00     0.028 C 
ATOM     10  C   LIG d   1       1.024  87.389 116.305  0.00  0.00     0.006 C 
ENDBRANCH   8   9
BRANCH   8  11
ATOM     11  C   LIG d   1      -1.150  88.652 118.505  0.00  0.00     0.028 C 
ATOM     12  C   LIG d   1      -2.226  88.772 117.416  0.00  0.00     0.006 C 
ENDBRANCH   8  11
ENDBRANCH   7   8
ENDBRANCH   1   7
BRANCH   6  13
ATOM     13  N   LIG d   1      -1.285  92.325 117.607  0.00  0.00    -0.311 N 
ATOM     14  C   LIG d   1      -2.273  92.299 118.499  0.00  0.00     0.210 C 
ATOM     15  C   LIG d   1      -3.649  92.688 117.951  0.00  0.00     0.109 C 
ATOM     16  O   LIG d   1      -2.134  92.023 119.700  0.00  0.00    -0.276 OA
ATOM     17  H   LIG d   1      -1.480  92.591 116.662  0.00  0.00     0.149 HD
ENDBRANCH   6  13
BRANCH   5  18
ATOM     18  N   LIG d   1       0.555  93.942 119.432  0.00  0.00     0.381 N 
ATOM     19  H   LIG d   1       0.099  93.317 120.066  0.00  0.00    -0.090 HD
ATOM     20  H   LIG d   1      -0.104  94.649 119.157  0.00  0.00    -0.090 HD
ATOM     21  H   LIG d   1       1.340  94.365 119.878  0.00  0.00    -0.090 HD
ENDBRANCH   5  18
BRANCH   3  22
ATOM     22  C   LIG d   1       4.289  91.962 117.179  0.00  0.00     0.382 C 
ATOM     23  O   LIG d   1       5.048  92.679 117.875  0.00  0.00    -0.241 OA
ATOM     24  O   LIG d   1       4.760  91.319 116.222  0.00  0.00    -0.241 OA
ENDBRANCH   3  22
TORSDOF 7
ENDMDL
MODEL 9
REMARK VINA RESULT:      -4.2      2.960      5.930
REMARK  7 active torsions:
REMARK  status: ('A' for Active; 'I' for Inactive)
REMARK    1  A    between atoms: C_2  and  C_3 
REMARK    2  A    between atoms: C_3  and  O_6 
REMARK    3  A    between atoms: C_3  and  C_4 
REMARK    4  A    between atoms: C_7  and  O_6 
REMARK    5  A    between atoms: C_9  and  C_10 
REMARK    6  A    between atoms: N_15  and  C_14 
REMARK    7  A    between atoms: N_20  and  C_19 
REMARK       I    between atoms: C_22  and  N_20 
ROOT
ATOM      1  C   LIG d   1      -2.672  92.538 118.964  0.00  0.00     0.161 C 
ATOM      2  C   LIG d   1      -2.541  93.920 118.749  0.00  0.00     0.016 C 
ATOM      3  C   LIG d   1      -1.512  94.492 117.965  0.00  0.00     0.038 C 
ATOM      4  C   LIG d   1      -0.628  93.704 117.214  0.00  0.00     0.028 C 
ATOM      5  C   LIG d   1      -0.409  92.313 117.800  0.00  0.00    -0.047 C 
ATOM      6  C   LIG d   1      -1.783  91.656 118.062  0.00  0.00     0.091 C 
ENDROOT
BRANCH   1   7
ATOM      7  O   LIG d   1      -4.055  92.153 118.835  0.00  0.00    -0.368 OA
BRANCH   7   8
ATOM      8  C   LIG d   1      -4.797  92.789 117.765  0.00  0.00     0.119 C 
BRANCH   8   9
ATOM      9  C   LIG d   1      -6.143  93.257 118.349  0.00  0.00     0.028 C 
ATOM     10  C   LIG d   1      -6.147  94.758 118.686  0.00  0.00     0.006 C 
ENDBRANCH   8   9
BRANCH   8  11
ATOM     11  C   LIG d   1      -5.158  91.786 116.665  0.00  0.00     0.028 C 
ATOM     12  C   LIG d   1      -6.667  91.500 116.592  0.00  0.00     0.006 C 
ENDBRANCH   8  11
ENDBRANCH   7   8
ENDBRANCH   1   7
BRANCH   6  13
ATOM     13  N   LIG d   1      -1.661  90.326 118.714  0.00  0.00    -0.311 N 
ATOM     14  C   LIG d   1      -2.260  89.228 118.256  0.00  0.00     0.210 C 
ATOM     15  C   LIG d   1      -2.018  87.965 119.090  0.00  0.00     0.109 C 
ATOM     16  O   LIG d   1      -2.941  89.173 117.222  0.00  0.00    -0.276 OA
ATOM     17  H   LIG d   1      -1.101  90.274 119.542  0.00  0.00     0.149 HD
ENDBRANCH   6  13
BRANCH   5  18
ATOM     18  N   LIG d   1       0.422  91.553 116.847  0.00  0.00     0.381 N 
ATOM     19  H   LIG d   1       1.220  92.097 116.585  0.00  0.00    -0.090 HD
ATOM     20  H   LIG d   1      -0.118  91.368 116.020  0.00  0.00    -0.090 HD
ATOM     21  H   LIG d   1       0.717  90.696 117.259  0.00  0.00    -0.090 HD
ENDBRANCH   5  18
BRANCH   3  22
ATOM     22  C   LIG d   1      -1.336  95.867 117.959  0.00  0.00     0.382 C 
ATOM     23  O   LIG d   1      -0.185  96.351 117.836  0.00  0.00    -0.241 OA
ATOM     24  O   LIG d   1      -2.308  96.629 118.120  0.00  0.00    -0.241 OA
ENDBRANCH   3  22
TORSDOF 7
ENDMDL
