MODEL 1
REMARK VINA RESULT:      -5.3      0.000      0.000
REMARK  7 active torsions:
REMARK  status: ('A' for Active; 'I' for Inactive)
REMARK    1  A    between atoms: C_2  and  C_3 
REMARK    2  A    between atoms: C_3  and  O_6 
REMARK    3  A    between atoms: C_3  and  C_4 
REMARK    4  A    between atoms: C_7  and  O_6 
REMARK    5  A    between atoms: C_9  and  C_10 
REMARK    6  A    between atoms: N_15  and  C_14 
REMARK    7  A    between atoms: N_20  and  C_19 
REMARK       I    between atoms: C_22  and  N_20 
ROOT
ATOM      1  C   LIG d   1      -2.478  58.069 119.742  0.00  0.00     0.161 C 
ATOM      2  C   LIG d   1      -3.092  56.981 119.100  0.00  0.00     0.016 C 
ATOM      3  C   LIG d   1      -4.481  56.911 118.845  0.00  0.00     0.038 C 
ATOM      4  C   LIG d   1      -5.334  57.999 119.081  0.00  0.00     0.028 C 
ATOM      5  C   LIG d   1      -4.844  58.923 120.191  0.00  0.00    -0.047 C 
ATOM      6  C   LIG d   1      -3.376  59.313 119.907  0.00  0.00     0.091 C 
ENDROOT
BRANCH   1   7
ATOM      7  O   LIG d   1      -1.260  58.418 119.054  0.00  0.00    -0.368 OA
BRANCH   7   8
ATOM      8  C   LIG d   1      -1.197  58.065 117.651  0.00  0.00     0.119 C 
BRANCH   8   9
ATOM      9  C   LIG d   1       0.147  57.347 117.414  0.00  0.00     0.028 C 
ATOM     10  C   LIG d   1      -0.021  55.827 117.247  0.00  0.00     0.006 C 
ENDBRANCH   8   9
BRANCH   8  11
ATOM     11  C   LIG d   1      -1.151  59.312 116.763  0.00  0.00     0.028 C 
ATOM     12  C   LIG d   1      -2.536  59.715 116.232  0.00  0.00     0.006 C 
ENDBRANCH   8  11
ENDBRANCH   7   8
ENDBRANCH   1   7
BRANCH   6  13
ATOM     13  N   LIG d   1      -2.792  60.149 120.988  0.00  0.00    -0.311 N 
ATOM     14  C   LIG d   1      -2.058  61.237 120.759  0.00  0.00     0.210 C 
ATOM     15  C   LIG d   1      -1.536  61.941 122.015  0.00  0.00     0.109 C 
ATOM     16  O   LIG d   1      -1.818  61.704 119.636  0.00  0.00    -0.276 OA
ATOM     17  H   LIG d   1      -2.964  59.860 121.931  0.00  0.00     0.149 HD
ENDBRANCH   6  13
BRANCH   5  18
ATOM     18  N   LIG d   1      -5.753  60.084 120.238  0.00  0.00     0.381 N 
ATOM     19  H   LIG d   1      -5.289  60.892 119.872  0.00  0.00    -0.090 HD
ATOM     20  H   LIG d   1      -5.997  60.267 121.195  0.00  0.00    -0.090 HD
ATOM     21  H   LIG d   1      -6.575  59.895 119.707  0.00  0.00    -0.090 HD
ENDBRANCH   5  18
BRANCH   3  22
ATOM     22  C   LIG d   1      -5.036  55.726 118.384  0.00  0.00     0.382 C 
ATOM     23  O   LIG d   1      -6.067  55.263 118.930  0.00  0.00    -0.241 OA
ATOM     24  O   LIG d   1      -4.494  55.092 117.459  0.00  0.00    -0.241 OA
ENDBRANCH   3  22
TORSDOF 7
ENDMDL
MODEL 2
REMARK VINA RESULT:      -5.0      2.806      4.796
REMARK  7 active torsions:
REMARK  status: ('A' for Active; 'I' for Inactive)
REMARK    1  A    between atoms: C_2  and  C_3 
REMARK    2  A    between atoms: C_3  and  O_6 
REMARK    3  A    between atoms: C_3  and  C_4 
REMARK    4  A    between atoms: C_7  and  O_6 
REMARK    5  A    between atoms: C_9  and  C_10 
REMARK    6  A    between atoms: N_15  and  C_14 
REMARK    7  A    between atoms: N_20  and  C_19 
REMARK       I    between atoms: C_22  and  N_20 
ROOT
ATOM      1  C   LIG d   1      -1.614  58.397 117.148  0.00  0.00     0.161 C 
ATOM      2  C   LIG d   1      -2.786  59.132 117.393  0.00  0.00     0.016 C 
ATOM      3  C   LIG d   1      -3.900  58.610 118.089  0.00  0.00     0.038 C 
ATOM      4  C   LIG d   1      -3.859  57.360 118.724  0.00  0.00     0.028 C 
ATOM      5  C   LIG d   1      -2.884  56.383 118.075  0.00  0.00    -0.047 C 
ATOM      6  C   LIG d   1      -1.508  57.070 117.929  0.00  0.00     0.091 C 
ENDROOT
BRANCH   1   7
ATOM      7  O   LIG d   1      -0.459  59.221 117.401  0.00  0.00    -0.368 OA
BRANCH   7   8
ATOM      8  C   LIG d   1      -0.134  59.453 118.794  0.00  0.00     0.119 C 
BRANCH   8   9
ATOM      9  C   LIG d   1      -0.336  60.955 119.072  0.00  0.00     0.028 C 
ATOM     10  C   LIG d   1      -1.423  61.215 120.128  0.00  0.00     0.006 C 
ENDBRANCH   8   9
BRANCH   8  11
ATOM     11  C   LIG d   1       1.348  59.185 119.072  0.00  0.00     0.028 C 
ATOM     12  C   LIG d   1       2.177  60.475 119.184  0.00  0.00     0.006 C 
ENDBRANCH   8  11
ENDBRANCH   7   8
ENDBRANCH   1   7
BRANCH   6  13
ATOM     13  N   LIG d   1      -0.518  56.213 117.226  0.00  0.00    -0.311 N 
ATOM     14  C   LIG d   1       0.507  55.623 117.839  0.00  0.00     0.210 C 
ATOM     15  C   LIG d   1       1.420  54.799 116.926  0.00  0.00     0.109 C 
ATOM     16  O   LIG d   1       0.729  55.678 119.058  0.00  0.00    -0.276 OA
ATOM     17  H   LIG d   1      -0.640  56.089 116.241  0.00  0.00     0.149 HD
ENDBRANCH   6  13
BRANCH   5  18
ATOM     18  N   LIG d   1      -2.840  55.173 118.917  0.00  0.00     0.381 N 
ATOM     19  H   LIG d   1      -2.688  54.367 118.344  0.00  0.00    -0.090 HD
ATOM     20  H   LIG d   1      -3.725  55.067 119.381  0.00  0.00    -0.090 HD
ATOM     21  H   LIG d   1      -2.111  55.252 119.591  0.00  0.00    -0.090 HD
ENDBRANCH   5  18
BRANCH   3  22
ATOM     22  C   LIG d   1      -5.087  59.327 118.122  0.00  0.00     0.382 C 
ATOM     23  O   LIG d   1      -5.065  60.579 118.051  0.00  0.00    -0.241 OA
ATOM     24  O   LIG d   1      -6.176  58.739 118.265  0.00  0.00    -0.241 OA
ENDBRANCH   3  22
TORSDOF 7
ENDMDL
MODEL 3
REMARK VINA RESULT:      -5.0     19.424     22.142
REMARK  7 active torsions:
REMARK  status: ('A' for Active; 'I' for Inactive)
REMARK    1  A    between atoms: C_2  and  C_3 
REMARK    2  A    between atoms: C_3  and  O_6 
REMARK    3  A    between atoms: C_3  and  C_4 
REMARK    4  A    between atoms: C_7  and  O_6 
REMARK    5  A    between atoms: C_9  and  C_10 
REMARK    6  A    between atoms: N_15  and  C_14 
REMARK    7  A    between atoms: N_20  and  C_19 
REMARK       I    between atoms: C_22  and  N_20 
ROOT
ATOM      1  C   LIG d   1      -9.626  79.410 118.567  0.00  0.00     0.161 C 
ATOM      2  C   LIG d   1      -9.087  78.306 117.884  0.00  0.00     0.016 C 
ATOM      3  C   LIG d   1      -7.724  78.203 117.524  0.00  0.00     0.038 C 
ATOM      4  C   LIG d   1      -6.770  79.135 117.959  0.00  0.00     0.028 C 
ATOM      5  C   LIG d   1      -7.351  80.521 118.217  0.00  0.00    -0.047 C 
ATOM      6  C   LIG d   1      -8.579  80.385 119.146  0.00  0.00     0.091 C 
ENDROOT
BRANCH   1   7
ATOM      7  O   LIG d   1     -10.516  78.955 119.605  0.00  0.00    -0.368 OA
BRANCH   7   8
ATOM      8  C   LIG d   1      -9.888  78.381 120.777  0.00  0.00     0.119 C 
BRANCH   8   9
ATOM      9  C   LIG d   1     -10.473  76.968 120.970  0.00  0.00     0.028 C 
ATOM     10  C   LIG d   1      -9.399  75.871 120.886  0.00  0.00     0.006 C 
ENDBRANCH   8   9
BRANCH   8  11
ATOM     11  C   LIG d   1     -10.264  79.152 122.046  0.00  0.00     0.028 C 
ATOM     12  C   LIG d   1     -11.492  80.055 121.852  0.00  0.00     0.006 C 
ENDBRANCH   8  11
ENDBRANCH   7   8
ENDBRANCH   1   7
BRANCH   6  13
ATOM     13  N   LIG d   1      -9.259  81.685 119.382  0.00  0.00    -0.311 N 
ATOM     14  C   LIG d   1      -9.008  82.464 120.433  0.00  0.00     0.210 C 
ATOM     15  C   LIG d   1      -9.833  83.752 120.496  0.00  0.00     0.109 C 
ATOM     16  O   LIG d   1      -8.156  82.225 121.303  0.00  0.00    -0.276 OA
ATOM     17  H   LIG d   1      -9.942  81.972 118.709  0.00  0.00     0.149 HD
ENDBRANCH   6  13
BRANCH   5  18
ATOM     18  N   LIG d   1      -6.279  81.354 118.794  0.00  0.00     0.381 N 
ATOM     19  H   LIG d   1      -6.338  82.283 118.429  0.00  0.00    -0.090 HD
ATOM     20  H   LIG d   1      -5.390  80.967 118.531  0.00  0.00    -0.090 HD
ATOM     21  H   LIG d   1      -6.360  81.373 119.787  0.00  0.00    -0.090 HD
ENDBRANCH   5  18
BRANCH   3  22
ATOM     22  C   LIG d   1      -7.310  77.178 116.687  0.00  0.00     0.382 C 
ATOM     23  O   LIG d   1      -6.245  77.294 116.034  0.00  0.00    -0.241 OA
ATOM     24  O   LIG d   1      -8.010  76.158 116.543  0.00  0.00    -0.241 OA
ENDBRANCH   3  22
TORSDOF 7
ENDMDL
MODEL 4
REMARK VINA RESULT:      -4.9     19.012     21.179
REMARK  7 active torsions:
REMARK  status: ('A' for Active; 'I' for Inactive)
REMARK    1  A    between atoms: C_2  and  C_3 
REMARK    2  A    between atoms: C_3  and  O_6 
REMARK    3  A    between atoms: C_3  and  C_4 
REMARK    4  A    between atoms: C_7  and  O_6 
REMARK    5  A    between atoms: C_9  and  C_10 
REMARK    6  A    between atoms: N_15  and  C_14 
REMARK    7  A    between atoms: N_20  and  C_19 
REMARK       I    between atoms: C_22  and  N_20 
ROOT
ATOM      1  C   LIG d   1      -9.636  78.108 119.453  0.00  0.00     0.161 C 
ATOM      2  C   LIG d   1     -10.081  76.951 120.113  0.00  0.00     0.016 C 
ATOM      3  C   LIG d   1     -10.862  76.978 121.291  0.00  0.00     0.038 C 
ATOM      4  C   LIG d   1     -11.383  78.174 121.808  0.00  0.00     0.028 C 
ATOM      5  C   LIG d   1     -10.542  79.399 121.464  0.00  0.00    -0.047 C 
ATOM      6  C   LIG d   1     -10.287  79.420 119.939  0.00  0.00     0.091 C 
ENDROOT
BRANCH   1   7
ATOM      7  O   LIG d   1      -9.814  77.958 118.030  0.00  0.00    -0.368 OA
BRANCH   7   8
ATOM      8  C   LIG d   1      -8.610  77.717 117.260  0.00  0.00     0.119 C 
BRANCH   8   9
ATOM      9  C   LIG d   1      -8.501  76.196 117.037  0.00  0.00     0.028 C 
ATOM     10  C   LIG d   1      -7.580  75.841 115.858  0.00  0.00     0.006 C 
ENDBRANCH   8   9
BRANCH   8  11
ATOM     11  C   LIG d   1      -7.356  78.103 118.050  0.00  0.00     0.028 C 
ATOM     12  C   LIG d   1      -6.544  79.217 117.371  0.00  0.00     0.006 C 
ENDBRANCH   8  11
ENDBRANCH   7   8
ENDBRANCH   1   7
BRANCH   6  13
ATOM     13  N   LIG d   1      -9.401  80.541 119.528  0.00  0.00    -0.311 N 
ATOM     14  C   LIG d   1      -9.584  81.250 118.416  0.00  0.00     0.210 C 
ATOM     15  C   LIG d   1      -8.544  82.348 118.170  0.00  0.00     0.109 C 
ATOM     16  O   LIG d   1     -10.528  81.096 117.626  0.00  0.00    -0.276 OA
ATOM     17  H   LIG d   1      -8.628  80.755 120.128  0.00  0.00     0.149 HD
ENDBRANCH   6  13
BRANCH   5  18
ATOM     18  N   LIG d   1     -11.270  80.588 121.945  0.00  0.00     0.381 N 
ATOM     19  H   LIG d   1     -10.725  81.410 121.775  0.00  0.00    -0.090 HD
ATOM     20  H   LIG d   1     -11.413  80.503 122.936  0.00  0.00    -0.090 HD
ATOM     21  H   LIG d   1     -12.148  80.662 121.480  0.00  0.00    -0.090 HD
ENDBRANCH   5  18
BRANCH   3  22
ATOM     22  C   LIG d   1     -11.097  75.802 121.987  0.00  0.00     0.382 C 
ATOM     23  O   LIG d   1     -10.158  74.995 122.190  0.00  0.00    -0.241 OA
ATOM     24  O   LIG d   1     -12.246  75.517 122.377  0.00  0.00    -0.241 OA
ENDBRANCH   3  22
TORSDOF 7
ENDMDL
MODEL 5
REMARK VINA RESULT:      -4.7     31.788     33.847
REMARK  7 active torsions:
REMARK  status: ('A' for Active; 'I' for Inactive)
REMARK    1  A    between atoms: C_2  and  C_3 
REMARK    2  A    between atoms: C_3  and  O_6 
REMARK    3  A    between atoms: C_3  and  C_4 
REMARK    4  A    between atoms: C_7  and  O_6 
REMARK    5  A    between atoms: C_9  and  C_10 
REMARK    6  A    between atoms: N_15  and  C_14 
REMARK    7  A    between atoms: N_20  and  C_19 
REMARK       I    between atoms: C_22  and  N_20 
ROOT
ATOM      1  C   LIG d   1      -2.704  91.797 118.156  0.00  0.00     0.161 C 
ATOM      2  C   LIG d   1      -3.249  90.732 117.419  0.00  0.00     0.016 C 
ATOM      3  C   LIG d   1      -4.533  90.770 116.829  0.00  0.00     0.038 C 
ATOM      4  C   LIG d   1      -5.305  91.942 116.807  0.00  0.00     0.028 C 
ATOM      5  C   LIG d   1      -5.011  92.882 117.971  0.00  0.00    -0.047 C 
ATOM      6  C   LIG d   1      -3.486  93.123 118.049  0.00  0.00     0.091 C 
ENDROOT
BRANCH   1   7
ATOM      7  O   LIG d   1      -1.327  91.996 117.782  0.00  0.00    -0.368 OA
BRANCH   7   8
ATOM      8  C   LIG d   1      -0.339  91.665 118.789  0.00  0.00     0.119 C 
BRANCH   8   9
ATOM      9  C   LIG d   1       0.760  92.744 118.732  0.00  0.00     0.028 C 
ATOM     10  C   LIG d   1       1.035  93.375 120.107  0.00  0.00     0.006 C 
ENDBRANCH   8   9
BRANCH   8  11
ATOM     11  C   LIG d   1       0.370  90.347 118.463  0.00  0.00     0.028 C 
ATOM     12  C   LIG d   1       0.390  90.038 116.957  0.00  0.00     0.006 C 
ENDBRANCH   8  11
ENDBRANCH   7   8
ENDBRANCH   1   7
BRANCH   6  13
ATOM     13  N   LIG d   1      -3.103  93.966 119.212  0.00  0.00    -0.311 N 
ATOM     14  C   LIG d   1      -2.213  94.954 119.141  0.00  0.00     0.210 C 
ATOM     15  C   LIG d   1      -1.950  95.684 120.462  0.00  0.00     0.109 C 
ATOM     16  O   LIG d   1      -1.641  95.317 118.102  0.00  0.00    -0.276 OA
ATOM     17  H   LIG d   1      -3.543  93.760 120.088  0.00  0.00     0.149 HD
ENDBRANCH   6  13
BRANCH   5  18
ATOM     18  N   LIG d   1      -5.782  94.120 117.750  0.00  0.00     0.381 N 
ATOM     19  H   LIG d   1      -6.731  93.893 117.533  0.00  0.00    -0.090 HD
ATOM     20  H   LIG d   1      -5.388  94.613 116.968  0.00  0.00    -0.090 HD
ATOM     21  H   LIG d   1      -5.747  94.693 118.564  0.00  0.00    -0.090 HD
ENDBRANCH   5  18
BRANCH   3  22
ATOM     22  C   LIG d   1      -5.075  89.615 116.285  0.00  0.00     0.382 C 
ATOM     23  O   LIG d   1      -6.315  89.432 116.312  0.00  0.00    -0.241 OA
ATOM     24  O   LIG d   1      -4.334  88.734 115.810  0.00  0.00    -0.241 OA
ENDBRANCH   3  22
TORSDOF 7
ENDMDL
MODEL 6
REMARK VINA RESULT:      -4.7     19.493     22.002
REMARK  7 active torsions:
REMARK  status: ('A' for Active; 'I' for Inactive)
REMARK    1  A    between atoms: C_2  and  C_3 
REMARK    2  A    between atoms: C_3  and  O_6 
REMARK    3  A    between atoms: C_3  and  C_4 
REMARK    4  A    between atoms: C_7  and  O_6 
REMARK    5  A    between atoms: C_9  and  C_10 
REMARK    6  A    between atoms: N_15  and  C_14 
REMARK    7  A    between atoms: N_20  and  C_19 
REMARK       I    between atoms: C_22  and  N_20 
ROOT
ATOM      1  C   LIG d   1      -7.441  79.997 117.726  0.00  0.00     0.161 C 
ATOM      2  C   LIG d   1      -6.404  79.164 117.277  0.00  0.00     0.016 C 
ATOM      3  C   LIG d   1      -5.108  79.161 117.842  0.00  0.00     0.038 C 
ATOM      4  C   LIG d   1      -4.803  79.890 119.001  0.00  0.00     0.028 C 
ATOM      5  C   LIG d   1      -5.674  81.127 119.185  0.00  0.00    -0.047 C 
ATOM      6  C   LIG d   1      -7.160  80.718 119.061  0.00  0.00     0.091 C 
ENDROOT
BRANCH   1   7
ATOM      7  O   LIG d   1      -8.669  79.247 117.811  0.00  0.00    -0.368 OA
BRANCH   7   8
ATOM      8  C   LIG d   1      -8.568  77.923 118.392  0.00  0.00     0.119 C 
BRANCH   8   9
ATOM      9  C   LIG d   1      -9.271  76.942 117.434  0.00  0.00     0.028 C 
ATOM     10  C   LIG d   1      -8.279  76.013 116.714  0.00  0.00     0.006 C 
ENDBRANCH   8   9
BRANCH   8  11
ATOM     11  C   LIG d   1      -9.345  77.832 119.709  0.00  0.00     0.028 C 
ATOM     12  C   LIG d   1      -8.441  77.961 120.945  0.00  0.00     0.006 C 
ENDBRANCH   8  11
ENDBRANCH   7   8
ENDBRANCH   1   7
BRANCH   6  13
ATOM     13  N   LIG d   1      -8.078  81.884 119.145  0.00  0.00    -0.311 N 
ATOM     14  C   LIG d   1      -8.682  82.261 120.270  0.00  0.00     0.210 C 
ATOM     15  C   LIG d   1      -9.604  83.477 120.133  0.00  0.00     0.109 C 
ATOM     16  O   LIG d   1      -8.518  81.724 121.376  0.00  0.00    -0.276 OA
ATOM     17  H   LIG d   1      -8.244  82.396 118.301  0.00  0.00     0.149 HD
ENDBRANCH   6  13
BRANCH   5  18
ATOM     18  N   LIG d   1      -5.344  81.714 120.498  0.00  0.00     0.381 N 
ATOM     19  H   LIG d   1      -5.581  81.069 121.226  0.00  0.00    -0.090 HD
ATOM     20  H   LIG d   1      -5.888  82.549 120.627  0.00  0.00    -0.090 HD
ATOM     21  H   LIG d   1      -4.373  81.931 120.540  0.00  0.00    -0.090 HD
ENDBRANCH   5  18
BRANCH   3  22
ATOM     22  C   LIG d   1      -4.089  78.454 117.221  0.00  0.00     0.382 C 
ATOM     23  O   LIG d   1      -4.019  78.425 115.969  0.00  0.00    -0.241 OA
ATOM     24  O   LIG d   1      -3.265  77.809 117.897  0.00  0.00    -0.241 OA
ENDBRANCH   3  22
TORSDOF 7
ENDMDL
MODEL 7
REMARK VINA RESULT:      -4.7     21.304     23.300
REMARK  7 active torsions:
REMARK  status: ('A' for Active; 'I' for Inactive)
REMARK    1  A    between atoms: C_2  and  C_3 
REMARK    2  A    between atoms: C_3  and  O_6 
REMARK    3  A    between atoms: C_3  and  C_4 
REMARK    4  A    between atoms: C_7  and  O_6 
REMARK    5  A    between atoms: C_9  and  C_10 
REMARK    6  A    between atoms: N_15  and  C_14 
REMARK    7  A    between atoms: N_20  and  C_19 
REMARK       I    between atoms: C_22  and  N_20 
ROOT
ATOM      1  C   LIG d   1      -8.243  80.908 120.066  0.00  0.00     0.161 C 
ATOM      2  C   LIG d   1      -8.511  79.617 119.581  0.00  0.00     0.016 C 
ATOM      3  C   LIG d   1      -9.171  79.367 118.357  0.00  0.00     0.038 C 
ATOM      4  C   LIG d   1      -9.477  80.398 117.455  0.00  0.00     0.028 C 
ATOM      5  C   LIG d   1      -9.681  81.751 118.129  0.00  0.00    -0.047 C 
ATOM      6  C   LIG d   1      -8.470  82.043 119.045  0.00  0.00     0.091 C 
ENDROOT
BRANCH   1   7
ATOM      7  O   LIG d   1      -6.901  80.966 120.589  0.00  0.00    -0.368 OA
BRANCH   7   8
ATOM      8  C   LIG d   1      -5.865  81.334 119.645  0.00  0.00     0.119 C 
BRANCH   8   9
ATOM      9  C   LIG d   1      -5.128  80.042 119.241  0.00  0.00     0.028 C 
ATOM     10  C   LIG d   1      -5.435  79.620 117.794  0.00  0.00     0.006 C 
ENDBRANCH   8   9
BRANCH   8  11
ATOM     11  C   LIG d   1      -4.802  82.218 120.303  0.00  0.00     0.028 C 
ATOM     12  C   LIG d   1      -3.369  81.761 119.988  0.00  0.00     0.006 C 
ENDBRANCH   8  11
ENDBRANCH   7   8
ENDBRANCH   1   7
BRANCH   6  13
ATOM     13  N   LIG d   1      -8.628  83.309 119.807  0.00  0.00    -0.311 N 
ATOM     14  C   LIG d   1      -9.433  83.435 120.861  0.00  0.00     0.210 C 
ATOM     15  C   LIG d   1      -9.462  84.832 121.488  0.00  0.00     0.109 C 
ATOM     16  O   LIG d   1     -10.100  82.514 121.356  0.00  0.00    -0.276 OA
ATOM     17  H   LIG d   1      -8.100  84.099 119.493  0.00  0.00     0.149 HD
ENDBRANCH   6  13
BRANCH   5  18
ATOM     18  N   LIG d   1      -9.856  82.757 117.064  0.00  0.00     0.381 N 
ATOM     19  H   LIG d   1     -10.262  83.587 117.447  0.00  0.00    -0.090 HD
ATOM     20  H   LIG d   1     -10.483  82.390 116.370  0.00  0.00    -0.090 HD
ATOM     21  H   LIG d   1      -8.976  82.969 116.648  0.00  0.00    -0.090 HD
ENDBRANCH   5  18
BRANCH   3  22
ATOM     22  C   LIG d   1      -9.569  78.077 118.041  0.00  0.00     0.382 C 
ATOM     23  O   LIG d   1      -8.850  77.363 117.300  0.00  0.00    -0.241 OA
ATOM     24  O   LIG d   1     -10.657  77.633 118.452  0.00  0.00    -0.241 OA
ENDBRANCH   3  22
TORSDOF 7
ENDMDL
MODEL 8
REMARK VINA RESULT:      -4.7     19.307     21.327
REMARK  7 active torsions:
REMARK  status: ('A' for Active; 'I' for Inactive)
REMARK    1  A    between atoms: C_2  and  C_3 
REMARK    2  A    between atoms: C_3  and  O_6 
REMARK    3  A    between atoms: C_3  and  C_4 
REMARK    4  A    between atoms: C_7  and  O_6 
REMARK    5  A    between atoms: C_9  and  C_10 
REMARK    6  A    between atoms: N_15  and  C_14 
REMARK    7  A    between atoms: N_20  and  C_19 
REMARK       I    between atoms: C_22  and  N_20 
ROOT
ATOM      1  C   LIG d   1      -6.072  79.446 118.260  0.00  0.00     0.161 C 
ATOM      2  C   LIG d   1      -7.443  79.440 118.570  0.00  0.00     0.016 C 
ATOM      3  C   LIG d   1      -8.355  78.496 118.046  0.00  0.00     0.038 C 
ATOM      4  C   LIG d   1      -7.929  77.394 117.290  0.00  0.00     0.028 C 
ATOM      5  C   LIG d   1      -6.627  77.643 116.537  0.00  0.00    -0.047 C 
ATOM      6  C   LIG d   1      -5.570  78.185 117.526  0.00  0.00     0.091 C 
ENDROOT
BRANCH   1   7
ATOM      7  O   LIG d   1      -5.302  79.668 119.458  0.00  0.00    -0.368 OA
BRANCH   7   8
ATOM      8  C   LIG d   1      -4.528  80.892 119.499  0.00  0.00     0.119 C 
BRANCH   8   9
ATOM      9  C   LIG d   1      -3.062  80.504 119.773  0.00  0.00     0.028 C 
ATOM     10  C   LIG d   1      -2.079  81.632 119.417  0.00  0.00     0.006 C 
ENDBRANCH   8   9
BRANCH   8  11
ATOM     11  C   LIG d   1      -4.942  81.774 120.681  0.00  0.00     0.028 C 
ATOM     12  C   LIG d   1      -6.138  82.682 120.357  0.00  0.00     0.006 C 
ENDBRANCH   8  11
ENDBRANCH   7   8
ENDBRANCH   1   7
BRANCH   6  13
ATOM     13  N   LIG d   1      -4.291  78.534 116.855  0.00  0.00    -0.311 N 
ATOM     14  C   LIG d   1      -3.244  77.713 116.800  0.00  0.00     0.210 C 
ATOM     15  C   LIG d   1      -2.017  78.278 116.077  0.00  0.00     0.109 C 
ATOM     16  O   LIG d   1      -3.226  76.559 117.253  0.00  0.00    -0.276 OA
ATOM     17  H   LIG d   1      -4.230  79.440 116.434  0.00  0.00     0.149 HD
ENDBRANCH   6  13
BRANCH   5  18
ATOM     18  N   LIG d   1      -6.228  76.371 115.904  0.00  0.00     0.381 N 
ATOM     19  H   LIG d   1      -6.895  76.117 115.203  0.00  0.00    -0.090 HD
ATOM     20  H   LIG d   1      -6.215  75.650 116.603  0.00  0.00    -0.090 HD
ATOM     21  H   LIG d   1      -5.324  76.463 115.495  0.00  0.00    -0.090 HD
ENDBRANCH   5  18
BRANCH   3  22
ATOM     22  C   LIG d   1      -9.716  78.673 118.243  0.00  0.00     0.382 C 
ATOM     23  O   LIG d   1     -10.193  79.830 118.324  0.00  0.00    -0.241 OA
ATOM     24  O   LIG d   1     -10.467  77.689 118.387  0.00  0.00    -0.241 OA
ENDBRANCH   3  22
TORSDOF 7
ENDMDL
MODEL 9
REMARK VINA RESULT:      -4.7     20.671     22.495
REMARK  7 active torsions:
REMARK  status: ('A' for Active; 'I' for Inactive)
REMARK    1  A    between atoms: C_2  and  C_3 
REMARK    2  A    between atoms: C_3  and  O_6 
REMARK    3  A    between atoms: C_3  and  C_4 
REMARK    4  A    between atoms: C_7  and  O_6 
REMARK    5  A    between atoms: C_9  and  C_10 
REMARK    6  A    between atoms: N_15  and  C_14 
REMARK    7  A    between atoms: N_20  and  C_19 
REMARK       I    between atoms: C_22  and  N_20 
ROOT
ATOM      1  C   LIG d   1      -6.904  80.300 119.035  0.00  0.00     0.161 C 
ATOM      2  C   LIG d   1      -7.582  79.139 118.628  0.00  0.00     0.016 C 
ATOM      3  C   LIG d   1      -8.941  79.128 118.235  0.00  0.00     0.038 C 
ATOM      4  C   LIG d   1      -9.676  80.312 118.077  0.00  0.00     0.028 C 
ATOM      5  C   LIG d   1      -9.183  81.454 118.959  0.00  0.00    -0.047 C 
ATOM      6  C   LIG d   1      -7.659  81.619 118.762  0.00  0.00     0.091 C 
ENDROOT
BRANCH   1   7
ATOM      7  O   LIG d   1      -5.596  80.338 118.432  0.00  0.00    -0.368 OA
BRANCH   7   8
ATOM      8  C   LIG d   1      -4.520  79.756 119.208  0.00  0.00     0.119 C 
BRANCH   8   9
ATOM      9  C   LIG d   1      -3.428  80.832 119.367  0.00  0.00     0.028 C 
ATOM     10  C   LIG d   1      -3.607  81.665 120.648  0.00  0.00     0.006 C 
ENDBRANCH   8   9
BRANCH   8  11
ATOM     11  C   LIG d   1      -3.848  78.605 118.453  0.00  0.00     0.028 C 
ATOM     12  C   LIG d   1      -4.324  78.490 116.996  0.00  0.00     0.006 C 
ENDBRANCH   8  11
ENDBRANCH   7   8
ENDBRANCH   1   7
BRANCH   6  13
ATOM     13  N   LIG d   1      -7.081  82.660 119.652  0.00  0.00    -0.311 N 
ATOM     14  C   LIG d   1      -7.197  82.636 120.979  0.00  0.00     0.210 C 
ATOM     15  C   LIG d   1      -6.545  83.817 121.705  0.00  0.00     0.109 C 
ATOM     16  O   LIG d   1      -7.750  81.734 121.625  0.00  0.00    -0.276 OA
ATOM     17  H   LIG d   1      -6.589  83.413 119.213  0.00  0.00     0.149 HD
ENDBRANCH   6  13
BRANCH   5  18
ATOM     18  N   LIG d   1      -9.947  82.662 118.593  0.00  0.00     0.381 N 
ATOM     19  H   LIG d   1      -9.319  83.390 118.320  0.00  0.00    -0.090 HD
ATOM     20  H   LIG d   1     -10.463  82.975 119.396  0.00  0.00    -0.090 HD
ATOM     21  H   LIG d   1     -10.574  82.456 117.847  0.00  0.00    -0.090 HD
ENDBRANCH   5  18
BRANCH   3  22
ATOM     22  C   LIG d   1      -9.588  77.919 118.035  0.00  0.00     0.382 C 
ATOM     23  O   LIG d   1      -9.035  77.015 117.363  0.00  0.00    -0.241 OA
ATOM     24  O   LIG d   1     -10.737  77.736 118.479  0.00  0.00    -0.241 OA
ENDBRANCH   3  22
TORSDOF 7
ENDMDL
