MODEL 1
REMARK VINA RESULT:      -5.7      0.000      0.000
REMARK  7 active torsions:
REMARK  status: ('A' for Active; 'I' for Inactive)
REMARK    1  A    between atoms: C_2  and  C_3 
REMARK    2  A    between atoms: C_3  and  O_6 
REMARK    3  A    between atoms: C_3  and  C_4 
REMARK    4  A    between atoms: C_7  and  O_6 
REMARK    5  A    between atoms: C_9  and  C_10 
REMARK    6  A    between atoms: N_15  and  C_14 
REMARK    7  A    between atoms: N_20  and  C_19 
REMARK       I    between atoms: C_22  and  N_20 
ROOT
ATOM      1  C   LIG d   1      -7.253  75.656 116.799  0.00  0.00     0.161 C 
ATOM      2  C   LIG d   1      -8.089  74.543 116.986  0.00  0.00     0.016 C 
ATOM      3  C   LIG d   1      -7.637  73.206 116.896  0.00  0.00     0.038 C 
ATOM      4  C   LIG d   1      -6.277  72.891 116.759  0.00  0.00     0.028 C 
ATOM      5  C   LIG d   1      -5.469  73.981 116.062  0.00  0.00    -0.047 C 
ATOM      6  C   LIG d   1      -5.744  75.333 116.759  0.00  0.00     0.091 C 
ENDROOT
BRANCH   1   7
ATOM      7  O   LIG d   1      -7.526  76.648 117.808  0.00  0.00    -0.368 OA
BRANCH   7   8
ATOM      8  C   LIG d   1      -8.304  77.794 117.382  0.00  0.00     0.119 C 
BRANCH   8   9
ATOM      9  C   LIG d   1      -7.371  79.020 117.400  0.00  0.00     0.028 C 
ATOM     10  C   LIG d   1      -8.129  80.330 117.673  0.00  0.00     0.006 C 
ENDBRANCH   8   9
BRANCH   8  11
ATOM     11  C   LIG d   1      -9.417  78.116 118.384  0.00  0.00     0.028 C 
ATOM     12  C   LIG d   1     -10.381  76.939 118.602  0.00  0.00     0.006 C 
ENDBRANCH   8  11
ENDBRANCH   7   8
ENDBRANCH   1   7
BRANCH   6  13
ATOM     13  N   LIG d   1      -5.059  76.467 116.087  0.00  0.00    -0.311 N 
ATOM     14  C   LIG d   1      -4.183  77.262 116.700  0.00  0.00     0.210 C 
ATOM     15  C   LIG d   1      -3.608  78.384 115.829  0.00  0.00     0.109 C 
ATOM     16  O   LIG d   1      -3.804  77.125 117.872  0.00  0.00    -0.276 OA
ATOM     17  H   LIG d   1      -5.284  76.631 115.125  0.00  0.00     0.149 HD
ENDBRANCH   6  13
BRANCH   5  18
ATOM     18  N   LIG d   1      -4.050  73.584 116.110  0.00  0.00     0.381 N 
ATOM     19  H   LIG d   1      -3.530  74.249 116.646  0.00  0.00    -0.090 HD
ATOM     20  H   LIG d   1      -3.682  73.576 115.175  0.00  0.00    -0.090 HD
ATOM     21  H   LIG d   1      -3.962  72.678 116.516  0.00  0.00    -0.090 HD
ENDBRANCH   5  18
BRANCH   3  22
ATOM     22  C   LIG d   1      -8.556  72.168 116.902  0.00  0.00     0.382 C 
ATOM     23  O   LIG d   1      -9.761  72.399 117.163  0.00  0.00    -0.241 OA
ATOM     24  O   LIG d   1      -8.187  70.997 116.692  0.00  0.00    -0.241 OA
ENDBRANCH   3  22
TORSDOF 7
ENDMDL
MODEL 2
REMARK VINA RESULT:      -5.2      2.302      3.774
REMARK  7 active torsions:
REMARK  status: ('A' for Active; 'I' for Inactive)
REMARK    1  A    between atoms: C_2  and  C_3 
REMARK    2  A    between atoms: C_3  and  O_6 
REMARK    3  A    between atoms: C_3  and  C_4 
REMARK    4  A    between atoms: C_7  and  O_6 
REMARK    5  A    between atoms: C_9  and  C_10 
REMARK    6  A    between atoms: N_15  and  C_14 
REMARK    7  A    between atoms: N_20  and  C_19 
REMARK       I    between atoms: C_22  and  N_20 
ROOT
ATOM      1  C   LIG d   1      -7.182  76.895 116.230  0.00  0.00     0.161 C 
ATOM      2  C   LIG d   1      -6.742  75.570 116.072  0.00  0.00     0.016 C 
ATOM      3  C   LIG d   1      -5.570  75.062 116.679  0.00  0.00     0.038 C 
ATOM      4  C   LIG d   1      -4.836  75.808 117.613  0.00  0.00     0.028 C 
ATOM      5  C   LIG d   1      -4.958  77.315 117.416  0.00  0.00    -0.047 C 
ATOM      6  C   LIG d   1      -6.455  77.691 117.334  0.00  0.00     0.091 C 
ENDROOT
BRANCH   1   7
ATOM      7  O   LIG d   1      -8.606  76.913 116.454  0.00  0.00    -0.368 OA
BRANCH   7   8
ATOM      8  C   LIG d   1      -9.111  75.963 117.424  0.00  0.00     0.119 C 
BRANCH   8   9
ATOM      9  C   LIG d   1      -9.925  74.905 116.654  0.00  0.00     0.028 C 
ATOM     10  C   LIG d   1      -9.618  73.473 117.124  0.00  0.00     0.006 C 
ENDBRANCH   8   9
BRANCH   8  11
ATOM     11  C   LIG d   1     -10.106  76.621 118.383  0.00  0.00     0.028 C 
ATOM     12  C   LIG d   1      -9.870  78.132 118.543  0.00  0.00     0.006 C 
ENDBRANCH   8  11
ENDBRANCH   7   8
ENDBRANCH   1   7
BRANCH   6  13
ATOM     13  N   LIG d   1      -6.662  79.136 117.057  0.00  0.00    -0.311 N 
ATOM     14  C   LIG d   1      -6.834  80.048 118.012  0.00  0.00     0.210 C 
ATOM     15  C   LIG d   1      -7.051  81.479 117.509  0.00  0.00     0.109 C 
ATOM     16  O   LIG d   1      -6.795  79.814 119.229  0.00  0.00    -0.276 OA
ATOM     17  H   LIG d   1      -6.677  79.419 116.097  0.00  0.00     0.149 HD
ENDBRANCH   6  13
BRANCH   5  18
ATOM     18  N   LIG d   1      -4.258  77.969 118.537  0.00  0.00     0.381 N 
ATOM     19  H   LIG d   1      -3.384  77.512 118.704  0.00  0.00    -0.090 HD
ATOM     20  H   LIG d   1      -4.821  77.885 119.365  0.00  0.00    -0.090 HD
ATOM     21  H   LIG d   1      -4.104  78.931 118.328  0.00  0.00    -0.090 HD
ENDBRANCH   5  18
BRANCH   3  22
ATOM     22  C   LIG d   1      -5.100  73.808 116.322  0.00  0.00     0.382 C 
ATOM     23  O   LIG d   1      -3.947  73.683 115.843  0.00  0.00    -0.241 OA
ATOM     24  O   LIG d   1      -5.831  72.805 116.431  0.00  0.00    -0.241 OA
ENDBRANCH   3  22
TORSDOF 7
ENDMDL
MODEL 3
REMARK VINA RESULT:      -5.2      2.393      5.332
REMARK  7 active torsions:
REMARK  status: ('A' for Active; 'I' for Inactive)
REMARK    1  A    between atoms: C_2  and  C_3 
REMARK    2  A    between atoms: C_3  and  O_6 
REMARK    3  A    between atoms: C_3  and  C_4 
REMARK    4  A    between atoms: C_7  and  O_6 
REMARK    5  A    between atoms: C_9  and  C_10 
REMARK    6  A    between atoms: N_15  and  C_14 
REMARK    7  A    between atoms: N_20  and  C_19 
REMARK       I    between atoms: C_22  and  N_20 
ROOT
ATOM      1  C   LIG d   1      -5.978  76.820 116.901  0.00  0.00     0.161 C 
ATOM      2  C   LIG d   1      -6.423  78.110 117.238  0.00  0.00     0.016 C 
ATOM      3  C   LIG d   1      -7.770  78.415 117.539  0.00  0.00     0.038 C 
ATOM      4  C   LIG d   1      -8.745  77.415 117.672  0.00  0.00     0.028 C 
ATOM      5  C   LIG d   1      -8.448  76.166 116.848  0.00  0.00    -0.047 C 
ATOM      6  C   LIG d   1      -7.007  75.697 117.150  0.00  0.00     0.091 C 
ENDROOT
BRANCH   1   7
ATOM      7  O   LIG d   1      -4.746  76.533 117.590  0.00  0.00    -0.368 OA
BRANCH   7   8
ATOM      8  C   LIG d   1      -4.205  77.603 118.404  0.00  0.00     0.119 C 
BRANCH   8   9
ATOM      9  C   LIG d   1      -2.814  77.953 117.843  0.00  0.00     0.028 C 
ATOM     10  C   LIG d   1      -2.843  79.191 116.931  0.00  0.00     0.006 C 
ENDBRANCH   8   9
BRANCH   8  11
ATOM     11  C   LIG d   1      -3.958  77.139 119.842  0.00  0.00     0.028 C 
ATOM     12  C   LIG d   1      -5.117  76.301 120.406  0.00  0.00     0.006 C 
ENDBRANCH   8  11
ENDBRANCH   7   8
ENDBRANCH   1   7
BRANCH   6  13
ATOM     13  N   LIG d   1      -6.606  74.529 116.322  0.00  0.00    -0.311 N 
ATOM     14  C   LIG d   1      -6.154  73.386 116.836  0.00  0.00     0.210 C 
ATOM     15  C   LIG d   1      -5.778  72.318 115.805  0.00  0.00     0.109 C 
ATOM     16  O   LIG d   1      -6.060  73.145 118.049  0.00  0.00    -0.276 OA
ATOM     17  H   LIG d   1      -6.680  74.627 115.328  0.00  0.00     0.149 HD
ENDBRANCH   6  13
BRANCH   5  18
ATOM     18  N   LIG d   1      -9.468  75.156 117.187  0.00  0.00     0.381 N 
ATOM     19  H   LIG d   1      -9.041  74.393 117.673  0.00  0.00    -0.090 HD
ATOM     20  H   LIG d   1      -9.870  74.802 116.336  0.00  0.00    -0.090 HD
ATOM     21  H   LIG d   1     -10.178  75.565 117.754  0.00  0.00    -0.090 HD
ENDBRANCH   5  18
BRANCH   3  22
ATOM     22  C   LIG d   1      -8.162  79.738 117.671  0.00  0.00     0.382 C 
ATOM     23  O   LIG d   1      -7.579  80.633 117.014  0.00  0.00    -0.241 OA
ATOM     24  O   LIG d   1      -9.062  80.053 118.473  0.00  0.00    -0.241 OA
ENDBRANCH   3  22
TORSDOF 7
ENDMDL
MODEL 4
REMARK VINA RESULT:      -5.1      2.401      4.624
REMARK  7 active torsions:
REMARK  status: ('A' for Active; 'I' for Inactive)
REMARK    1  A    between atoms: C_2  and  C_3 
REMARK    2  A    between atoms: C_3  and  O_6 
REMARK    3  A    between atoms: C_3  and  C_4 
REMARK    4  A    between atoms: C_7  and  O_6 
REMARK    5  A    between atoms: C_9  and  C_10 
REMARK    6  A    between atoms: N_15  and  C_14 
REMARK    7  A    between atoms: N_20  and  C_19 
REMARK       I    between atoms: C_22  and  N_20 
ROOT
ATOM      1  C   LIG d   1      -6.632  77.222 116.958  0.00  0.00     0.161 C 
ATOM      2  C   LIG d   1      -7.067  75.905 116.731  0.00  0.00     0.016 C 
ATOM      3  C   LIG d   1      -8.360  75.444 117.067  0.00  0.00     0.038 C 
ATOM      4  C   LIG d   1      -9.364  76.313 117.518  0.00  0.00     0.028 C 
ATOM      5  C   LIG d   1      -8.821  77.544 118.237  0.00  0.00    -0.047 C 
ATOM      6  C   LIG d   1      -7.749  78.213 117.347  0.00  0.00     0.091 C 
ENDROOT
BRANCH   1   7
ATOM      7  O   LIG d   1      -5.912  77.704 115.807  0.00  0.00    -0.368 OA
BRANCH   7   8
ATOM      8  C   LIG d   1      -4.480  77.849 115.966  0.00  0.00     0.119 C 
BRANCH   8   9
ATOM      9  C   LIG d   1      -4.077  77.094 117.247  0.00  0.00     0.028 C 
ATOM     10  C   LIG d   1      -3.145  75.905 116.960  0.00  0.00     0.006 C 
ENDBRANCH   8   9
BRANCH   8  11
ATOM     11  C   LIG d   1      -4.091  79.309 116.216  0.00  0.00     0.028 C 
ATOM     12  C   LIG d   1      -3.443  79.525 117.593  0.00  0.00     0.006 C 
ENDBRANCH   8  11
ENDBRANCH   7   8
ENDBRANCH   1   7
BRANCH   6  13
ATOM     13  N   LIG d   1      -7.106  79.377 118.012  0.00  0.00    -0.311 N 
ATOM     14  C   LIG d   1      -7.456  80.640 117.777  0.00  0.00     0.210 C 
ATOM     15  C   LIG d   1      -6.652  81.688 118.553  0.00  0.00     0.109 C 
ATOM     16  O   LIG d   1      -8.377  80.991 117.025  0.00  0.00    -0.276 OA
ATOM     17  H   LIG d   1      -6.370  79.181 118.661  0.00  0.00     0.149 HD
ENDBRANCH   6  13
BRANCH   5  18
ATOM     18  N   LIG d   1      -9.964  78.429 118.531  0.00  0.00     0.381 N 
ATOM     19  H   LIG d   1     -10.126  78.457 119.518  0.00  0.00    -0.090 HD
ATOM     20  H   LIG d   1     -10.785  78.057 118.087  0.00  0.00    -0.090 HD
ATOM     21  H   LIG d   1      -9.780  79.347 118.191  0.00  0.00    -0.090 HD
ENDBRANCH   5  18
BRANCH   3  22
ATOM     22  C   LIG d   1      -8.648  74.089 116.990  0.00  0.00     0.382 C 
ATOM     23  O   LIG d   1      -9.840  73.699 117.016  0.00  0.00    -0.241 OA
ATOM     24  O   LIG d   1      -7.729  73.250 116.940  0.00  0.00    -0.241 OA
ENDBRANCH   3  22
TORSDOF 7
ENDMDL
MODEL 5
REMARK VINA RESULT:      -5.0      1.683      2.571
REMARK  7 active torsions:
REMARK  status: ('A' for Active; 'I' for Inactive)
REMARK    1  A    between atoms: C_2  and  C_3 
REMARK    2  A    between atoms: C_3  and  O_6 
REMARK    3  A    between atoms: C_3  and  C_4 
REMARK    4  A    between atoms: C_7  and  O_6 
REMARK    5  A    between atoms: C_9  and  C_10 
REMARK    6  A    between atoms: N_15  and  C_14 
REMARK    7  A    between atoms: N_20  and  C_19 
REMARK       I    between atoms: C_22  and  N_20 
ROOT
ATOM      1  C   LIG d   1      -6.292  76.608 116.667  0.00  0.00     0.161 C 
ATOM      2  C   LIG d   1      -7.632  76.243 116.873  0.00  0.00     0.016 C 
ATOM      3  C   LIG d   1      -8.073  74.901 116.936  0.00  0.00     0.038 C 
ATOM      4  C   LIG d   1      -7.172  73.825 116.947  0.00  0.00     0.028 C 
ATOM      5  C   LIG d   1      -5.858  74.127 116.235  0.00  0.00    -0.047 C 
ATOM      6  C   LIG d   1      -5.280  75.449 116.789  0.00  0.00     0.091 C 
ENDROOT
BRANCH   1   7
ATOM      7  O   LIG d   1      -5.935  77.681 117.561  0.00  0.00    -0.368 OA
BRANCH   7   8
ATOM      8  C   LIG d   1      -6.058  79.022 117.028  0.00  0.00     0.119 C 
BRANCH   8   9
ATOM      9  C   LIG d   1      -4.667  79.681 117.104  0.00  0.00     0.028 C 
ATOM     10  C   LIG d   1      -4.043  79.573 118.506  0.00  0.00     0.006 C 
ENDBRANCH   8   9
BRANCH   8  11
ATOM     11  C   LIG d   1      -6.966  79.889 117.906  0.00  0.00     0.028 C 
ATOM     12  C   LIG d   1      -7.214  81.284 117.311  0.00  0.00     0.006 C 
ENDBRANCH   8  11
ENDBRANCH   7   8
ENDBRANCH   1   7
BRANCH   6  13
ATOM     13  N   LIG d   1      -4.037  75.862 116.087  0.00  0.00    -0.311 N 
ATOM     14  C   LIG d   1      -2.944  76.286 116.720  0.00  0.00     0.210 C 
ATOM     15  C   LIG d   1      -1.780  76.682 115.805  0.00  0.00     0.109 C 
ATOM     16  O   LIG d   1      -2.817  76.341 117.952  0.00  0.00    -0.276 OA
ATOM     17  H   LIG d   1      -4.042  75.819 115.087  0.00  0.00     0.149 HD
ENDBRANCH   6  13
BRANCH   5  18
ATOM     18  N   LIG d   1      -4.963  72.973 116.442  0.00  0.00     0.381 N 
ATOM     19  H   LIG d   1      -4.970  72.389 115.630  0.00  0.00    -0.090 HD
ATOM     20  H   LIG d   1      -5.301  72.435 117.221  0.00  0.00    -0.090 HD
ATOM     21  H   LIG d   1      -4.036  73.289 116.625  0.00  0.00    -0.090 HD
ENDBRANCH   5  18
BRANCH   3  22
ATOM     22  C   LIG d   1      -9.431  74.623 116.947  0.00  0.00     0.382 C 
ATOM     23  O   LIG d   1      -9.827  73.434 117.007  0.00  0.00    -0.241 OA
ATOM     24  O   LIG d   1     -10.265  75.543 116.854  0.00  0.00    -0.241 OA
ENDBRANCH   3  22
TORSDOF 7
ENDMDL
MODEL 6
REMARK VINA RESULT:      -4.9     16.207     18.924
REMARK  7 active torsions:
REMARK  status: ('A' for Active; 'I' for Inactive)
REMARK    1  A    between atoms: C_2  and  C_3 
REMARK    2  A    between atoms: C_3  and  O_6 
REMARK    3  A    between atoms: C_3  and  C_4 
REMARK    4  A    between atoms: C_7  and  O_6 
REMARK    5  A    between atoms: C_9  and  C_10 
REMARK    6  A    between atoms: N_15  and  C_14 
REMARK    7  A    between atoms: N_20  and  C_19 
REMARK       I    between atoms: C_22  and  N_20 
ROOT
ATOM      1  C   LIG d   1      -5.559  93.675 119.324  0.00  0.00     0.161 C 
ATOM      2  C   LIG d   1      -5.377  92.585 118.457  0.00  0.00     0.016 C 
ATOM      3  C   LIG d   1      -6.222  92.318 117.355  0.00  0.00     0.038 C 
ATOM      4  C   LIG d   1      -7.224  93.214 116.955  0.00  0.00     0.028 C 
ATOM      5  C   LIG d   1      -7.766  94.067 118.097  0.00  0.00    -0.047 C 
ATOM      6  C   LIG d   1      -6.579  94.725 118.838  0.00  0.00     0.091 C 
ENDROOT
BRANCH   1   7
ATOM      7  O   LIG d   1      -4.289  94.299 119.598  0.00  0.00    -0.368 OA
BRANCH   7   8
ATOM      8  C   LIG d   1      -3.128  93.670 119.002  0.00  0.00     0.119 C 
BRANCH   8   9
ATOM      9  C   LIG d   1      -2.247  93.143 120.152  0.00  0.00     0.028 C 
ATOM     10  C   LIG d   1      -2.164  91.607 120.172  0.00  0.00     0.006 C 
ENDBRANCH   8   9
BRANCH   8  11
ATOM     11  C   LIG d   1      -2.259  94.690 118.261  0.00  0.00     0.028 C 
ATOM     12  C   LIG d   1      -1.133  94.034 117.447  0.00  0.00     0.006 C 
ENDBRANCH   8  11
ENDBRANCH   7   8
ENDBRANCH   1   7
BRANCH   6  13
ATOM     13  N   LIG d   1      -7.016  95.510 120.022  0.00  0.00    -0.311 N 
ATOM     14  C   LIG d   1      -7.287  96.813 119.979  0.00  0.00     0.210 C 
ATOM     15  C   LIG d   1      -7.702  97.432 121.317  0.00  0.00     0.109 C 
ATOM     16  O   LIG d   1      -7.255  97.508 118.952  0.00  0.00    -0.276 OA
ATOM     17  H   LIG d   1      -7.099  95.018 120.890  0.00  0.00     0.149 HD
ENDBRANCH   6  13
BRANCH   5  18
ATOM     18  N   LIG d   1      -8.701  95.048 117.516  0.00  0.00     0.381 N 
ATOM     19  H   LIG d   1      -9.585  94.989 117.980  0.00  0.00    -0.090 HD
ATOM     20  H   LIG d   1      -8.839  94.830 116.545  0.00  0.00    -0.090 HD
ATOM     21  H   LIG d   1      -8.330  95.968 117.608  0.00  0.00    -0.090 HD
ENDBRANCH   5  18
BRANCH   3  22
ATOM     22  C   LIG d   1      -6.093  91.122 116.665  0.00  0.00     0.382 C 
ATOM     23  O   LIG d   1      -7.116  90.519 116.260  0.00  0.00    -0.241 OA
ATOM     24  O   LIG d   1      -4.970  90.616 116.480  0.00  0.00    -0.241 OA
ENDBRANCH   3  22
TORSDOF 7
ENDMDL
MODEL 7
REMARK VINA RESULT:      -4.9      2.129      3.052
REMARK  7 active torsions:
REMARK  status: ('A' for Active; 'I' for Inactive)
REMARK    1  A    between atoms: C_2  and  C_3 
REMARK    2  A    between atoms: C_3  and  O_6 
REMARK    3  A    between atoms: C_3  and  C_4 
REMARK    4  A    between atoms: C_7  and  O_6 
REMARK    5  A    between atoms: C_9  and  C_10 
REMARK    6  A    between atoms: N_15  and  C_14 
REMARK    7  A    between atoms: N_20  and  C_19 
REMARK       I    between atoms: C_22  and  N_20 
ROOT
ATOM      1  C   LIG d   1      -6.967  77.062 116.927  0.00  0.00     0.161 C 
ATOM      2  C   LIG d   1      -7.173  75.714 116.590  0.00  0.00     0.016 C 
ATOM      3  C   LIG d   1      -6.490  74.644 117.213  0.00  0.00     0.038 C 
ATOM      4  C   LIG d   1      -5.660  74.841 118.327  0.00  0.00     0.028 C 
ATOM      5  C   LIG d   1      -5.034  76.231 118.376  0.00  0.00    -0.047 C 
ATOM      6  C   LIG d   1      -6.148  77.290 118.214  0.00  0.00     0.091 C 
ENDROOT
BRANCH   1   7
ATOM      7  O   LIG d   1      -8.235  77.743 117.012  0.00  0.00    -0.368 OA
BRANCH   7   8
ATOM      8  C   LIG d   1      -8.853  77.778 118.321  0.00  0.00     0.119 C 
BRANCH   8   9
ATOM      9  C   LIG d   1     -10.099  76.873 118.269  0.00  0.00     0.028 C 
ATOM     10  C   LIG d   1     -11.133  77.236 119.348  0.00  0.00     0.006 C 
ENDBRANCH   8   9
BRANCH   8  11
ATOM     11  C   LIG d   1      -9.381  79.177 118.652  0.00  0.00     0.028 C 
ATOM     12  C   LIG d   1      -8.732  80.276 117.795  0.00  0.00     0.006 C 
ENDBRANCH   8  11
ENDBRANCH   7   8
ENDBRANCH   1   7
BRANCH   6  13
ATOM     13  N   LIG d   1      -5.611  78.675 118.167  0.00  0.00    -0.311 N 
ATOM     14  C   LIG d   1      -5.523  79.464 119.236  0.00  0.00     0.210 C 
ATOM     15  C   LIG d   1      -4.959  80.862 118.964  0.00  0.00     0.109 C 
ATOM     16  O   LIG d   1      -5.828  79.128 120.390  0.00  0.00    -0.276 OA
ATOM     17  H   LIG d   1      -5.312  79.018 117.275  0.00  0.00     0.149 HD
ENDBRANCH   6  13
BRANCH   5  18
ATOM     18  N   LIG d   1      -4.307  76.347 119.654  0.00  0.00     0.381 N 
ATOM     19  H   LIG d   1      -4.493  75.546 120.223  0.00  0.00    -0.090 HD
ATOM     20  H   LIG d   1      -4.634  77.163 120.141  0.00  0.00    -0.090 HD
ATOM     21  H   LIG d   1      -3.328  76.423 119.484  0.00  0.00    -0.090 HD
ENDBRANCH   5  18
BRANCH   3  22
ATOM     22  C   LIG d   1      -6.605  73.362 116.696  0.00  0.00     0.382 C 
ATOM     23  O   LIG d   1      -5.742  72.930 115.894  0.00  0.00    -0.241 OA
ATOM     24  O   LIG d   1      -7.583  72.648 116.987  0.00  0.00    -0.241 OA
ENDBRANCH   3  22
TORSDOF 7
ENDMDL
MODEL 8
REMARK VINA RESULT:      -4.9      4.268      7.272
REMARK  7 active torsions:
REMARK  status: ('A' for Active; 'I' for Inactive)
REMARK    1  A    between atoms: C_2  and  C_3 
REMARK    2  A    between atoms: C_3  and  O_6 
REMARK    3  A    between atoms: C_3  and  C_4 
REMARK    4  A    between atoms: C_7  and  O_6 
REMARK    5  A    between atoms: C_9  and  C_10 
REMARK    6  A    between atoms: N_15  and  C_14 
REMARK    7  A    between atoms: N_20  and  C_19 
REMARK       I    between atoms: C_22  and  N_20 
ROOT
ATOM      1  C   LIG d   1      -6.703  80.313 117.299  0.00  0.00     0.161 C 
ATOM      2  C   LIG d   1      -5.365  80.118 117.679  0.00  0.00     0.016 C 
ATOM      3  C   LIG d   1      -4.772  80.755 118.793  0.00  0.00     0.038 C 
ATOM      4  C   LIG d   1      -5.524  81.519 119.697  0.00  0.00     0.028 C 
ATOM      5  C   LIG d   1      -6.763  82.151 119.073  0.00  0.00    -0.047 C 
ATOM      6  C   LIG d   1      -7.569  81.055 118.338  0.00  0.00     0.091 C 
ENDROOT
BRANCH   1   7
ATOM      7  O   LIG d   1      -7.304  79.047 116.959  0.00  0.00    -0.368 OA
BRANCH   7   8
ATOM      8  C   LIG d   1      -7.730  78.224 118.072  0.00  0.00     0.119 C 
BRANCH   8   9
ATOM      9  C   LIG d   1      -6.972  76.886 117.976  0.00  0.00     0.028 C 
ATOM     10  C   LIG d   1      -5.820  76.790 118.991  0.00  0.00     0.006 C 
ENDBRANCH   8   9
BRANCH   8  11
ATOM     11  C   LIG d   1      -9.213  77.859 117.960  0.00  0.00     0.028 C 
ATOM     12  C   LIG d   1      -9.438  76.379 117.612  0.00  0.00     0.006 C 
ENDBRANCH   8  11
ENDBRANCH   7   8
ENDBRANCH   1   7
BRANCH   6  13
ATOM     13  N   LIG d   1      -8.753  81.604 117.627  0.00  0.00    -0.311 N 
ATOM     14  C   LIG d   1      -9.981  81.609 118.144  0.00  0.00     0.210 C 
ATOM     15  C   LIG d   1     -11.062  82.203 117.236  0.00  0.00     0.109 C 
ATOM     16  O   LIG d   1     -10.271  81.208 119.281  0.00  0.00    -0.276 OA
ATOM     17  H   LIG d   1      -8.602  81.978 116.711  0.00  0.00     0.149 HD
ENDBRANCH   6  13
BRANCH   5  18
ATOM     18  N   LIG d   1      -7.525  82.802 120.155  0.00  0.00     0.381 N 
ATOM     19  H   LIG d   1      -7.404  83.794 120.105  0.00  0.00    -0.090 HD
ATOM     20  H   LIG d   1      -7.169  82.484 121.039  0.00  0.00    -0.090 HD
ATOM     21  H   LIG d   1      -8.492  82.574 120.076  0.00  0.00    -0.090 HD
ENDBRANCH   5  18
BRANCH   3  22
ATOM     22  C   LIG d   1      -3.402  80.662 118.988  0.00  0.00     0.382 C 
ATOM     23  O   LIG d   1      -2.722  81.702 119.162  0.00  0.00    -0.241 OA
ATOM     24  O   LIG d   1      -2.831  79.556 118.949  0.00  0.00    -0.241 OA
ENDBRANCH   3  22
TORSDOF 7
ENDMDL
MODEL 9
REMARK VINA RESULT:      -4.8      2.292      4.574
REMARK  7 active torsions:
REMARK  status: ('A' for Active; 'I' for Inactive)
REMARK    1  A    between atoms: C_2  and  C_3 
REMARK    2  A    between atoms: C_3  and  O_6 
REMARK    3  A    between atoms: C_3  and  C_4 
REMARK    4  A    between atoms: C_7  and  O_6 
REMARK    5  A    between atoms: C_9  and  C_10 
REMARK    6  A    between atoms: N_15  and  C_14 
REMARK    7  A    between atoms: N_20  and  C_19 
REMARK       I    between atoms: C_22  and  N_20 
ROOT
ATOM      1  C   LIG d   1      -5.172  75.970 117.247  0.00  0.00     0.161 C 
ATOM      2  C   LIG d   1      -5.536  74.647 116.944  0.00  0.00     0.016 C 
ATOM      3  C   LIG d   1      -6.876  74.229 116.774  0.00  0.00     0.038 C 
ATOM      4  C   LIG d   1      -7.940  75.142 116.745  0.00  0.00     0.028 C 
ATOM      5  C   LIG d   1      -7.671  76.411 117.547  0.00  0.00    -0.047 C 
ATOM      6  C   LIG d   1      -6.311  77.002 117.110  0.00  0.00     0.091 C 
ENDROOT
BRANCH   1   7
ATOM      7  O   LIG d   1      -4.042  76.362 116.443  0.00  0.00    -0.368 OA
BRANCH   7   8
ATOM      8  C   LIG d   1      -2.739  75.970 116.942  0.00  0.00     0.119 C 
BRANCH   8   9
ATOM      9  C   LIG d   1      -2.064  77.232 117.513  0.00  0.00     0.028 C 
ATOM     10  C   LIG d   1      -2.204  78.447 116.581  0.00  0.00     0.006 C 
ENDBRANCH   8   9
BRANCH   8  11
ATOM     11  C   LIG d   1      -1.825  75.501 115.805  0.00  0.00     0.028 C 
ATOM     12  C   LIG d   1      -0.814  74.435 116.255  0.00  0.00     0.006 C 
ENDBRANCH   8  11
ENDBRANCH   7   8
ENDBRANCH   1   7
BRANCH   6  13
ATOM     13  N   LIG d   1      -5.931  78.199 117.905  0.00  0.00    -0.311 N 
ATOM     14  C   LIG d   1      -5.603  79.368 117.358  0.00  0.00     0.210 C 
ATOM     15  C   LIG d   1      -5.225  80.466 118.358  0.00  0.00     0.109 C 
ATOM     16  O   LIG d   1      -5.621  79.610 116.142  0.00  0.00    -0.276 OA
ATOM     17  H   LIG d   1      -5.921  78.100 118.902  0.00  0.00     0.149 HD
ENDBRANCH   6  13
BRANCH   5  18
ATOM     18  N   LIG d   1      -8.801  77.331 117.319  0.00  0.00     0.381 N 
ATOM     19  H   LIG d   1      -8.462  78.204 116.969  0.00  0.00    -0.090 HD
ATOM     20  H   LIG d   1      -9.264  77.500 118.194  0.00  0.00    -0.090 HD
ATOM     21  H   LIG d   1      -9.441  76.930 116.669  0.00  0.00    -0.090 HD
ENDBRANCH   5  18
BRANCH   3  22
ATOM     22  C   LIG d   1      -7.165  72.877 116.668  0.00  0.00     0.382 C 
ATOM     23  O   LIG d   1      -8.273  72.440 117.064  0.00  0.00    -0.241 OA
ATOM     24  O   LIG d   1      -6.315  72.081 116.224  0.00  0.00    -0.241 OA
ENDBRANCH   3  22
TORSDOF 7
ENDMDL
