MODEL 1
REMARK VINA RESULT:      -6.0      0.000      0.000
REMARK  7 active torsions:
REMARK  status: ('A' for Active; 'I' for Inactive)
REMARK    1  A    between atoms: C_2  and  C_3 
REMARK    2  A    between atoms: C_3  and  O_6 
REMARK    3  A    between atoms: C_3  and  C_4 
REMARK    4  A    between atoms: C_7  and  O_6 
REMARK    5  A    between atoms: C_9  and  C_10 
REMARK    6  A    between atoms: N_15  and  C_14 
REMARK    7  A    between atoms: N_20  and  C_19 
REMARK       I    between atoms: C_22  and  N_20 
ROOT
ATOM      1  C   LIG d   1       2.417  84.247 111.664  0.00  0.00     0.161 C 
ATOM      2  C   LIG d   1       1.430  85.186 112.009  0.00  0.00     0.016 C 
ATOM      3  C   LIG d   1       0.090  85.105 111.564  0.00  0.00     0.038 C 
ATOM      4  C   LIG d   1      -0.392  83.991 110.862  0.00  0.00     0.028 C 
ATOM      5  C   LIG d   1       0.685  83.266 110.062  0.00  0.00    -0.047 C 
ATOM      6  C   LIG d   1       1.883  82.965 110.991  0.00  0.00     0.091 C 
ENDROOT
BRANCH   1   7
ATOM      7  O   LIG d   1       3.201  83.914 112.826  0.00  0.00    -0.368 OA
BRANCH   7   8
ATOM      8  C   LIG d   1       3.465  84.998 113.750  0.00  0.00     0.119 C 
BRANCH   8   9
ATOM      9  C   LIG d   1       4.912  85.470 113.510  0.00  0.00     0.028 C 
ATOM     10  C   LIG d   1       4.978  86.903 112.957  0.00  0.00     0.006 C 
ENDBRANCH   8   9
BRANCH   8  11
ATOM     11  C   LIG d   1       3.432  84.514 115.202  0.00  0.00     0.028 C 
ATOM     12  C   LIG d   1       2.023  84.564 115.815  0.00  0.00     0.006 C 
ENDBRANCH   8  11
ENDBRANCH   7   8
ENDBRANCH   1   7
BRANCH   6  13
ATOM     13  N   LIG d   1       3.016  82.332 110.267  0.00  0.00    -0.311 N 
ATOM     14  C   LIG d   1       3.108  81.020 110.054  0.00  0.00     0.210 C 
ATOM     15  C   LIG d   1       4.368  80.574 109.305  0.00  0.00     0.109 C 
ATOM     16  O   LIG d   1       2.251  80.188 110.386  0.00  0.00    -0.276 OA
ATOM     17  H   LIG d   1       3.742  82.937 109.936  0.00  0.00     0.149 HD
ENDBRANCH   6  13
BRANCH   5  18
ATOM     18  N   LIG d   1       0.074  82.049 109.494  0.00  0.00     0.381 N 
ATOM     19  H   LIG d   1      -0.631  82.302 108.831  0.00  0.00    -0.090 HD
ATOM     20  H   LIG d   1      -0.361  81.527 110.234  0.00  0.00    -0.090 HD
ATOM     21  H   LIG d   1       0.772  81.492 109.051  0.00  0.00    -0.090 HD
ENDBRANCH   5  18
BRANCH   3  22
ATOM     22  C   LIG d   1      -0.772  86.168 111.786  0.00  0.00     0.382 C 
ATOM     23  O   LIG d   1      -1.179  86.413 112.948  0.00  0.00    -0.241 OA
ATOM     24  O   LIG d   1      -1.185  86.857 110.834  0.00  0.00    -0.241 OA
ENDBRANCH   3  22
TORSDOF 7
ENDMDL
MODEL 2
REMARK VINA RESULT:      -5.5      2.796      5.214
REMARK  7 active torsions:
REMARK  status: ('A' for Active; 'I' for Inactive)
REMARK    1  A    between atoms: C_2  and  C_3 
REMARK    2  A    between atoms: C_3  and  O_6 
REMARK    3  A    between atoms: C_3  and  C_4 
REMARK    4  A    between atoms: C_7  and  O_6 
REMARK    5  A    between atoms: C_9  and  C_10 
REMARK    6  A    between atoms: N_15  and  C_14 
REMARK    7  A    between atoms: N_20  and  C_19 
REMARK       I    between atoms: C_22  and  N_20 
ROOT
ATOM      1  C   LIG d   1       2.988  84.402 113.295  0.00  0.00     0.161 C 
ATOM      2  C   LIG d   1       1.684  84.476 112.778  0.00  0.00     0.016 C 
ATOM      3  C   LIG d   1       0.817  85.569 113.005  0.00  0.00     0.038 C 
ATOM      4  C   LIG d   1       1.253  86.740 113.644  0.00  0.00     0.028 C 
ATOM      5  C   LIG d   1       2.401  86.507 114.620  0.00  0.00    -0.047 C 
ATOM      6  C   LIG d   1       3.519  85.719 113.900  0.00  0.00     0.091 C 
ENDROOT
BRANCH   1   7
ATOM      7  O   LIG d   1       3.889  83.918 112.279  0.00  0.00    -0.368 OA
BRANCH   7   8
ATOM      8  C   LIG d   1       3.324  83.743 110.957  0.00  0.00     0.119 C 
BRANCH   8   9
ATOM      9  C   LIG d   1       4.211  82.731 110.205  0.00  0.00     0.028 C 
ATOM     10  C   LIG d   1       3.481  81.406 109.926  0.00  0.00     0.006 C 
ENDBRANCH   8   9
BRANCH   8  11
ATOM     11  C   LIG d   1       3.405  85.036 110.140  0.00  0.00     0.028 C 
ATOM     12  C   LIG d   1       2.072  85.399 109.466  0.00  0.00     0.006 C 
ENDBRANCH   8  11
ENDBRANCH   7   8
ENDBRANCH   1   7
BRANCH   6  13
ATOM     13  N   LIG d   1       4.645  85.375 114.807  0.00  0.00    -0.311 N 
ATOM     14  C   LIG d   1       5.698  86.166 115.001  0.00  0.00     0.210 C 
ATOM     15  C   LIG d   1       6.755  85.612 115.962  0.00  0.00     0.109 C 
ATOM     16  O   LIG d   1       5.843  87.288 114.492  0.00  0.00    -0.276 OA
ATOM     17  H   LIG d   1       4.594  84.496 115.284  0.00  0.00     0.149 HD
ENDBRANCH   6  13
BRANCH   5  18
ATOM     18  N   LIG d   1       2.845  87.825 115.108  0.00  0.00     0.381 N 
ATOM     19  H   LIG d   1       3.826  87.936 114.941  0.00  0.00    -0.090 HD
ATOM     20  H   LIG d   1       2.687  87.875 116.099  0.00  0.00    -0.090 HD
ATOM     21  H   LIG d   1       2.339  88.549 114.647  0.00  0.00    -0.090 HD
ENDBRANCH   5  18
BRANCH   3  22
ATOM     22  C   LIG d   1      -0.514  85.482 112.627  0.00  0.00     0.382 C 
ATOM     23  O   LIG d   1      -0.950  84.425 112.109  0.00  0.00    -0.241 OA
ATOM     24  O   LIG d   1      -1.273  86.461 112.755  0.00  0.00    -0.241 OA
ENDBRANCH   3  22
TORSDOF 7
ENDMDL
MODEL 3
REMARK VINA RESULT:      -5.5      2.937      5.410
REMARK  7 active torsions:
REMARK  status: ('A' for Active; 'I' for Inactive)
REMARK    1  A    between atoms: C_2  and  C_3 
REMARK    2  A    between atoms: C_3  and  O_6 
REMARK    3  A    between atoms: C_3  and  C_4 
REMARK    4  A    between atoms: C_7  and  O_6 
REMARK    5  A    between atoms: C_9  and  C_10 
REMARK    6  A    between atoms: N_15  and  C_14 
REMARK    7  A    between atoms: N_20  and  C_19 
REMARK       I    between atoms: C_22  and  N_20 
ROOT
ATOM      1  C   LIG d   1       2.312  84.138 113.059  0.00  0.00     0.161 C 
ATOM      2  C   LIG d   1       2.783  85.352 112.530  0.00  0.00     0.016 C 
ATOM      3  C   LIG d   1       3.401  86.354 113.313  0.00  0.00     0.038 C 
ATOM      4  C   LIG d   1       3.729  86.145 114.661  0.00  0.00     0.028 C 
ATOM      5  C   LIG d   1       2.821  85.136 115.356  0.00  0.00    -0.047 C 
ATOM      6  C   LIG d   1       2.761  83.846 114.506  0.00  0.00     0.091 C 
ENDROOT
BRANCH   1   7
ATOM      7  O   LIG d   1       2.683  83.050 112.190  0.00  0.00    -0.368 OA
BRANCH   7   8
ATOM      8  C   LIG d   1       2.731  83.353 110.774  0.00  0.00     0.119 C 
BRANCH   8   9
ATOM      9  C   LIG d   1       1.588  82.575 110.095  0.00  0.00     0.028 C 
ATOM     10  C   LIG d   1       0.271  83.370 110.070  0.00  0.00     0.006 C 
ENDBRANCH   8   9
BRANCH   8  11
ATOM     11  C   LIG d   1       4.018  82.823 110.134  0.00  0.00     0.028 C 
ATOM     12  C   LIG d   1       3.881  81.378 109.630  0.00  0.00     0.006 C 
ENDBRANCH   8  11
ENDBRANCH   7   8
ENDBRANCH   1   7
BRANCH   6  13
ATOM     13  N   LIG d   1       1.827  82.838 115.071  0.00  0.00    -0.311 N 
ATOM     14  C   LIG d   1       2.211  81.865 115.897  0.00  0.00     0.210 C 
ATOM     15  C   LIG d   1       1.092  80.921 116.347  0.00  0.00     0.109 C 
ATOM     16  O   LIG d   1       3.365  81.715 116.325  0.00  0.00    -0.276 OA
ATOM     17  H   LIG d   1       0.866  82.905 114.802  0.00  0.00     0.149 HD
ENDBRANCH   6  13
BRANCH   5  18
ATOM     18  N   LIG d   1       3.359  84.911 116.710  0.00  0.00     0.381 N 
ATOM     19  H   LIG d   1       3.973  84.121 116.705  0.00  0.00    -0.090 HD
ATOM     20  H   LIG d   1       2.597  84.714 117.334  0.00  0.00    -0.090 HD
ATOM     21  H   LIG d   1       3.851  85.721 117.021  0.00  0.00    -0.090 HD
ENDBRANCH   5  18
BRANCH   3  22
ATOM     22  C   LIG d   1       3.662  87.597 112.756  0.00  0.00     0.382 C 
ATOM     23  O   LIG d   1       4.806  88.102 112.859  0.00  0.00    -0.241 OA
ATOM     24  O   LIG d   1       2.756  88.239 112.192  0.00  0.00    -0.241 OA
ENDBRANCH   3  22
TORSDOF 7
ENDMDL
MODEL 4
REMARK VINA RESULT:      -5.4      2.572      5.788
REMARK  7 active torsions:
REMARK  status: ('A' for Active; 'I' for Inactive)
REMARK    1  A    between atoms: C_2  and  C_3 
REMARK    2  A    between atoms: C_3  and  O_6 
REMARK    3  A    between atoms: C_3  and  C_4 
REMARK    4  A    between atoms: C_7  and  O_6 
REMARK    5  A    between atoms: C_9  and  C_10 
REMARK    6  A    between atoms: N_15  and  C_14 
REMARK    7  A    between atoms: N_20  and  C_19 
REMARK       I    between atoms: C_22  and  N_20 
ROOT
ATOM      1  C   LIG d   1       3.449  85.071 111.896  0.00  0.00     0.161 C 
ATOM      2  C   LIG d   1       4.539  85.112 112.781  0.00  0.00     0.016 C 
ATOM      3  C   LIG d   1       4.495  85.754 114.040  0.00  0.00     0.038 C 
ATOM      4  C   LIG d   1       3.302  86.272 114.567  0.00  0.00     0.028 C 
ATOM      5  C   LIG d   1       2.303  86.699 113.497  0.00  0.00    -0.047 C 
ATOM      6  C   LIG d   1       2.107  85.534 112.500  0.00  0.00     0.091 C 
ENDROOT
BRANCH   1   7
ATOM      7  O   LIG d   1       3.319  83.746 111.343  0.00  0.00    -0.368 OA
BRANCH   7   8
ATOM      8  C   LIG d   1       3.234  83.664 109.899  0.00  0.00     0.119 C 
BRANCH   8   9
ATOM      9  C   LIG d   1       2.054  82.734 109.556  0.00  0.00     0.028 C 
ATOM     10  C   LIG d   1       1.283  82.279 110.807  0.00  0.00     0.006 C 
ENDBRANCH   8   9
BRANCH   8  11
ATOM     11  C   LIG d   1       4.471  82.983 109.306  0.00  0.00     0.028 C 
ATOM     12  C   LIG d   1       4.370  81.450 109.315  0.00  0.00     0.006 C 
ENDBRANCH   8  11
ENDBRANCH   7   8
ENDBRANCH   1   7
BRANCH   6  13
ATOM     13  N   LIG d   1       1.208  85.897 111.374  0.00  0.00    -0.311 N 
ATOM     14  C   LIG d   1      -0.091  85.602 111.348  0.00  0.00     0.210 C 
ATOM     15  C   LIG d   1      -0.831  86.050 110.084  0.00  0.00     0.109 C 
ATOM     16  O   LIG d   1      -0.707  85.041 112.266  0.00  0.00    -0.276 OA
ATOM     17  H   LIG d   1       1.619  86.382 110.600  0.00  0.00     0.149 HD
ENDBRANCH   6  13
BRANCH   5  18
ATOM     18  N   LIG d   1       1.056  87.089 114.182  0.00  0.00     0.381 N 
ATOM     19  H   LIG d   1       0.618  86.280 114.576  0.00  0.00    -0.090 HD
ATOM     20  H   LIG d   1       0.428  87.492 113.510  0.00  0.00    -0.090 HD
ATOM     21  H   LIG d   1       1.254  87.751 114.900  0.00  0.00    -0.090 HD
ENDBRANCH   5  18
BRANCH   3  22
ATOM     22  C   LIG d   1       5.663  85.919 114.769  0.00  0.00     0.382 C 
ATOM     23  O   LIG d   1       6.138  87.067 114.941  0.00  0.00    -0.241 OA
ATOM     24  O   LIG d   1       6.271  84.929 115.218  0.00  0.00    -0.241 OA
ENDBRANCH   3  22
TORSDOF 7
ENDMDL
MODEL 5
REMARK VINA RESULT:      -5.4     13.486     14.823
REMARK  7 active torsions:
REMARK  status: ('A' for Active; 'I' for Inactive)
REMARK    1  A    between atoms: C_2  and  C_3 
REMARK    2  A    between atoms: C_3  and  O_6 
REMARK    3  A    between atoms: C_3  and  C_4 
REMARK    4  A    between atoms: C_7  and  O_6 
REMARK    5  A    between atoms: C_9  and  C_10 
REMARK    6  A    between atoms: N_15  and  C_14 
REMARK    7  A    between atoms: N_20  and  C_19 
REMARK       I    between atoms: C_22  and  N_20 
ROOT
ATOM      1  C   LIG d   1      -7.889  74.999 118.043  0.00  0.00     0.161 C 
ATOM      2  C   LIG d   1      -8.951  75.919 118.048  0.00  0.00     0.016 C 
ATOM      3  C   LIG d   1      -8.770  77.315 118.184  0.00  0.00     0.038 C 
ATOM      4  C   LIG d   1      -7.496  77.902 118.173  0.00  0.00     0.028 C 
ATOM      5  C   LIG d   1      -6.397  76.973 118.677  0.00  0.00    -0.047 C 
ATOM      6  C   LIG d   1      -6.487  75.630 117.918  0.00  0.00     0.091 C 
ENDROOT
BRANCH   1   7
ATOM      7  O   LIG d   1      -8.094  74.023 117.002  0.00  0.00    -0.368 OA
BRANCH   7   8
ATOM      8  C   LIG d   1      -8.308  72.659 117.441  0.00  0.00     0.119 C 
BRANCH   8   9
ATOM      9  C   LIG d   1      -7.339  71.760 116.649  0.00  0.00     0.028 C 
ATOM     10  C   LIG d   1      -6.587  72.531 115.552  0.00  0.00     0.006 C 
ENDBRANCH   8   9
BRANCH   8  11
ATOM     11  C   LIG d   1      -9.711  72.168 117.071  0.00  0.00     0.028 C 
ATOM     12  C   LIG d   1      -9.742  70.676 116.704  0.00  0.00     0.006 C 
ENDBRANCH   8  11
ENDBRANCH   7   8
ENDBRANCH   1   7
BRANCH   6  13
ATOM     13  N   LIG d   1      -5.500  74.633 118.410  0.00  0.00    -0.311 N 
ATOM     14  C   LIG d   1      -4.318  74.425 117.831  0.00  0.00     0.210 C 
ATOM     15  C   LIG d   1      -3.461  73.338 118.486  0.00  0.00     0.109 C 
ATOM     16  O   LIG d   1      -3.886  75.060 116.858  0.00  0.00    -0.276 OA
ATOM     17  H   LIG d   1      -5.757  74.096 119.214  0.00  0.00     0.149 HD
ENDBRANCH   6  13
BRANCH   5  18
ATOM     18  N   LIG d   1      -5.107  77.662 118.482  0.00  0.00     0.381 N 
ATOM     19  H   LIG d   1      -4.620  77.722 119.354  0.00  0.00    -0.090 HD
ATOM     20  H   LIG d   1      -5.284  78.596 118.155  0.00  0.00    -0.090 HD
ATOM     21  H   LIG d   1      -4.554  77.168 117.817  0.00  0.00    -0.090 HD
ENDBRANCH   5  18
BRANCH   3  22
ATOM     22  C   LIG d   1      -9.872  78.135 118.373  0.00  0.00     0.382 C 
ATOM     23  O   LIG d   1     -10.987  77.633 118.652  0.00  0.00    -0.241 OA
ATOM     24  O   LIG d   1      -9.774  79.368 118.226  0.00  0.00    -0.241 OA
ENDBRANCH   3  22
TORSDOF 7
ENDMDL
MODEL 6
REMARK VINA RESULT:      -5.2     13.434     14.862
REMARK  7 active torsions:
REMARK  status: ('A' for Active; 'I' for Inactive)
REMARK    1  A    between atoms: C_2  and  C_3 
REMARK    2  A    between atoms: C_3  and  O_6 
REMARK    3  A    between atoms: C_3  and  C_4 
REMARK    4  A    between atoms: C_7  and  O_6 
REMARK    5  A    between atoms: C_9  and  C_10 
REMARK    6  A    between atoms: N_15  and  C_14 
REMARK    7  A    between atoms: N_20  and  C_19 
REMARK       I    between atoms: C_22  and  N_20 
ROOT
ATOM      1  C   LIG d   1      -6.942  74.035 118.603  0.00  0.00     0.161 C 
ATOM      2  C   LIG d   1      -8.177  74.622 118.281  0.00  0.00     0.016 C 
ATOM      3  C   LIG d   1      -8.360  76.015 118.129  0.00  0.00     0.038 C 
ATOM      4  C   LIG d   1      -7.280  76.911 118.140  0.00  0.00     0.028 C 
ATOM      5  C   LIG d   1      -6.094  76.418 118.962  0.00  0.00    -0.047 C 
ATOM      6  C   LIG d   1      -5.730  74.986 118.509  0.00  0.00     0.091 C 
ENDROOT
BRANCH   1   7
ATOM      7  O   LIG d   1      -6.728  72.868 117.784  0.00  0.00    -0.368 OA
BRANCH   7   8
ATOM      8  C   LIG d   1      -7.354  72.882 116.478  0.00  0.00     0.119 C 
BRANCH   8   9
ATOM      9  C   LIG d   1      -7.969  71.488 116.245  0.00  0.00     0.028 C 
ATOM     10  C   LIG d   1      -9.472  71.449 116.570  0.00  0.00     0.006 C 
ENDBRANCH   8   9
BRANCH   8  11
ATOM     11  C   LIG d   1      -6.317  73.059 115.365  0.00  0.00     0.028 C 
ATOM     12  C   LIG d   1      -6.140  74.526 114.944  0.00  0.00     0.006 C 
ENDBRANCH   8  11
ENDBRANCH   7   8
ENDBRANCH   1   7
BRANCH   6  13
ATOM     13  N   LIG d   1      -4.633  74.397 119.320  0.00  0.00    -0.311 N 
ATOM     14  C   LIG d   1      -3.588  73.764 118.789  0.00  0.00     0.210 C 
ATOM     15  C   LIG d   1      -2.581  73.214 119.804  0.00  0.00     0.109 C 
ATOM     16  O   LIG d   1      -3.383  73.633 117.573  0.00  0.00    -0.276 OA
ATOM     17  H   LIG d   1      -4.703  74.484 120.315  0.00  0.00     0.149 HD
ENDBRANCH   6  13
BRANCH   5  18
ATOM     18  N   LIG d   1      -4.992  77.381 118.774  0.00  0.00     0.381 N 
ATOM     19  H   LIG d   1      -4.241  77.163 119.399  0.00  0.00    -0.090 HD
ATOM     20  H   LIG d   1      -5.325  78.303 118.992  0.00  0.00    -0.090 HD
ATOM     21  H   LIG d   1      -4.669  77.350 117.832  0.00  0.00    -0.090 HD
ENDBRANCH   5  18
BRANCH   3  22
ATOM     22  C   LIG d   1      -9.642  76.530 118.003  0.00  0.00     0.382 C 
ATOM     23  O   LIG d   1     -10.601  75.767 117.736  0.00  0.00    -0.241 OA
ATOM     24  O   LIG d   1      -9.844  77.755 118.110  0.00  0.00    -0.241 OA
ENDBRANCH   3  22
TORSDOF 7
ENDMDL
MODEL 7
REMARK VINA RESULT:      -5.2      2.983      5.667
REMARK  7 active torsions:
REMARK  status: ('A' for Active; 'I' for Inactive)
REMARK    1  A    between atoms: C_2  and  C_3 
REMARK    2  A    between atoms: C_3  and  O_6 
REMARK    3  A    between atoms: C_3  and  C_4 
REMARK    4  A    between atoms: C_7  and  O_6 
REMARK    5  A    between atoms: C_9  and  C_10 
REMARK    6  A    between atoms: N_15  and  C_14 
REMARK    7  A    between atoms: N_20  and  C_19 
REMARK       I    between atoms: C_22  and  N_20 
ROOT
ATOM      1  C   LIG d   1       1.783  84.929 113.928  0.00  0.00     0.161 C 
ATOM      2  C   LIG d   1       2.368  85.991 113.219  0.00  0.00     0.016 C 
ATOM      3  C   LIG d   1       3.592  86.593 113.590  0.00  0.00     0.038 C 
ATOM      4  C   LIG d   1       4.395  86.070 114.615  0.00  0.00     0.028 C 
ATOM      5  C   LIG d   1       3.604  85.315 115.678  0.00  0.00    -0.047 C 
ATOM      6  C   LIG d   1       2.698  84.273 114.983  0.00  0.00     0.091 C 
ENDROOT
BRANCH   1   7
ATOM      7  O   LIG d   1       1.292  83.937 113.005  0.00  0.00    -0.368 OA
BRANCH   7   8
ATOM      8  C   LIG d   1       1.390  84.271 111.598  0.00  0.00     0.119 C 
BRANCH   8   9
ATOM      9  C   LIG d   1      -0.044  84.341 111.038  0.00  0.00     0.028 C 
ATOM     10  C   LIG d   1      -0.478  85.780 110.715  0.00  0.00     0.006 C 
ENDBRANCH   8   9
BRANCH   8  11
ATOM     11  C   LIG d   1       2.081  83.156 110.808  0.00  0.00     0.028 C 
ATOM     12  C   LIG d   1       1.324  82.778 109.524  0.00  0.00     0.006 C 
ENDBRANCH   8  11
ENDBRANCH   7   8
ENDBRANCH   1   7
BRANCH   6  13
ATOM     13  N   LIG d   1       1.828  83.547 115.945  0.00  0.00    -0.311 N 
ATOM     14  C   LIG d   1       2.052  82.293 116.334  0.00  0.00     0.210 C 
ATOM     15  C   LIG d   1       1.021  81.727 117.316  0.00  0.00     0.109 C 
ATOM     16  O   LIG d   1       3.023  81.607 115.983  0.00  0.00    -0.276 OA
ATOM     17  H   LIG d   1       1.034  84.040 116.303  0.00  0.00     0.149 HD
ENDBRANCH   6  13
BRANCH   5  18
ATOM     18  N   LIG d   1       4.575  84.708 116.608  0.00  0.00     0.381 N 
ATOM     19  H   LIG d   1       4.995  85.420 117.171  0.00  0.00    -0.090 HD
ATOM     20  H   LIG d   1       5.300  84.259 116.075  0.00  0.00    -0.090 HD
ATOM     21  H   LIG d   1       4.119  84.040 117.189  0.00  0.00    -0.090 HD
ENDBRANCH   5  18
BRANCH   3  22
ATOM     22  C   LIG d   1       4.006  87.756 112.957  0.00  0.00     0.382 C 
ATOM     23  O   LIG d   1       3.205  88.394 112.233  0.00  0.00    -0.241 OA
ATOM     24  O   LIG d   1       5.182  88.150 113.067  0.00  0.00    -0.241 OA
ENDBRANCH   3  22
TORSDOF 7
ENDMDL
MODEL 8
REMARK VINA RESULT:      -5.2     12.027     13.319
REMARK  7 active torsions:
REMARK  status: ('A' for Active; 'I' for Inactive)
REMARK    1  A    between atoms: C_2  and  C_3 
REMARK    2  A    between atoms: C_3  and  O_6 
REMARK    3  A    between atoms: C_3  and  C_4 
REMARK    4  A    between atoms: C_7  and  O_6 
REMARK    5  A    between atoms: C_9  and  C_10 
REMARK    6  A    between atoms: N_15  and  C_14 
REMARK    7  A    between atoms: N_20  and  C_19 
REMARK       I    between atoms: C_22  and  N_20 
ROOT
ATOM      1  C   LIG d   1      -5.331  74.866 117.573  0.00  0.00     0.161 C 
ATOM      2  C   LIG d   1      -6.240  73.806 117.729  0.00  0.00     0.016 C 
ATOM      3  C   LIG d   1      -6.816  73.109 116.642  0.00  0.00     0.038 C 
ATOM      4  C   LIG d   1      -6.403  73.327 115.319  0.00  0.00     0.028 C 
ATOM      5  C   LIG d   1      -5.862  74.732 115.077  0.00  0.00    -0.047 C 
ATOM      6  C   LIG d   1      -4.785  75.045 116.141  0.00  0.00     0.091 C 
ENDROOT
BRANCH   1   7
ATOM      7  O   LIG d   1      -4.245  74.720 118.509  0.00  0.00    -0.368 OA
BRANCH   7   8
ATOM      8  C   LIG d   1      -3.188  73.808 118.122  0.00  0.00     0.119 C 
BRANCH   8   9
ATOM      9  C   LIG d   1      -3.079  72.732 119.220  0.00  0.00     0.028 C 
ATOM     10  C   LIG d   1      -1.619  72.376 119.549  0.00  0.00     0.006 C 
ENDBRANCH   8   9
BRANCH   8  11
ATOM     11  C   LIG d   1      -1.826  74.509 118.103  0.00  0.00     0.028 C 
ATOM     12  C   LIG d   1      -1.878  75.926 118.696  0.00  0.00     0.006 C 
ENDBRANCH   8  11
ENDBRANCH   7   8
ENDBRANCH   1   7
BRANCH   6  13
ATOM     13  N   LIG d   1      -4.263  76.432 116.029  0.00  0.00    -0.311 N 
ATOM     14  C   LIG d   1      -3.176  76.751 115.329  0.00  0.00     0.210 C 
ATOM     15  C   LIG d   1      -2.799  78.236 115.361  0.00  0.00     0.109 C 
ATOM     16  O   LIG d   1      -2.507  75.952 114.657  0.00  0.00    -0.276 OA
ATOM     17  H   LIG d   1      -4.763  77.148 116.517  0.00  0.00     0.149 HD
ENDBRANCH   6  13
BRANCH   5  18
ATOM     18  N   LIG d   1      -5.342  74.779 113.698  0.00  0.00     0.381 N 
ATOM     19  H   LIG d   1      -6.070  75.058 113.071  0.00  0.00    -0.090 HD
ATOM     20  H   LIG d   1      -5.035  73.859 113.435  0.00  0.00    -0.090 HD
ATOM     21  H   LIG d   1      -4.581  75.419 113.641  0.00  0.00    -0.090 HD
ENDBRANCH   5  18
BRANCH   3  22
ATOM     22  C   LIG d   1      -7.845  72.209 116.870  0.00  0.00     0.382 C 
ATOM     23  O   LIG d   1      -8.094  71.313 116.028  0.00  0.00    -0.241 OA
ATOM     24  O   LIG d   1      -8.557  72.309 117.888  0.00  0.00    -0.241 OA
ENDBRANCH   3  22
TORSDOF 7
ENDMDL
MODEL 9
REMARK VINA RESULT:      -5.0     13.553     14.994
REMARK  7 active torsions:
REMARK  status: ('A' for Active; 'I' for Inactive)
REMARK    1  A    between atoms: C_2  and  C_3 
REMARK    2  A    between atoms: C_3  and  O_6 
REMARK    3  A    between atoms: C_3  and  C_4 
REMARK    4  A    between atoms: C_7  and  O_6 
REMARK    5  A    between atoms: C_9  and  C_10 
REMARK    6  A    between atoms: N_15  and  C_14 
REMARK    7  A    between atoms: N_20  and  C_19 
REMARK       I    between atoms: C_22  and  N_20 
ROOT
ATOM      1  C   LIG d   1      -7.488  75.337 117.641  0.00  0.00     0.161 C 
ATOM      2  C   LIG d   1      -8.445  74.338 117.397  0.00  0.00     0.016 C 
ATOM      3  C   LIG d   1      -8.133  72.960 117.334  0.00  0.00     0.038 C 
ATOM      4  C   LIG d   1      -6.860  72.472 117.664  0.00  0.00     0.028 C 
ATOM      5  C   LIG d   1      -5.743  73.483 117.423  0.00  0.00    -0.047 C 
ATOM      6  C   LIG d   1      -6.114  74.815 118.113  0.00  0.00     0.091 C 
ENDROOT
BRANCH   1   7
ATOM      7  O   LIG d   1      -8.011  76.294 118.583  0.00  0.00    -0.368 OA
BRANCH   7   8
ATOM      8  C   LIG d   1      -8.953  77.260 118.053  0.00  0.00     0.119 C 
BRANCH   8   9
ATOM      9  C   LIG d   1      -8.302  78.652 118.168  0.00  0.00     0.028 C 
ATOM     10  C   LIG d   1      -9.341  79.773 118.341  0.00  0.00     0.006 C 
ENDBRANCH   8   9
BRANCH   8  11
ATOM     11  C   LIG d   1     -10.218  77.332 118.913  0.00  0.00     0.028 C 
ATOM     12  C   LIG d   1     -11.336  76.406 118.406  0.00  0.00     0.006 C 
ENDBRANCH   8  11
ENDBRANCH   7   8
ENDBRANCH   1   7
BRANCH   6  13
ATOM     13  N   LIG d   1      -5.115  75.884 117.856  0.00  0.00    -0.311 N 
ATOM     14  C   LIG d   1      -4.094  76.145 118.671  0.00  0.00     0.210 C 
ATOM     15  C   LIG d   1      -3.193  77.302 118.230  0.00  0.00     0.109 C 
ATOM     16  O   LIG d   1      -3.831  75.506 119.702  0.00  0.00    -0.276 OA
ATOM     17  H   LIG d   1      -5.234  76.431 117.026  0.00  0.00     0.149 HD
ENDBRANCH   6  13
BRANCH   5  18
ATOM     18  N   LIG d   1      -4.492  72.894 117.937  0.00  0.00     0.381 N 
ATOM     19  H   LIG d   1      -3.764  73.581 117.923  0.00  0.00    -0.090 HD
ATOM     20  H   LIG d   1      -4.220  72.134 117.339  0.00  0.00    -0.090 HD
ATOM     21  H   LIG d   1      -4.627  72.563 118.867  0.00  0.00    -0.090 HD
ENDBRANCH   5  18
BRANCH   3  22
ATOM     22  C   LIG d   1      -9.092  72.058 116.899  0.00  0.00     0.382 C 
ATOM     23  O   LIG d   1     -10.249  72.092 117.382  0.00  0.00    -0.241 OA
ATOM     24  O   LIG d   1      -8.801  71.181 116.063  0.00  0.00    -0.241 OA
ENDBRANCH   3  22
TORSDOF 7
ENDMDL
