MODEL 1
REMARK VINA RESULT:      -6.4      0.000      0.000
REMARK  7 active torsions:
REMARK  status: ('A' for Active; 'I' for Inactive)
REMARK    1  A    between atoms: C_2  and  C_3 
REMARK    2  A    between atoms: C_3  and  O_6 
REMARK    3  A    between atoms: C_3  and  C_4 
REMARK    4  A    between atoms: C_7  and  O_6 
REMARK    5  A    between atoms: C_9  and  C_10 
REMARK    6  A    between atoms: N_15  and  C_14 
REMARK    7  A    between atoms: N_20  and  C_19 
REMARK       I    between atoms: C_22  and  N_20 
ROOT
ATOM      1  C   LIG d   1       2.516  83.455 110.163  0.00  0.00     0.161 C 
ATOM      2  C   LIG d   1       2.941  84.711 110.626  0.00  0.00     0.016 C 
ATOM      3  C   LIG d   1       2.051  85.731 111.036  0.00  0.00     0.038 C 
ATOM      4  C   LIG d   1       0.671  85.508 111.153  0.00  0.00     0.028 C 
ATOM      5  C   LIG d   1       0.151  84.421 110.218  0.00  0.00    -0.047 C 
ATOM      6  C   LIG d   1       1.020  83.154 110.389  0.00  0.00     0.091 C 
ENDROOT
BRANCH   1   7
ATOM      7  O   LIG d   1       3.330  82.418 110.747  0.00  0.00    -0.368 OA
BRANCH   7   8
ATOM      8  C   LIG d   1       4.737  82.725 110.905  0.00  0.00     0.119 C 
BRANCH   8   9
ATOM      9  C   LIG d   1       5.530  81.703 110.067  0.00  0.00     0.028 C 
ATOM     10  C   LIG d   1       4.614  80.707 109.336  0.00  0.00     0.006 C 
ENDBRANCH   8   9
BRANCH   8  11
ATOM     11  C   LIG d   1       5.196  82.508 112.350  0.00  0.00     0.028 C 
ATOM     12  C   LIG d   1       4.307  81.515 113.115  0.00  0.00     0.006 C 
ENDBRANCH   8  11
ENDBRANCH   7   8
ENDBRANCH   1   7
BRANCH   6  13
ATOM     13  N   LIG d   1       0.632  82.070 109.450  0.00  0.00    -0.311 N 
ATOM     14  C   LIG d   1       0.416  80.812 109.831  0.00  0.00     0.210 C 
ATOM     15  C   LIG d   1       0.045  79.848 108.699  0.00  0.00     0.109 C 
ATOM     16  O   LIG d   1       0.466  80.410 111.003  0.00  0.00    -0.276 OA
ATOM     17  H   LIG d   1       0.539  82.315 108.484  0.00  0.00     0.149 HD
ENDBRANCH   6  13
BRANCH   5  18
ATOM     18  N   LIG d   1      -1.270  84.197 110.542  0.00  0.00     0.381 N 
ATOM     19  H   LIG d   1      -1.755  83.871 109.730  0.00  0.00    -0.090 HD
ATOM     20  H   LIG d   1      -1.680  85.069 110.826  0.00  0.00    -0.090 HD
ATOM     21  H   LIG d   1      -1.351  83.528 111.277  0.00  0.00    -0.090 HD
ENDBRANCH   5  18
BRANCH   3  22
ATOM     22  C   LIG d   1       2.537  87.004 111.295  0.00  0.00     0.382 C 
ATOM     23  O   LIG d   1       3.771  87.226 111.244  0.00  0.00    -0.241 OA
ATOM     24  O   LIG d   1       1.761  87.921 111.622  0.00  0.00    -0.241 OA
ENDBRANCH   3  22
TORSDOF 7
ENDMDL
MODEL 2
REMARK VINA RESULT:      -6.3      2.502      5.153
REMARK  7 active torsions:
REMARK  status: ('A' for Active; 'I' for Inactive)
REMARK    1  A    between atoms: C_2  and  C_3 
REMARK    2  A    between atoms: C_3  and  O_6 
REMARK    3  A    between atoms: C_3  and  C_4 
REMARK    4  A    between atoms: C_7  and  O_6 
REMARK    5  A    between atoms: C_9  and  C_10 
REMARK    6  A    between atoms: N_15  and  C_14 
REMARK    7  A    between atoms: N_20  and  C_19 
REMARK       I    between atoms: C_22  and  N_20 
ROOT
ATOM      1  C   LIG d   1       1.395  83.186 111.132  0.00  0.00     0.161 C 
ATOM      2  C   LIG d   1       0.274  82.347 111.243  0.00  0.00     0.016 C 
ATOM      3  C   LIG d   1      -0.812  82.610 112.108  0.00  0.00     0.038 C 
ATOM      4  C   LIG d   1      -0.922  83.817 112.815  0.00  0.00     0.028 C 
ATOM      5  C   LIG d   1       0.425  84.464 113.120  0.00  0.00    -0.047 C 
ATOM      6  C   LIG d   1       1.243  84.563 111.812  0.00  0.00     0.091 C 
ENDROOT
BRANCH   1   7
ATOM      7  O   LIG d   1       1.748  83.350 109.744  0.00  0.00    -0.368 OA
BRANCH   7   8
ATOM      8  C   LIG d   1       2.743  82.432 109.227  0.00  0.00     0.119 C 
BRANCH   8   9
ATOM      9  C   LIG d   1       4.129  83.043 109.512  0.00  0.00     0.028 C 
ATOM     10  C   LIG d   1       5.093  82.034 110.158  0.00  0.00     0.006 C 
ENDBRANCH   8   9
BRANCH   8  11
ATOM     11  C   LIG d   1       2.657  82.318 107.702  0.00  0.00     0.028 C 
ATOM     12  C   LIG d   1       1.501  83.139 107.107  0.00  0.00     0.006 C 
ENDBRANCH   8  11
ENDBRANCH   7   8
ENDBRANCH   1   7
BRANCH   6  13
ATOM     13  N   LIG d   1       2.607  85.108 112.036  0.00  0.00    -0.311 N 
ATOM     14  C   LIG d   1       3.082  86.178 111.402  0.00  0.00     0.210 C 
ATOM     15  C   LIG d   1       4.521  86.560 111.766  0.00  0.00     0.109 C 
ATOM     16  O   LIG d   1       2.438  86.866 110.596  0.00  0.00    -0.276 OA
ATOM     17  H   LIG d   1       3.187  84.628 112.697  0.00  0.00     0.149 HD
ENDBRANCH   6  13
BRANCH   5  18
ATOM     18  N   LIG d   1       0.159  85.778 113.736  0.00  0.00     0.381 N 
ATOM     19  H   LIG d   1       0.673  86.488 113.254  0.00  0.00    -0.090 HD
ATOM     20  H   LIG d   1       0.468  85.758 114.692  0.00  0.00    -0.090 HD
ATOM     21  H   LIG d   1      -0.816  85.981 113.699  0.00  0.00    -0.090 HD
ENDBRANCH   5  18
BRANCH   3  22
ATOM     22  C   LIG d   1      -1.786  81.642 112.303  0.00  0.00     0.382 C 
ATOM     23  O   LIG d   1      -2.929  81.973 112.701  0.00  0.00    -0.241 OA
ATOM     24  O   LIG d   1      -1.522  80.437 112.129  0.00  0.00    -0.241 OA
ENDBRANCH   3  22
TORSDOF 7
ENDMDL
MODEL 3
REMARK VINA RESULT:      -6.3      2.153      3.100
REMARK  7 active torsions:
REMARK  status: ('A' for Active; 'I' for Inactive)
REMARK    1  A    between atoms: C_2  and  C_3 
REMARK    2  A    between atoms: C_3  and  O_6 
REMARK    3  A    between atoms: C_3  and  C_4 
REMARK    4  A    between atoms: C_7  and  O_6 
REMARK    5  A    between atoms: C_9  and  C_10 
REMARK    6  A    between atoms: N_15  and  C_14 
REMARK    7  A    between atoms: N_20  and  C_19 
REMARK       I    between atoms: C_22  and  N_20 
ROOT
ATOM      1  C   LIG d   1       4.188  85.396 111.025  0.00  0.00     0.161 C 
ATOM      2  C   LIG d   1       4.476  86.424 111.938  0.00  0.00     0.016 C 
ATOM      3  C   LIG d   1       3.522  87.378 112.361  0.00  0.00     0.038 C 
ATOM      4  C   LIG d   1       2.167  87.276 112.014  0.00  0.00     0.028 C 
ATOM      5  C   LIG d   1       1.933  86.550 110.693  0.00  0.00    -0.047 C 
ATOM      6  C   LIG d   1       2.688  85.202 110.721  0.00  0.00     0.091 C 
ENDROOT
BRANCH   1   7
ATOM      7  O   LIG d   1       4.771  84.160 111.482  0.00  0.00    -0.368 OA
BRANCH   7   8
ATOM      8  C   LIG d   1       3.894  83.280 112.229  0.00  0.00     0.119 C 
BRANCH   8   9
ATOM      9  C   LIG d   1       4.416  83.226 113.677  0.00  0.00     0.028 C 
ATOM     10  C   LIG d   1       3.568  84.075 114.639  0.00  0.00     0.006 C 
ENDBRANCH   8   9
BRANCH   8  11
ATOM     11  C   LIG d   1       3.980  81.840 111.713  0.00  0.00     0.028 C 
ATOM     12  C   LIG d   1       4.885  81.702 110.478  0.00  0.00     0.006 C 
ENDBRANCH   8  11
ENDBRANCH   7   8
ENDBRANCH   1   7
BRANCH   6  13
ATOM     13  N   LIG d   1       2.581  84.466 109.434  0.00  0.00    -0.311 N 
ATOM     14  C   LIG d   1       1.669  83.523 109.203  0.00  0.00     0.210 C 
ATOM     15  C   LIG d   1       1.747  82.875 107.817  0.00  0.00     0.109 C 
ATOM     16  O   LIG d   1       0.784  83.184 110.002  0.00  0.00    -0.276 OA
ATOM     17  H   LIG d   1       3.241  84.700 108.719  0.00  0.00     0.149 HD
ENDBRANCH   6  13
BRANCH   5  18
ATOM     18  N   LIG d   1       0.476  86.394 110.522  0.00  0.00     0.381 N 
ATOM     19  H   LIG d   1       0.013  87.247 110.764  0.00  0.00    -0.090 HD
ATOM     20  H   LIG d   1       0.152  85.673 111.142  0.00  0.00    -0.090 HD
ATOM     21  H   LIG d   1       0.268  86.150 109.579  0.00  0.00    -0.090 HD
ENDBRANCH   5  18
BRANCH   3  22
ATOM     22  C   LIG d   1       3.929  88.472 113.110  0.00  0.00     0.382 C 
ATOM     23  O   LIG d   1       4.441  89.466 112.540  0.00  0.00    -0.241 OA
ATOM     24  O   LIG d   1       3.833  88.459 114.351  0.00  0.00    -0.241 OA
ENDBRANCH   3  22
TORSDOF 7
ENDMDL
MODEL 4
REMARK VINA RESULT:      -6.2      2.600      3.667
REMARK  7 active torsions:
REMARK  status: ('A' for Active; 'I' for Inactive)
REMARK    1  A    between atoms: C_2  and  C_3 
REMARK    2  A    between atoms: C_3  and  O_6 
REMARK    3  A    between atoms: C_3  and  C_4 
REMARK    4  A    between atoms: C_7  and  O_6 
REMARK    5  A    between atoms: C_9  and  C_10 
REMARK    6  A    between atoms: N_15  and  C_14 
REMARK    7  A    between atoms: N_20  and  C_19 
REMARK       I    between atoms: C_22  and  N_20 
ROOT
ATOM      1  C   LIG d   1       3.239  85.399 111.444  0.00  0.00     0.161 C 
ATOM      2  C   LIG d   1       4.173  86.440 111.574  0.00  0.00     0.016 C 
ATOM      3  C   LIG d   1       4.208  87.320 112.680  0.00  0.00     0.038 C 
ATOM      4  C   LIG d   1       3.401  87.123 113.810  0.00  0.00     0.028 C 
ATOM      5  C   LIG d   1       2.099  86.390 113.505  0.00  0.00    -0.047 C 
ATOM      6  C   LIG d   1       2.423  85.099 112.719  0.00  0.00     0.091 C 
ENDROOT
BRANCH   1   7
ATOM      7  O   LIG d   1       3.899  84.205 110.980  0.00  0.00    -0.368 OA
BRANCH   7   8
ATOM      8  C   LIG d   1       3.792  83.927 109.562  0.00  0.00     0.119 C 
BRANCH   8   9
ATOM      9  C   LIG d   1       2.465  83.176 109.336  0.00  0.00     0.028 C 
ATOM     10  C   LIG d   1       1.431  84.026 108.579  0.00  0.00     0.006 C 
ENDBRANCH   8   9
BRANCH   8  11
ATOM     11  C   LIG d   1       4.888  82.963 109.098  0.00  0.00     0.028 C 
ATOM     12  C   LIG d   1       5.218  81.889 110.146  0.00  0.00     0.006 C 
ENDBRANCH   8  11
ENDBRANCH   7   8
ENDBRANCH   1   7
BRANCH   6  13
ATOM     13  N   LIG d   1       1.198  84.365 112.307  0.00  0.00    -0.311 N 
ATOM     14  C   LIG d   1       0.652  83.387 113.028  0.00  0.00     0.210 C 
ATOM     15  C   LIG d   1      -0.597  82.749 112.411  0.00  0.00     0.109 C 
ATOM     16  O   LIG d   1       1.064  83.010 114.135  0.00  0.00    -0.276 OA
ATOM     17  H   LIG d   1       0.780  84.628 111.436  0.00  0.00     0.149 HD
ENDBRANCH   6  13
BRANCH   5  18
ATOM     18  N   LIG d   1       1.422  86.131 114.790  0.00  0.00     0.381 N 
ATOM     19  H   LIG d   1       2.102  86.023 115.515  0.00  0.00    -0.090 HD
ATOM     20  H   LIG d   1       0.902  85.274 114.715  0.00  0.00    -0.090 HD
ATOM     21  H   LIG d   1       0.807  86.883 115.009  0.00  0.00    -0.090 HD
ENDBRANCH   5  18
BRANCH   3  22
ATOM     22  C   LIG d   1       5.030  88.436 112.644  0.00  0.00     0.382 C 
ATOM     23  O   LIG d   1       4.530  89.586 112.702  0.00  0.00    -0.241 OA
ATOM     24  O   LIG d   1       6.262  88.309 112.510  0.00  0.00    -0.241 OA
ENDBRANCH   3  22
TORSDOF 7
ENDMDL
MODEL 5
REMARK VINA RESULT:      -6.2      1.899      2.754
REMARK  7 active torsions:
REMARK  status: ('A' for Active; 'I' for Inactive)
REMARK    1  A    between atoms: C_2  and  C_3 
REMARK    2  A    between atoms: C_3  and  O_6 
REMARK    3  A    between atoms: C_3  and  C_4 
REMARK    4  A    between atoms: C_7  and  O_6 
REMARK    5  A    between atoms: C_9  and  C_10 
REMARK    6  A    between atoms: N_15  and  C_14 
REMARK    7  A    between atoms: N_20  and  C_19 
REMARK       I    between atoms: C_22  and  N_20 
ROOT
ATOM      1  C   LIG d   1       1.018  83.685 109.301  0.00  0.00     0.161 C 
ATOM      2  C   LIG d   1       0.703  84.983 109.739  0.00  0.00     0.016 C 
ATOM      3  C   LIG d   1      -0.126  85.248 110.853  0.00  0.00     0.038 C 
ATOM      4  C   LIG d   1      -0.577  84.226 111.702  0.00  0.00     0.028 C 
ATOM      5  C   LIG d   1      -0.701  82.874 111.008  0.00  0.00    -0.047 C 
ATOM      6  C   LIG d   1       0.626  82.559 110.281  0.00  0.00     0.091 C 
ENDROOT
BRANCH   1   7
ATOM      7  O   LIG d   1       2.421  83.605 108.981  0.00  0.00    -0.368 OA
BRANCH   7   8
ATOM      8  C   LIG d   1       3.330  83.551 110.109  0.00  0.00     0.119 C 
BRANCH   8   9
ATOM      9  C   LIG d   1       3.993  84.936 110.236  0.00  0.00     0.028 C 
ATOM     10  C   LIG d   1       3.982  85.461 111.682  0.00  0.00     0.006 C 
ENDBRANCH   8   9
BRANCH   8  11
ATOM     11  C   LIG d   1       4.480  82.573 109.851  0.00  0.00     0.028 C 
ATOM     12  C   LIG d   1       4.547  82.104 108.389  0.00  0.00     0.006 C 
ENDBRANCH   8  11
ENDBRANCH   7   8
ENDBRANCH   1   7
BRANCH   6  13
ATOM     13  N   LIG d   1       0.562  81.292 109.507  0.00  0.00    -0.311 N 
ATOM     14  C   LIG d   1       1.385  80.266 109.712  0.00  0.00     0.210 C 
ATOM     15  C   LIG d   1       1.160  79.063 108.790  0.00  0.00     0.109 C 
ATOM     16  O   LIG d   1       2.260  80.225 110.590  0.00  0.00    -0.276 OA
ATOM     17  H   LIG d   1      -0.139  81.228 108.794  0.00  0.00     0.149 HD
ENDBRANCH   6  13
BRANCH   5  18
ATOM     18  N   LIG d   1      -1.046  81.875 112.038  0.00  0.00     0.381 N 
ATOM     19  H   LIG d   1      -0.289  81.231 112.153  0.00  0.00    -0.090 HD
ATOM     20  H   LIG d   1      -1.854  81.361 111.734  0.00  0.00    -0.090 HD
ATOM     21  H   LIG d   1      -1.239  82.330 112.903  0.00  0.00    -0.090 HD
ENDBRANCH   5  18
BRANCH   3  22
ATOM     22  C   LIG d   1      -0.545  86.546 111.104  0.00  0.00     0.382 C 
ATOM     23  O   LIG d   1       0.298  87.438 111.363  0.00  0.00    -0.241 OA
ATOM     24  O   LIG d   1      -1.759  86.826 111.117  0.00  0.00    -0.241 OA
ENDBRANCH   3  22
TORSDOF 7
ENDMDL
MODEL 6
REMARK VINA RESULT:      -6.2      2.530      5.497
REMARK  7 active torsions:
REMARK  status: ('A' for Active; 'I' for Inactive)
REMARK    1  A    between atoms: C_2  and  C_3 
REMARK    2  A    between atoms: C_3  and  O_6 
REMARK    3  A    between atoms: C_3  and  C_4 
REMARK    4  A    between atoms: C_7  and  O_6 
REMARK    5  A    between atoms: C_9  and  C_10 
REMARK    6  A    between atoms: N_15  and  C_14 
REMARK    7  A    between atoms: N_20  and  C_19 
REMARK       I    between atoms: C_22  and  N_20 
ROOT
ATOM      1  C   LIG d   1       0.033  82.679 111.337  0.00  0.00     0.161 C 
ATOM      2  C   LIG d   1      -1.081  82.355 112.129  0.00  0.00     0.016 C 
ATOM      3  C   LIG d   1      -1.536  81.031 112.328  0.00  0.00     0.038 C 
ATOM      4  C   LIG d   1      -0.812  79.921 111.867  0.00  0.00     0.028 C 
ATOM      5  C   LIG d   1       0.039  80.221 110.637  0.00  0.00    -0.047 C 
ATOM      6  C   LIG d   1       0.900  81.474 110.917  0.00  0.00     0.091 C 
ENDROOT
BRANCH   1   7
ATOM      7  O   LIG d   1       0.839  83.667 112.008  0.00  0.00    -0.368 OA
BRANCH   7   8
ATOM      8  C   LIG d   1       0.890  84.976 111.390  0.00  0.00     0.119 C 
BRANCH   8   9
ATOM      9  C   LIG d   1      -0.086  84.962 110.197  0.00  0.00     0.028 C 
ATOM     10  C   LIG d   1      -1.198  86.015 110.336  0.00  0.00     0.006 C 
ENDBRANCH   8   9
BRANCH   8  11
ATOM     11  C   LIG d   1       2.268  85.253 110.783  0.00  0.00     0.028 C 
ATOM     12  C   LIG d   1       3.415  84.643 111.605  0.00  0.00     0.006 C 
ENDBRANCH   8  11
ENDBRANCH   7   8
ENDBRANCH   1   7
BRANCH   6  13
ATOM     13  N   LIG d   1       1.701  81.886 109.735  0.00  0.00    -0.311 N 
ATOM     14  C   LIG d   1       2.979  81.554 109.563  0.00  0.00     0.210 C 
ATOM     15  C   LIG d   1       3.623  82.099 108.284  0.00  0.00     0.109 C 
ATOM     16  O   LIG d   1       3.632  80.832 110.332  0.00  0.00    -0.276 OA
ATOM     17  H   LIG d   1       1.241  82.448 109.045  0.00  0.00     0.149 HD
ENDBRANCH   6  13
BRANCH   5  18
ATOM     18  N   LIG d   1       0.843  79.019 110.348  0.00  0.00     0.381 N 
ATOM     19  H   LIG d   1       0.369  78.447 109.678  0.00  0.00    -0.090 HD
ATOM     20  H   LIG d   1       0.951  78.489 111.195  0.00  0.00    -0.090 HD
ATOM     21  H   LIG d   1       1.737  79.283 109.996  0.00  0.00    -0.090 HD
ENDBRANCH   5  18
BRANCH   3  22
ATOM     22  C   LIG d   1      -2.749  80.809 112.961  0.00  0.00     0.382 C 
ATOM     23  O   LIG d   1      -2.876  79.843 113.752  0.00  0.00    -0.241 OA
ATOM     24  O   LIG d   1      -3.731  81.536 112.718  0.00  0.00    -0.241 OA
ENDBRANCH   3  22
TORSDOF 7
ENDMDL
MODEL 7
REMARK VINA RESULT:      -6.1      1.733      2.384
REMARK  7 active torsions:
REMARK  status: ('A' for Active; 'I' for Inactive)
REMARK    1  A    between atoms: C_2  and  C_3 
REMARK    2  A    between atoms: C_3  and  O_6 
REMARK    3  A    between atoms: C_3  and  C_4 
REMARK    4  A    between atoms: C_7  and  O_6 
REMARK    5  A    between atoms: C_9  and  C_10 
REMARK    6  A    between atoms: N_15  and  C_14 
REMARK    7  A    between atoms: N_20  and  C_19 
REMARK       I    between atoms: C_22  and  N_20 
ROOT
ATOM      1  C   LIG d   1       1.333  82.720 110.329  0.00  0.00     0.161 C 
ATOM      2  C   LIG d   1       1.701  84.076 110.363  0.00  0.00     0.016 C 
ATOM      3  C   LIG d   1       1.059  85.037 111.176  0.00  0.00     0.038 C 
ATOM      4  C   LIG d   1       0.096  84.676 112.131  0.00  0.00     0.028 C 
ATOM      5  C   LIG d   1      -0.661  83.401 111.775  0.00  0.00    -0.047 C 
ATOM      6  C   LIG d   1       0.359  82.287 111.445  0.00  0.00     0.091 C 
ENDROOT
BRANCH   1   7
ATOM      7  O   LIG d   1       2.513  81.893 110.345  0.00  0.00    -0.368 OA
BRANCH   7   8
ATOM      8  C   LIG d   1       2.832  81.214 109.105  0.00  0.00     0.119 C 
BRANCH   8   9
ATOM      9  C   LIG d   1       2.764  79.699 109.376  0.00  0.00     0.028 C 
ATOM     10  C   LIG d   1       1.503  79.051 108.780  0.00  0.00     0.006 C 
ENDBRANCH   8   9
BRANCH   8  11
ATOM     11  C   LIG d   1       4.277  81.486 108.677  0.00  0.00     0.028 C 
ATOM     12  C   LIG d   1       5.190  81.852 109.858  0.00  0.00     0.006 C 
ENDBRANCH   8  11
ENDBRANCH   7   8
ENDBRANCH   1   7
BRANCH   6  13
ATOM     13  N   LIG d   1      -0.298  81.029 111.005  0.00  0.00    -0.311 N 
ATOM     14  C   LIG d   1      -0.643  80.051 111.841  0.00  0.00     0.210 C 
ATOM     15  C   LIG d   1      -1.290  78.832 111.178  0.00  0.00     0.109 C 
ATOM     16  O   LIG d   1      -0.504  80.092 113.073  0.00  0.00    -0.276 OA
ATOM     17  H   LIG d   1      -0.477  80.926 110.026  0.00  0.00     0.149 HD
ENDBRANCH   6  13
BRANCH   5  18
ATOM     18  N   LIG d   1      -1.532  83.067 112.918  0.00  0.00     0.381 N 
ATOM     19  H   LIG d   1      -1.036  82.485 113.563  0.00  0.00    -0.090 HD
ATOM     20  H   LIG d   1      -2.329  82.556 112.581  0.00  0.00    -0.090 HD
ATOM     21  H   LIG d   1      -1.832  83.900 113.374  0.00  0.00    -0.090 HD
ENDBRANCH   5  18
BRANCH   3  22
ATOM     22  C   LIG d   1       1.350  86.383 111.011  0.00  0.00     0.382 C 
ATOM     23  O   LIG d   1       2.429  86.729 110.473  0.00  0.00    -0.241 OA
ATOM     24  O   LIG d   1       0.567  87.255 111.431  0.00  0.00    -0.241 OA
ENDBRANCH   3  22
TORSDOF 7
ENDMDL
MODEL 8
REMARK VINA RESULT:      -6.0      2.470      4.325
REMARK  7 active torsions:
REMARK  status: ('A' for Active; 'I' for Inactive)
REMARK    1  A    between atoms: C_2  and  C_3 
REMARK    2  A    between atoms: C_3  and  O_6 
REMARK    3  A    between atoms: C_3  and  C_4 
REMARK    4  A    between atoms: C_7  and  O_6 
REMARK    5  A    between atoms: C_9  and  C_10 
REMARK    6  A    between atoms: N_15  and  C_14 
REMARK    7  A    between atoms: N_20  and  C_19 
REMARK       I    between atoms: C_22  and  N_20 
ROOT
ATOM      1  C   LIG d   1       0.498  82.448 111.045  0.00  0.00     0.161 C 
ATOM      2  C   LIG d   1      -0.467  83.402 111.412  0.00  0.00     0.016 C 
ATOM      3  C   LIG d   1      -0.259  84.797 111.313  0.00  0.00     0.038 C 
ATOM      4  C   LIG d   1       0.880  85.335 110.695  0.00  0.00     0.028 C 
ATOM      5  C   LIG d   1       2.098  84.421 110.769  0.00  0.00    -0.047 C 
ATOM      6  C   LIG d   1       1.702  83.014 110.264  0.00  0.00     0.091 C 
ENDROOT
BRANCH   1   7
ATOM      7  O   LIG d   1      -0.126  81.384 110.299  0.00  0.00    -0.368 OA
BRANCH   7   8
ATOM      8  C   LIG d   1       0.019  80.051 110.849  0.00  0.00     0.119 C 
BRANCH   8   9
ATOM      9  C   LIG d   1      -0.002  79.060 109.669  0.00  0.00     0.028 C 
ATOM     10  C   LIG d   1       1.360  78.963 108.961  0.00  0.00     0.006 C 
ENDBRANCH   8   9
BRANCH   8  11
ATOM     11  C   LIG d   1      -1.184  79.672 111.718  0.00  0.00     0.028 C 
ATOM     12  C   LIG d   1      -1.929  78.433 111.197  0.00  0.00     0.006 C 
ENDBRANCH   8  11
ENDBRANCH   7   8
ENDBRANCH   1   7
BRANCH   6  13
ATOM     13  N   LIG d   1       2.815  82.036 110.382  0.00  0.00    -0.311 N 
ATOM     14  C   LIG d   1       3.681  81.788 109.401  0.00  0.00     0.210 C 
ATOM     15  C   LIG d   1       4.739  80.728 109.724  0.00  0.00     0.109 C 
ATOM     16  O   LIG d   1       3.693  82.369 108.305  0.00  0.00    -0.276 OA
ATOM     17  H   LIG d   1       2.898  81.542 111.249  0.00  0.00     0.149 HD
ENDBRANCH   6  13
BRANCH   5  18
ATOM     18  N   LIG d   1       3.170  85.042 109.968  0.00  0.00     0.381 N 
ATOM     19  H   LIG d   1       3.244  84.580 109.084  0.00  0.00    -0.090 HD
ATOM     20  H   LIG d   1       4.043  84.933 110.454  0.00  0.00    -0.090 HD
ATOM     21  H   LIG d   1       2.977  86.009 109.830  0.00  0.00    -0.090 HD
ENDBRANCH   5  18
BRANCH   3  22
ATOM     22  C   LIG d   1      -1.179  85.670 111.873  0.00  0.00     0.382 C 
ATOM     23  O   LIG d   1      -1.533  85.526 113.068  0.00  0.00    -0.241 OA
ATOM     24  O   LIG d   1      -1.692  86.573 111.186  0.00  0.00    -0.241 OA
ENDBRANCH   3  22
TORSDOF 7
ENDMDL
MODEL 9
REMARK VINA RESULT:      -6.0      2.443      3.226
REMARK  7 active torsions:
REMARK  status: ('A' for Active; 'I' for Inactive)
REMARK    1  A    between atoms: C_2  and  C_3 
REMARK    2  A    between atoms: C_3  and  O_6 
REMARK    3  A    between atoms: C_3  and  C_4 
REMARK    4  A    between atoms: C_7  and  O_6 
REMARK    5  A    between atoms: C_9  and  C_10 
REMARK    6  A    between atoms: N_15  and  C_14 
REMARK    7  A    between atoms: N_20  and  C_19 
REMARK       I    between atoms: C_22  and  N_20 
ROOT
ATOM      1  C   LIG d   1       1.267  82.754 110.254  0.00  0.00     0.161 C 
ATOM      2  C   LIG d   1       0.593  83.968 110.462  0.00  0.00     0.016 C 
ATOM      3  C   LIG d   1      -0.421  84.139 111.432  0.00  0.00     0.038 C 
ATOM      4  C   LIG d   1      -0.727  83.141 112.369  0.00  0.00     0.028 C 
ATOM      5  C   LIG d   1      -0.426  81.731 111.872  0.00  0.00    -0.047 C 
ATOM      6  C   LIG d   1       1.025  81.685 111.341  0.00  0.00     0.091 C 
ENDROOT
BRANCH   1   7
ATOM      7  O   LIG d   1       2.679  82.999 110.098  0.00  0.00    -0.368 OA
BRANCH   7   8
ATOM      8  C   LIG d   1       3.171  83.048 108.737  0.00  0.00     0.119 C 
BRANCH   8   9
ATOM      9  C   LIG d   1       2.114  82.375 107.838  0.00  0.00     0.028 C 
ATOM     10  C   LIG d   1       1.580  83.322 106.751  0.00  0.00     0.006 C 
ENDBRANCH   8   9
BRANCH   8  11
ATOM     11  C   LIG d   1       4.439  82.205 108.571  0.00  0.00     0.028 C 
ATOM     12  C   LIG d   1       5.153  81.935 109.905  0.00  0.00     0.006 C 
ENDBRANCH   8  11
ENDBRANCH   7   8
ENDBRANCH   1   7
BRANCH   6  13
ATOM     13  N   LIG d   1       1.374  80.364 110.759  0.00  0.00    -0.311 N 
ATOM     14  C   LIG d   1       0.649  79.764 109.816  0.00  0.00     0.210 C 
ATOM     15  C   LIG d   1       1.175  78.396 109.368  0.00  0.00     0.109 C 
ATOM     16  O   LIG d   1      -0.362  80.249 109.285  0.00  0.00    -0.276 OA
ATOM     17  H   LIG d   1       2.196  79.913 111.110  0.00  0.00     0.149 HD
ENDBRANCH   6  13
BRANCH   5  18
ATOM     18  N   LIG d   1      -0.660  80.804 112.995  0.00  0.00     0.381 N 
ATOM     19  H   LIG d   1      -1.604  80.471 112.968  0.00  0.00    -0.090 HD
ATOM     20  H   LIG d   1      -0.524  81.298 113.859  0.00  0.00    -0.090 HD
ATOM     21  H   LIG d   1      -0.028  80.035 112.940  0.00  0.00    -0.090 HD
ENDBRANCH   5  18
BRANCH   3  22
ATOM     22  C   LIG d   1      -1.169  85.307 111.446  0.00  0.00     0.382 C 
ATOM     23  O   LIG d   1      -1.492  85.857 110.365  0.00  0.00    -0.241 OA
ATOM     24  O   LIG d   1      -1.489  85.840 112.525  0.00  0.00    -0.241 OA
ENDBRANCH   3  22
TORSDOF 7
ENDMDL
