MODEL 1
REMARK VINA RESULT:      -6.5      0.000      0.000
REMARK  7 active torsions:
REMARK  status: ('A' for Active; 'I' for Inactive)
REMARK    1  A    between atoms: C_2  and  C_3 
REMARK    2  A    between atoms: C_3  and  O_6 
REMARK    3  A    between atoms: C_3  and  C_4 
REMARK    4  A    between atoms: C_7  and  O_6 
REMARK    5  A    between atoms: C_9  and  C_10 
REMARK    6  A    between atoms: N_15  and  C_14 
REMARK    7  A    between atoms: N_20  and  C_19 
REMARK       I    between atoms: C_22  and  N_20 
ROOT
ATOM      1  C   LIG d   1       2.083  85.120 110.130  0.00  0.00     0.161 C 
ATOM      2  C   LIG d   1       1.147  85.955 110.762  0.00  0.00     0.016 C 
ATOM      3  C   LIG d   1      -0.132  85.517 111.176  0.00  0.00     0.038 C 
ATOM      4  C   LIG d   1      -0.506  84.166 111.122  0.00  0.00     0.028 C 
ATOM      5  C   LIG d   1       0.214  83.381 110.030  0.00  0.00    -0.047 C 
ATOM      6  C   LIG d   1       1.736  83.617 110.163  0.00  0.00     0.091 C 
ENDROOT
BRANCH   1   7
ATOM      7  O   LIG d   1       3.393  85.344 110.689  0.00  0.00    -0.368 OA
BRANCH   7   8
ATOM      8  C   LIG d   1       3.430  85.975 111.992  0.00  0.00     0.119 C 
BRANCH   8   9
ATOM      9  C   LIG d   1       4.541  87.043 111.958  0.00  0.00     0.028 C 
ATOM     10  C   LIG d   1       4.284  88.190 112.949  0.00  0.00     0.006 C 
ENDBRANCH   8   9
BRANCH   8  11
ATOM     11  C   LIG d   1       3.854  84.984 113.080  0.00  0.00     0.028 C 
ATOM     12  C   LIG d   1       2.661  84.413 113.863  0.00  0.00     0.006 C 
ENDBRANCH   8  11
ENDBRANCH   7   8
ENDBRANCH   1   7
BRANCH   6  13
ATOM     13  N   LIG d   1       2.509  82.952 109.082  0.00  0.00    -0.311 N 
ATOM     14  C   LIG d   1       3.364  81.955 109.299  0.00  0.00     0.210 C 
ATOM     15  C   LIG d   1       4.072  81.426 108.047  0.00  0.00     0.109 C 
ATOM     16  O   LIG d   1       3.580  81.436 110.405  0.00  0.00    -0.276 OA
ATOM     17  H   LIG d   1       2.371  83.290 108.149  0.00  0.00     0.149 HD
ENDBRANCH   6  13
BRANCH   5  18
ATOM     18  N   LIG d   1      -0.167  81.963 110.176  0.00  0.00     0.381 N 
ATOM     19  H   LIG d   1       0.564  81.379 109.822  0.00  0.00    -0.090 HD
ATOM     20  H   LIG d   1      -0.997  81.792 109.637  0.00  0.00    -0.090 HD
ATOM     21  H   LIG d   1      -0.335  81.753 111.135  0.00  0.00    -0.090 HD
ENDBRANCH   5  18
BRANCH   3  22
ATOM     22  C   LIG d   1      -1.067  86.442 111.614  0.00  0.00     0.382 C 
ATOM     23  O   LIG d   1      -1.569  87.258 110.804  0.00  0.00    -0.241 OA
ATOM     24  O   LIG d   1      -1.382  86.501 112.818  0.00  0.00    -0.241 OA
ENDBRANCH   3  22
TORSDOF 7
ENDMDL
MODEL 2
REMARK VINA RESULT:      -6.5      2.787      3.831
REMARK  7 active torsions:
REMARK  status: ('A' for Active; 'I' for Inactive)
REMARK    1  A    between atoms: C_2  and  C_3 
REMARK    2  A    between atoms: C_3  and  O_6 
REMARK    3  A    between atoms: C_3  and  C_4 
REMARK    4  A    between atoms: C_7  and  O_6 
REMARK    5  A    between atoms: C_9  and  C_10 
REMARK    6  A    between atoms: N_15  and  C_14 
REMARK    7  A    between atoms: N_20  and  C_19 
REMARK       I    between atoms: C_22  and  N_20 
ROOT
ATOM      1  C   LIG d   1       0.057  82.810 111.122  0.00  0.00     0.161 C 
ATOM      2  C   LIG d   1      -1.076  82.577 111.919  0.00  0.00     0.016 C 
ATOM      3  C   LIG d   1      -1.725  81.323 112.002  0.00  0.00     0.038 C 
ATOM      4  C   LIG d   1      -1.191  80.171 111.405  0.00  0.00     0.028 C 
ATOM      5  C   LIG d   1      -0.332  80.466 110.180  0.00  0.00    -0.047 C 
ATOM      6  C   LIG d   1       0.719  81.538 110.551  0.00  0.00     0.091 C 
ENDROOT
BRANCH   1   7
ATOM      7  O   LIG d   1       1.021  83.589 111.858  0.00  0.00    -0.368 OA
BRANCH   7   8
ATOM      8  C   LIG d   1       1.210  84.955 111.413  0.00  0.00     0.119 C 
BRANCH   8   9
ATOM      9  C   LIG d   1       0.222  85.206 110.258  0.00  0.00     0.028 C 
ATOM     10  C   LIG d   1      -0.794  86.314 110.584  0.00  0.00     0.006 C 
ENDBRANCH   8   9
BRANCH   8  11
ATOM     11  C   LIG d   1       2.602  85.157 110.808  0.00  0.00     0.028 C 
ATOM     12  C   LIG d   1       3.725  84.605 111.700  0.00  0.00     0.006 C 
ENDBRANCH   8  11
ENDBRANCH   7   8
ENDBRANCH   1   7
BRANCH   6  13
ATOM     13  N   LIG d   1       1.547  81.946 109.386  0.00  0.00    -0.311 N 
ATOM     14  C   LIG d   1       2.873  81.823 109.350  0.00  0.00     0.210 C 
ATOM     15  C   LIG d   1       3.534  82.323 108.062  0.00  0.00     0.109 C 
ATOM     16  O   LIG d   1       3.561  81.317 110.250  0.00  0.00    -0.276 OA
ATOM     17  H   LIG d   1       1.067  82.338 108.600  0.00  0.00     0.149 HD
ENDBRANCH   6  13
BRANCH   5  18
ATOM     18  N   LIG d   1       0.271  79.193 109.741  0.00  0.00     0.381 N 
ATOM     19  H   LIG d   1      -0.366  78.441 109.912  0.00  0.00    -0.090 HD
ATOM     20  H   LIG d   1       1.106  79.028 110.276  0.00  0.00    -0.090 HD
ATOM     21  H   LIG d   1       0.492  79.237 108.771  0.00  0.00    -0.090 HD
ENDBRANCH   5  18
BRANCH   3  22
ATOM     22  C   LIG d   1      -2.944  81.222 112.655  0.00  0.00     0.382 C 
ATOM     23  O   LIG d   1      -3.496  80.103 112.783  0.00  0.00    -0.241 OA
ATOM     24  O   LIG d   1      -3.519  82.242 113.079  0.00  0.00    -0.241 OA
ENDBRANCH   3  22
TORSDOF 7
ENDMDL
MODEL 3
REMARK VINA RESULT:      -6.1      3.232      5.924
REMARK  7 active torsions:
REMARK  status: ('A' for Active; 'I' for Inactive)
REMARK    1  A    between atoms: C_2  and  C_3 
REMARK    2  A    between atoms: C_3  and  O_6 
REMARK    3  A    between atoms: C_3  and  C_4 
REMARK    4  A    between atoms: C_7  and  O_6 
REMARK    5  A    between atoms: C_9  and  C_10 
REMARK    6  A    between atoms: N_15  and  C_14 
REMARK    7  A    between atoms: N_20  and  C_19 
REMARK       I    between atoms: C_22  and  N_20 
ROOT
ATOM      1  C   LIG d   1       0.884  82.171 111.634  0.00  0.00     0.161 C 
ATOM      2  C   LIG d   1       1.631  81.570 110.608  0.00  0.00     0.016 C 
ATOM      3  C   LIG d   1       1.181  80.451 109.870  0.00  0.00     0.038 C 
ATOM      4  C   LIG d   1      -0.121  79.947 110.008  0.00  0.00     0.028 C 
ATOM      5  C   LIG d   1      -0.727  80.203 111.384  0.00  0.00    -0.047 C 
ATOM      6  C   LIG d   1      -0.584  81.705 111.723  0.00  0.00     0.091 C 
ENDROOT
BRANCH   1   7
ATOM      7  O   LIG d   1       0.948  83.605 111.509  0.00  0.00    -0.368 OA
BRANCH   7   8
ATOM      8  C   LIG d   1       0.221  84.181 110.395  0.00  0.00     0.119 C 
BRANCH   8   9
ATOM      9  C   LIG d   1       1.256  84.825 109.452  0.00  0.00     0.028 C 
ATOM     10  C   LIG d   1       1.382  84.072 108.117  0.00  0.00     0.006 C 
ENDBRANCH   8   9
BRANCH   8  11
ATOM     11  C   LIG d   1      -0.682  85.330 110.852  0.00  0.00     0.028 C 
ATOM     12  C   LIG d   1      -0.562  85.619 112.357  0.00  0.00     0.006 C 
ENDBRANCH   8  11
ENDBRANCH   7   8
ENDBRANCH   1   7
BRANCH   6  13
ATOM     13  N   LIG d   1      -1.076  82.026 113.088  0.00  0.00    -0.311 N 
ATOM     14  C   LIG d   1      -2.358  82.251 113.372  0.00  0.00     0.210 C 
ATOM     15  C   LIG d   1      -2.647  82.586 114.838  0.00  0.00     0.109 C 
ATOM     16  O   LIG d   1      -3.287  82.174 112.554  0.00  0.00    -0.276 OA
ATOM     17  H   LIG d   1      -0.393  82.079 113.819  0.00  0.00     0.149 HD
ENDBRANCH   6  13
BRANCH   5  18
ATOM     18  N   LIG d   1      -2.131  79.751 111.344  0.00  0.00     0.381 N 
ATOM     19  H   LIG d   1      -2.729  80.520 111.118  0.00  0.00    -0.090 HD
ATOM     20  H   LIG d   1      -2.387  79.408 112.253  0.00  0.00    -0.090 HD
ATOM     21  H   LIG d   1      -2.237  79.028 110.666  0.00  0.00    -0.090 HD
ENDBRANCH   5  18
BRANCH   3  22
ATOM     22  C   LIG d   1       2.051  79.799 109.010  0.00  0.00     0.382 C 
ATOM     23  O   LIG d   1       1.868  78.589 108.730  0.00  0.00    -0.241 OA
ATOM     24  O   LIG d   1       3.043  80.392 108.546  0.00  0.00    -0.241 OA
ENDBRANCH   3  22
TORSDOF 7
ENDMDL
MODEL 4
REMARK VINA RESULT:      -5.8      2.999      4.674
REMARK  7 active torsions:
REMARK  status: ('A' for Active; 'I' for Inactive)
REMARK    1  A    between atoms: C_2  and  C_3 
REMARK    2  A    between atoms: C_3  and  O_6 
REMARK    3  A    between atoms: C_3  and  C_4 
REMARK    4  A    between atoms: C_7  and  O_6 
REMARK    5  A    between atoms: C_9  and  C_10 
REMARK    6  A    between atoms: N_15  and  C_14 
REMARK    7  A    between atoms: N_20  and  C_19 
REMARK       I    between atoms: C_22  and  N_20 
ROOT
ATOM      1  C   LIG d   1      -0.085  82.735 110.987  0.00  0.00     0.161 C 
ATOM      2  C   LIG d   1      -0.450  84.040 111.357  0.00  0.00     0.016 C 
ATOM      3  C   LIG d   1      -0.132  85.185 110.590  0.00  0.00     0.038 C 
ATOM      4  C   LIG d   1       0.446  85.086 109.316  0.00  0.00     0.028 C 
ATOM      5  C   LIG d   1       1.286  83.827 109.127  0.00  0.00    -0.047 C 
ATOM      6  C   LIG d   1       0.448  82.597 109.545  0.00  0.00     0.091 C 
ENDROOT
BRANCH   1   7
ATOM      7  O   LIG d   1      -1.193  81.839 111.199  0.00  0.00    -0.368 OA
BRANCH   7   8
ATOM      8  C   LIG d   1      -1.539  81.568 112.580  0.00  0.00     0.119 C 
BRANCH   8   9
ATOM      9  C   LIG d   1      -0.622  80.433 113.073  0.00  0.00     0.028 C 
ATOM     10  C   LIG d   1       0.289  80.875 114.230  0.00  0.00     0.006 C 
ENDBRANCH   8   9
BRANCH   8  11
ATOM     11  C   LIG d   1      -2.964  81.020 112.700  0.00  0.00     0.028 C 
ATOM     12  C   LIG d   1      -3.018  79.485 112.644  0.00  0.00     0.006 C 
ENDBRANCH   8  11
ENDBRANCH   7   8
ENDBRANCH   1   7
BRANCH   6  13
ATOM     13  N   LIG d   1       1.224  81.332 109.471  0.00  0.00    -0.311 N 
ATOM     14  C   LIG d   1       0.839  80.277 108.755  0.00  0.00     0.210 C 
ATOM     15  C   LIG d   1       1.774  79.066 108.833  0.00  0.00     0.109 C 
ATOM     16  O   LIG d   1      -0.171  80.240 108.036  0.00  0.00    -0.276 OA
ATOM     17  H   LIG d   1       2.073  81.286 109.999  0.00  0.00     0.149 HD
ENDBRANCH   6  13
BRANCH   5  18
ATOM     18  N   LIG d   1       1.713  83.784 107.716  0.00  0.00     0.381 N 
ATOM     19  H   LIG d   1       2.590  84.254 107.613  0.00  0.00    -0.090 HD
ATOM     20  H   LIG d   1       1.031  84.262 107.155  0.00  0.00    -0.090 HD
ATOM     21  H   LIG d   1       1.797  82.838 107.414  0.00  0.00    -0.090 HD
ENDBRANCH   5  18
BRANCH   3  22
ATOM     22  C   LIG d   1      -0.356  86.448 111.116  0.00  0.00     0.382 C 
ATOM     23  O   LIG d   1      -1.524  86.815 111.389  0.00  0.00    -0.241 OA
ATOM     24  O   LIG d   1       0.590  87.242 111.278  0.00  0.00    -0.241 OA
ENDBRANCH   3  22
TORSDOF 7
ENDMDL
MODEL 5
REMARK VINA RESULT:      -5.8      2.265      5.059
REMARK  7 active torsions:
REMARK  status: ('A' for Active; 'I' for Inactive)
REMARK    1  A    between atoms: C_2  and  C_3 
REMARK    2  A    between atoms: C_3  and  O_6 
REMARK    3  A    between atoms: C_3  and  C_4 
REMARK    4  A    between atoms: C_7  and  O_6 
REMARK    5  A    between atoms: C_9  and  C_10 
REMARK    6  A    between atoms: N_15  and  C_14 
REMARK    7  A    between atoms: N_20  and  C_19 
REMARK       I    between atoms: C_22  and  N_20 
ROOT
ATOM      1  C   LIG d   1       1.736  82.898 111.593  0.00  0.00     0.161 C 
ATOM      2  C   LIG d   1       2.622  82.799 110.508  0.00  0.00     0.016 C 
ATOM      3  C   LIG d   1       2.403  81.949 109.400  0.00  0.00     0.038 C 
ATOM      4  C   LIG d   1       1.200  81.247 109.230  0.00  0.00     0.028 C 
ATOM      5  C   LIG d   1       0.496  80.926 110.544  0.00  0.00    -0.047 C 
ATOM      6  C   LIG d   1       0.366  82.224 111.373  0.00  0.00     0.091 C 
ENDROOT
BRANCH   1   7
ATOM      7  O   LIG d   1       1.561  84.282 111.956  0.00  0.00    -0.368 OA
BRANCH   7   8
ATOM      8  C   LIG d   1       0.870  85.112 110.991  0.00  0.00     0.119 C 
BRANCH   8   9
ATOM      9  C   LIG d   1       1.714  86.385 110.786  0.00  0.00     0.028 C 
ATOM     10  C   LIG d   1       3.049  86.332 111.546  0.00  0.00     0.006 C 
ENDBRANCH   8   9
BRANCH   8  11
ATOM     11  C   LIG d   1      -0.475  85.601 111.538  0.00  0.00     0.028 C 
ATOM     12  C   LIG d   1      -0.494  85.698 113.072  0.00  0.00     0.006 C 
ENDBRANCH   8  11
ENDBRANCH   7   8
ENDBRANCH   1   7
BRANCH   6  13
ATOM     13  N   LIG d   1      -0.237  81.985 112.710  0.00  0.00    -0.311 N 
ATOM     14  C   LIG d   1      -1.531  82.162 112.974  0.00  0.00     0.210 C 
ATOM     15  C   LIG d   1      -1.941  81.877 114.422  0.00  0.00     0.109 C 
ATOM     16  O   LIG d   1      -2.383  82.497 112.138  0.00  0.00    -0.276 OA
ATOM     17  H   LIG d   1       0.377  81.681 113.440  0.00  0.00     0.149 HD
ENDBRANCH   6  13
BRANCH   5  18
ATOM     18  N   LIG d   1      -0.807  80.318 110.214  0.00  0.00     0.381 N 
ATOM     19  H   LIG d   1      -1.125  80.658 109.328  0.00  0.00    -0.090 HD
ATOM     20  H   LIG d   1      -1.477  80.586 110.913  0.00  0.00    -0.090 HD
ATOM     21  H   LIG d   1      -0.723  79.326 110.187  0.00  0.00    -0.090 HD
ENDBRANCH   5  18
BRANCH   3  22
ATOM     22  C   LIG d   1       3.411  81.763 108.466  0.00  0.00     0.382 C 
ATOM     23  O   LIG d   1       4.244  80.837 108.619  0.00  0.00    -0.241 OA
ATOM     24  O   LIG d   1       3.525  82.537 107.497  0.00  0.00    -0.241 OA
ENDBRANCH   3  22
TORSDOF 7
ENDMDL
MODEL 6
REMARK VINA RESULT:      -5.5      3.627      6.088
REMARK  7 active torsions:
REMARK  status: ('A' for Active; 'I' for Inactive)
REMARK    1  A    between atoms: C_2  and  C_3 
REMARK    2  A    between atoms: C_3  and  O_6 
REMARK    3  A    between atoms: C_3  and  C_4 
REMARK    4  A    between atoms: C_7  and  O_6 
REMARK    5  A    between atoms: C_9  and  C_10 
REMARK    6  A    between atoms: N_15  and  C_14 
REMARK    7  A    between atoms: N_20  and  C_19 
REMARK       I    between atoms: C_22  and  N_20 
ROOT
ATOM      1  C   LIG d   1      -0.475  82.555 112.124  0.00  0.00     0.161 C 
ATOM      2  C   LIG d   1       0.089  82.252 110.874  0.00  0.00     0.016 C 
ATOM      3  C   LIG d   1      -0.017  80.982 110.260  0.00  0.00     0.038 C 
ATOM      4  C   LIG d   1      -0.828  79.968 110.790  0.00  0.00     0.028 C 
ATOM      5  C   LIG d   1      -1.006  80.062 112.301  0.00  0.00    -0.047 C 
ATOM      6  C   LIG d   1      -1.457  81.495 112.665  0.00  0.00     0.091 C 
ENDROOT
BRANCH   1   7
ATOM      7  O   LIG d   1      -1.112  83.847 112.073  0.00  0.00    -0.368 OA
BRANCH   7   8
ATOM      8  C   LIG d   1      -0.271  84.985 112.383  0.00  0.00     0.119 C 
BRANCH   8   9
ATOM      9  C   LIG d   1      -0.221  85.119 113.917  0.00  0.00     0.028 C 
ATOM     10  C   LIG d   1      -1.294  86.080 114.457  0.00  0.00     0.006 C 
ENDBRANCH   8   9
BRANCH   8  11
ATOM     11  C   LIG d   1      -0.893  86.291 111.881  0.00  0.00     0.028 C 
ATOM     12  C   LIG d   1      -0.988  86.356 110.349  0.00  0.00     0.006 C 
ENDBRANCH   8  11
ENDBRANCH   7   8
ENDBRANCH   1   7
BRANCH   6  13
ATOM     13  N   LIG d   1      -1.574  81.697 114.133  0.00  0.00    -0.311 N 
ATOM     14  C   LIG d   1      -2.635  82.253 114.715  0.00  0.00     0.210 C 
ATOM     15  C   LIG d   1      -2.542  82.385 116.238  0.00  0.00     0.109 C 
ATOM     16  O   LIG d   1      -3.658  82.620 114.117  0.00  0.00    -0.276 OA
ATOM     17  H   LIG d   1      -0.802  81.399 114.697  0.00  0.00     0.149 HD
ENDBRANCH   6  13
BRANCH   5  18
ATOM     18  N   LIG d   1      -1.981  79.029 112.700  0.00  0.00     0.381 N 
ATOM     19  H   LIG d   1      -1.908  78.856 113.683  0.00  0.00    -0.090 HD
ATOM     20  H   LIG d   1      -1.769  78.176 112.213  0.00  0.00    -0.090 HD
ATOM     21  H   LIG d   1      -2.905  79.328 112.476  0.00  0.00    -0.090 HD
ENDBRANCH   5  18
BRANCH   3  22
ATOM     22  C   LIG d   1       0.727  80.705 109.123  0.00  0.00     0.382 C 
ATOM     23  O   LIG d   1       0.961  79.515 108.802  0.00  0.00    -0.241 OA
ATOM     24  O   LIG d   1       1.204  81.631 108.439  0.00  0.00    -0.241 OA
ENDBRANCH   3  22
TORSDOF 7
ENDMDL
MODEL 7
REMARK VINA RESULT:      -5.5      2.832      4.862
REMARK  7 active torsions:
REMARK  status: ('A' for Active; 'I' for Inactive)
REMARK    1  A    between atoms: C_2  and  C_3 
REMARK    2  A    between atoms: C_3  and  O_6 
REMARK    3  A    between atoms: C_3  and  C_4 
REMARK    4  A    between atoms: C_7  and  O_6 
REMARK    5  A    between atoms: C_9  and  C_10 
REMARK    6  A    between atoms: N_15  and  C_14 
REMARK    7  A    between atoms: N_20  and  C_19 
REMARK       I    between atoms: C_22  and  N_20 
ROOT
ATOM      1  C   LIG d   1       1.186  83.378 111.436  0.00  0.00     0.161 C 
ATOM      2  C   LIG d   1       0.049  82.595 111.697  0.00  0.00     0.016 C 
ATOM      3  C   LIG d   1      -0.954  82.964 112.622  0.00  0.00     0.038 C 
ATOM      4  C   LIG d   1      -0.965  84.222 113.241  0.00  0.00     0.028 C 
ATOM      5  C   LIG d   1       0.423  84.836 113.390  0.00  0.00    -0.047 C 
ATOM      6  C   LIG d   1       1.135  84.806 112.019  0.00  0.00     0.091 C 
ENDROOT
BRANCH   1   7
ATOM      7  O   LIG d   1       1.430  83.425 110.016  0.00  0.00    -0.368 OA
BRANCH   7   8
ATOM      8  C   LIG d   1       2.716  82.924 109.574  0.00  0.00     0.119 C 
BRANCH   8   9
ATOM      9  C   LIG d   1       2.650  82.769 108.042  0.00  0.00     0.028 C 
ATOM     10  C   LIG d   1       1.530  83.616 107.414  0.00  0.00     0.006 C 
ENDBRANCH   8   9
BRANCH   8  11
ATOM     11  C   LIG d   1       2.980  81.515 110.113  0.00  0.00     0.028 C 
ATOM     12  C   LIG d   1       3.623  80.589 109.069  0.00  0.00     0.006 C 
ENDBRANCH   8  11
ENDBRANCH   7   8
ENDBRANCH   1   7
BRANCH   6  13
ATOM     13  N   LIG d   1       2.531  85.311 112.093  0.00  0.00    -0.311 N 
ATOM     14  C   LIG d   1       2.876  86.559 111.782  0.00  0.00     0.210 C 
ATOM     15  C   LIG d   1       4.371  86.867 111.909  0.00  0.00     0.109 C 
ATOM     16  O   LIG d   1       2.082  87.449 111.443  0.00  0.00    -0.276 OA
ATOM     17  H   LIG d   1       3.235  84.664 112.389  0.00  0.00     0.149 HD
ENDBRANCH   6  13
BRANCH   5  18
ATOM     18  N   LIG d   1       0.252  86.201 113.923  0.00  0.00     0.381 N 
ATOM     19  H   LIG d   1       1.075  86.477 114.420  0.00  0.00    -0.090 HD
ATOM     20  H   LIG d   1      -0.520  86.205 114.566  0.00  0.00    -0.090 HD
ATOM     21  H   LIG d   1       0.076  86.838 113.178  0.00  0.00    -0.090 HD
ENDBRANCH   5  18
BRANCH   3  22
ATOM     22  C   LIG d   1      -1.941  82.052 112.966  0.00  0.00     0.382 C 
ATOM     23  O   LIG d   1      -3.083  82.142 112.456  0.00  0.00    -0.241 OA
ATOM     24  O   LIG d   1      -1.716  81.167 113.813  0.00  0.00    -0.241 OA
ENDBRANCH   3  22
TORSDOF 7
ENDMDL
MODEL 8
REMARK VINA RESULT:      -5.2      3.269      5.870
REMARK  7 active torsions:
REMARK  status: ('A' for Active; 'I' for Inactive)
REMARK    1  A    between atoms: C_2  and  C_3 
REMARK    2  A    between atoms: C_3  and  O_6 
REMARK    3  A    between atoms: C_3  and  C_4 
REMARK    4  A    between atoms: C_7  and  O_6 
REMARK    5  A    between atoms: C_9  and  C_10 
REMARK    6  A    between atoms: N_15  and  C_14 
REMARK    7  A    between atoms: N_20  and  C_19 
REMARK       I    between atoms: C_22  and  N_20 
ROOT
ATOM      1  C   LIG d   1       0.670  82.108 112.713  0.00  0.00     0.161 C 
ATOM      2  C   LIG d   1       1.517  81.749 111.651  0.00  0.00     0.016 C 
ATOM      3  C   LIG d   1       1.134  80.867 110.615  0.00  0.00     0.038 C 
ATOM      4  C   LIG d   1      -0.182  80.399 110.488  0.00  0.00     0.028 C 
ATOM      5  C   LIG d   1      -0.932  80.332 111.814  0.00  0.00    -0.047 C 
ATOM      6  C   LIG d   1      -0.805  81.696 112.531  0.00  0.00     0.091 C 
ENDROOT
BRANCH   1   7
ATOM      7  O   LIG d   1       0.768  83.525 112.958  0.00  0.00    -0.368 OA
BRANCH   7   8
ATOM      8  C   LIG d   1      -0.217  84.356 112.295  0.00  0.00     0.119 C 
BRANCH   8   9
ATOM      9  C   LIG d   1       0.525  85.204 111.243  0.00  0.00     0.028 C 
ATOM     10  C   LIG d   1      -0.430  85.829 110.213  0.00  0.00     0.006 C 
ENDBRANCH   8   9
BRANCH   8  11
ATOM     11  C   LIG d   1      -0.838  85.366 113.265  0.00  0.00     0.028 C 
ATOM     12  C   LIG d   1      -0.173  85.348 114.650  0.00  0.00     0.006 C 
ENDBRANCH   8  11
ENDBRANCH   7   8
ENDBRANCH   1   7
BRANCH   6  13
ATOM     13  N   LIG d   1      -1.439  81.690 113.875  0.00  0.00    -0.311 N 
ATOM     14  C   LIG d   1      -2.683  82.111 114.101  0.00  0.00     0.210 C 
ATOM     15  C   LIG d   1      -3.135  82.039 115.563  0.00  0.00     0.109 C 
ATOM     16  O   LIG d   1      -3.466  82.506 113.224  0.00  0.00    -0.276 OA
ATOM     17  H   LIG d   1      -0.886  81.356 114.640  0.00  0.00     0.149 HD
ENDBRANCH   6  13
BRANCH   5  18
ATOM     18  N   LIG d   1      -2.329  79.962 111.518  0.00  0.00     0.381 N 
ATOM     19  H   LIG d   1      -2.358  79.364 110.717  0.00  0.00    -0.090 HD
ATOM     20  H   LIG d   1      -2.849  80.796 111.309  0.00  0.00    -0.090 HD
ATOM     21  H   LIG d   1      -2.732  79.499 112.303  0.00  0.00    -0.090 HD
ENDBRANCH   5  18
BRANCH   3  22
ATOM     22  C   LIG d   1       2.085  80.412 109.714  0.00  0.00     0.382 C 
ATOM     23  O   LIG d   1       3.256  80.858 109.759  0.00  0.00    -0.241 OA
ATOM     24  O   LIG d   1       1.774  79.593 108.827  0.00  0.00    -0.241 OA
ENDBRANCH   3  22
TORSDOF 7
ENDMDL
MODEL 9
REMARK VINA RESULT:      -5.2      2.597      3.895
REMARK  7 active torsions:
REMARK  status: ('A' for Active; 'I' for Inactive)
REMARK    1  A    between atoms: C_2  and  C_3 
REMARK    2  A    between atoms: C_3  and  O_6 
REMARK    3  A    between atoms: C_3  and  C_4 
REMARK    4  A    between atoms: C_7  and  O_6 
REMARK    5  A    between atoms: C_9  and  C_10 
REMARK    6  A    between atoms: N_15  and  C_14 
REMARK    7  A    between atoms: N_20  and  C_19 
REMARK       I    between atoms: C_22  and  N_20 
ROOT
ATOM      1  C   LIG d   1       1.708  82.654 111.598  0.00  0.00     0.161 C 
ATOM      2  C   LIG d   1       1.661  83.992 112.024  0.00  0.00     0.016 C 
ATOM      3  C   LIG d   1       1.506  85.085 111.141  0.00  0.00     0.038 C 
ATOM      4  C   LIG d   1       1.233  84.903 109.777  0.00  0.00     0.028 C 
ATOM      5  C   LIG d   1       1.774  83.590 109.221  0.00  0.00    -0.047 C 
ATOM      6  C   LIG d   1       1.301  82.430 110.126  0.00  0.00     0.091 C 
ENDROOT
BRANCH   1   7
ATOM      7  O   LIG d   1       0.905  81.835 112.470  0.00  0.00    -0.368 OA
BRANCH   7   8
ATOM      8  C   LIG d   1       0.750  82.312 113.829  0.00  0.00     0.119 C 
BRANCH   8   9
ATOM      9  C   LIG d   1       1.513  81.342 114.751  0.00  0.00     0.028 C 
ATOM     10  C   LIG d   1       2.450  82.074 115.727  0.00  0.00     0.006 C 
ENDBRANCH   8   9
BRANCH   8  11
ATOM     11  C   LIG d   1      -0.711  82.238 114.283  0.00  0.00     0.028 C 
ATOM     12  C   LIG d   1      -1.259  83.594 114.754  0.00  0.00     0.006 C 
ENDBRANCH   8  11
ENDBRANCH   7   8
ENDBRANCH   1   7
BRANCH   6  13
ATOM     13  N   LIG d   1       1.855  81.118 109.701  0.00  0.00    -0.311 N 
ATOM     14  C   LIG d   1       1.191  80.256 108.933  0.00  0.00     0.210 C 
ATOM     15  C   LIG d   1       1.937  78.953 108.629  0.00  0.00     0.109 C 
ATOM     16  O   LIG d   1       0.069  80.460 108.447  0.00  0.00    -0.276 OA
ATOM     17  H   LIG d   1       2.774  80.884 110.025  0.00  0.00     0.149 HD
ENDBRANCH   6  13
BRANCH   5  18
ATOM     18  N   LIG d   1       1.300  83.467 107.829  0.00  0.00     0.381 N 
ATOM     19  H   LIG d   1       1.967  83.879 107.207  0.00  0.00    -0.090 HD
ATOM     20  H   LIG d   1       0.432  83.965 107.736  0.00  0.00    -0.090 HD
ATOM     21  H   LIG d   1       1.168  82.507 107.598  0.00  0.00    -0.090 HD
ENDBRANCH   5  18
BRANCH   3  22
ATOM     22  C   LIG d   1       1.663  86.379 111.615  0.00  0.00     0.382 C 
ATOM     23  O   LIG d   1       1.152  86.711 112.712  0.00  0.00    -0.241 OA
ATOM     24  O   LIG d   1       2.270  87.230 110.939  0.00  0.00    -0.241 OA
ENDBRANCH   3  22
TORSDOF 7
ENDMDL
