MODEL 1
REMARK VINA RESULT:      -6.6      0.000      0.000
REMARK  7 active torsions:
REMARK  status: ('A' for Active; 'I' for Inactive)
REMARK    1  A    between atoms: C_2  and  C_3 
REMARK    2  A    between atoms: C_3  and  O_6 
REMARK    3  A    between atoms: C_3  and  C_4 
REMARK    4  A    between atoms: C_7  and  O_6 
REMARK    5  A    between atoms: C_9  and  C_10 
REMARK    6  A    between atoms: N_15  and  C_14 
REMARK    7  A    between atoms: N_20  and  C_19 
REMARK       I    between atoms: C_22  and  N_20 
ROOT
ATOM      1  C   LIG d   1       2.022  83.169 111.143  0.00  0.00     0.161 C 
ATOM      2  C   LIG d   1       0.927  82.289 111.136  0.00  0.00     0.016 C 
ATOM      3  C   LIG d   1      -0.289  82.555 111.808  0.00  0.00     0.038 C 
ATOM      4  C   LIG d   1      -0.547  83.795 112.411  0.00  0.00     0.028 C 
ATOM      5  C   LIG d   1       0.713  84.517 112.875  0.00  0.00    -0.047 C 
ATOM      6  C   LIG d   1       1.718  84.575 111.702  0.00  0.00     0.091 C 
ENDROOT
BRANCH   1   7
ATOM      7  O   LIG d   1       2.578  83.267 109.817  0.00  0.00    -0.368 OA
BRANCH   7   8
ATOM      8  C   LIG d   1       2.067  82.326 108.840  0.00  0.00     0.119 C 
BRANCH   8   9
ATOM      9  C   LIG d   1       3.262  81.506 108.317  0.00  0.00     0.028 C 
ATOM     10  C   LIG d   1       4.608  82.208 108.566  0.00  0.00     0.006 C 
ENDBRANCH   8   9
BRANCH   8  11
ATOM     11  C   LIG d   1       1.502  83.048 107.613  0.00  0.00     0.028 C 
ATOM     12  C   LIG d   1       1.058  84.487 107.921  0.00  0.00     0.006 C 
ENDBRANCH   8  11
ENDBRANCH   7   8
ENDBRANCH   1   7
BRANCH   6  13
ATOM     13  N   LIG d   1       3.012  85.192 112.094  0.00  0.00    -0.311 N 
ATOM     14  C   LIG d   1       3.299  86.479 111.905  0.00  0.00     0.210 C 
ATOM     15  C   LIG d   1       4.697  86.905 112.364  0.00  0.00     0.109 C 
ATOM     16  O   LIG d   1       2.516  87.315 111.430  0.00  0.00    -0.276 OA
ATOM     17  H   LIG d   1       3.694  84.592 112.516  0.00  0.00     0.149 HD
ENDBRANCH   6  13
BRANCH   5  18
ATOM     18  N   LIG d   1       0.310  85.852 113.357  0.00  0.00     0.381 N 
ATOM     19  H   LIG d   1       0.175  86.467 112.579  0.00  0.00    -0.090 HD
ATOM     20  H   LIG d   1       1.045  86.226 113.930  0.00  0.00    -0.090 HD
ATOM     21  H   LIG d   1      -0.532  85.784 113.885  0.00  0.00    -0.090 HD
ENDBRANCH   5  18
BRANCH   3  22
ATOM     22  C   LIG d   1      -1.246  81.558 111.916  0.00  0.00     0.382 C 
ATOM     23  O   LIG d   1      -2.335  81.794 112.492  0.00  0.00    -0.241 OA
ATOM     24  O   LIG d   1      -1.017  80.413 111.483  0.00  0.00    -0.241 OA
ENDBRANCH   3  22
TORSDOF 7
ENDMDL
MODEL 2
REMARK VINA RESULT:      -6.5      2.778      4.740
REMARK  7 active torsions:
REMARK  status: ('A' for Active; 'I' for Inactive)
REMARK    1  A    between atoms: C_2  and  C_3 
REMARK    2  A    between atoms: C_3  and  O_6 
REMARK    3  A    between atoms: C_3  and  C_4 
REMARK    4  A    between atoms: C_7  and  O_6 
REMARK    5  A    between atoms: C_9  and  C_10 
REMARK    6  A    between atoms: N_15  and  C_14 
REMARK    7  A    between atoms: N_20  and  C_19 
REMARK       I    between atoms: C_22  and  N_20 
ROOT
ATOM      1  C   LIG d   1       0.134  82.158 110.972  0.00  0.00     0.161 C 
ATOM      2  C   LIG d   1      -0.388  81.332 111.981  0.00  0.00     0.016 C 
ATOM      3  C   LIG d   1      -0.607  79.945 111.815  0.00  0.00     0.038 C 
ATOM      4  C   LIG d   1      -0.174  79.258 110.671  0.00  0.00     0.028 C 
ATOM      5  C   LIG d   1      -0.103  80.137 109.427  0.00  0.00    -0.047 C 
ATOM      6  C   LIG d   1       0.715  81.407 109.756  0.00  0.00     0.091 C 
ENDROOT
BRANCH   1   7
ATOM      7  O   LIG d   1       1.122  83.047 111.531  0.00  0.00    -0.368 OA
BRANCH   7   8
ATOM      8  C   LIG d   1       0.810  84.461 111.478  0.00  0.00     0.119 C 
BRANCH   8   9
ATOM      9  C   LIG d   1      -0.639  84.597 110.971  0.00  0.00     0.028 C 
ATOM     10  C   LIG d   1      -0.772  85.637 109.846  0.00  0.00     0.006 C 
ENDBRANCH   8   9
BRANCH   8  11
ATOM     11  C   LIG d   1       1.672  85.184 110.440  0.00  0.00     0.028 C 
ATOM     12  C   LIG d   1       3.128  84.689 110.425  0.00  0.00     0.006 C 
ENDBRANCH   8  11
ENDBRANCH   7   8
ENDBRANCH   1   7
BRANCH   6  13
ATOM     13  N   LIG d   1       0.762  82.361 108.618  0.00  0.00    -0.311 N 
ATOM     14  C   LIG d   1       1.788  82.443 107.772  0.00  0.00     0.210 C 
ATOM     15  C   LIG d   1       1.643  83.509 106.681  0.00  0.00     0.109 C 
ATOM     16  O   LIG d   1       2.790  81.712 107.803  0.00  0.00    -0.276 OA
ATOM     17  H   LIG d   1      -0.023  82.970 108.500  0.00  0.00     0.149 HD
ENDBRANCH   6  13
BRANCH   5  18
ATOM     18  N   LIG d   1       0.492  79.330 108.345  0.00  0.00     0.381 N 
ATOM     19  H   LIG d   1      -0.197  78.711 107.967  0.00  0.00    -0.090 HD
ATOM     20  H   LIG d   1       1.239  78.777 108.725  0.00  0.00    -0.090 HD
ATOM     21  H   LIG d   1       0.841  79.927 107.627  0.00  0.00    -0.090 HD
ENDBRANCH   5  18
BRANCH   3  22
ATOM     22  C   LIG d   1      -1.301  79.238 112.785  0.00  0.00     0.382 C 
ATOM     23  O   LIG d   1      -0.988  79.359 113.994  0.00  0.00    -0.241 OA
ATOM     24  O   LIG d   1      -2.208  78.447 112.462  0.00  0.00    -0.241 OA
ENDBRANCH   3  22
TORSDOF 7
ENDMDL
MODEL 3
REMARK VINA RESULT:      -6.4      2.725      4.499
REMARK  7 active torsions:
REMARK  status: ('A' for Active; 'I' for Inactive)
REMARK    1  A    between atoms: C_2  and  C_3 
REMARK    2  A    between atoms: C_3  and  O_6 
REMARK    3  A    between atoms: C_3  and  C_4 
REMARK    4  A    between atoms: C_7  and  O_6 
REMARK    5  A    between atoms: C_9  and  C_10 
REMARK    6  A    between atoms: N_15  and  C_14 
REMARK    7  A    between atoms: N_20  and  C_19 
REMARK       I    between atoms: C_22  and  N_20 
ROOT
ATOM      1  C   LIG d   1       0.129  82.338 111.140  0.00  0.00     0.161 C 
ATOM      2  C   LIG d   1      -1.008  82.171 111.949  0.00  0.00     0.016 C 
ATOM      3  C   LIG d   1      -1.571  80.910 112.248  0.00  0.00     0.038 C 
ATOM      4  C   LIG d   1      -0.943  79.711 111.880  0.00  0.00     0.028 C 
ATOM      5  C   LIG d   1      -0.071  79.841 110.636  0.00  0.00    -0.047 C 
ATOM      6  C   LIG d   1       0.893  81.036 110.822  0.00  0.00     0.091 C 
ENDROOT
BRANCH   1   7
ATOM      7  O   LIG d   1       1.015  83.306 111.737  0.00  0.00    -0.368 OA
BRANCH   7   8
ATOM      8  C   LIG d   1       1.013  84.626 111.140  0.00  0.00     0.119 C 
BRANCH   8   9
ATOM      9  C   LIG d   1       0.250  85.565 112.094  0.00  0.00     0.028 C 
ATOM     10  C   LIG d   1       0.651  85.360 113.564  0.00  0.00     0.006 C 
ENDBRANCH   8   9
BRANCH   8  11
ATOM     11  C   LIG d   1       0.218  84.644 109.831  0.00  0.00     0.028 C 
ATOM     12  C   LIG d   1      -0.801  85.792 109.769  0.00  0.00     0.006 C 
ENDBRANCH   8  11
ENDBRANCH   7   8
ENDBRANCH   1   7
BRANCH   6  13
ATOM     13  N   LIG d   1       1.724  81.286 109.616  0.00  0.00    -0.311 N 
ATOM     14  C   LIG d   1       3.025  81.568 109.668  0.00  0.00     0.210 C 
ATOM     15  C   LIG d   1       3.689  81.811 108.309  0.00  0.00     0.109 C 
ATOM     16  O   LIG d   1       3.699  81.608 110.708  0.00  0.00    -0.276 OA
ATOM     17  H   LIG d   1       1.264  81.243 108.727  0.00  0.00     0.149 HD
ENDBRANCH   6  13
BRANCH   5  18
ATOM     18  N   LIG d   1       0.631  78.557 110.447  0.00  0.00     0.381 N 
ATOM     19  H   LIG d   1       1.618  78.713 110.406  0.00  0.00    -0.090 HD
ATOM     20  H   LIG d   1       0.339  78.153 109.574  0.00  0.00    -0.090 HD
ATOM     21  H   LIG d   1       0.416  77.938 111.197  0.00  0.00    -0.090 HD
ENDBRANCH   5  18
BRANCH   3  22
ATOM     22  C   LIG d   1      -2.799  80.840 112.889  0.00  0.00     0.382 C 
ATOM     23  O   LIG d   1      -3.703  81.661 112.603  0.00  0.00    -0.241 OA
ATOM     24  O   LIG d   1      -2.998  79.994 113.782  0.00  0.00    -0.241 OA
ENDBRANCH   3  22
TORSDOF 7
ENDMDL
MODEL 4
REMARK VINA RESULT:      -6.1      1.799      4.953
REMARK  7 active torsions:
REMARK  status: ('A' for Active; 'I' for Inactive)
REMARK    1  A    between atoms: C_2  and  C_3 
REMARK    2  A    between atoms: C_3  and  O_6 
REMARK    3  A    between atoms: C_3  and  C_4 
REMARK    4  A    between atoms: C_7  and  O_6 
REMARK    5  A    between atoms: C_9  and  C_10 
REMARK    6  A    between atoms: N_15  and  C_14 
REMARK    7  A    between atoms: N_20  and  C_19 
REMARK       I    between atoms: C_22  and  N_20 
ROOT
ATOM      1  C   LIG d   1       0.424  83.873 110.696  0.00  0.00     0.161 C 
ATOM      2  C   LIG d   1       1.358  84.914 110.562  0.00  0.00     0.016 C 
ATOM      3  C   LIG d   1       2.269  85.278 111.580  0.00  0.00     0.038 C 
ATOM      4  C   LIG d   1       2.411  84.521 112.753  0.00  0.00     0.028 C 
ATOM      5  C   LIG d   1       1.144  83.768 113.145  0.00  0.00    -0.047 C 
ATOM      6  C   LIG d   1       0.639  82.965 111.925  0.00  0.00     0.091 C 
ENDROOT
BRANCH   1   7
ATOM      7  O   LIG d   1       0.395  83.084 109.490  0.00  0.00    -0.368 OA
BRANCH   7   8
ATOM      8  C   LIG d   1       1.509  82.180 109.292  0.00  0.00     0.119 C 
BRANCH   8   9
ATOM      9  C   LIG d   1       2.313  82.692 108.082  0.00  0.00     0.028 C 
ATOM     10  C   LIG d   1       1.408  83.251 106.971  0.00  0.00     0.006 C 
ENDBRANCH   8   9
BRANCH   8  11
ATOM     11  C   LIG d   1       1.028  80.781 108.897  0.00  0.00     0.028 C 
ATOM     12  C   LIG d   1       2.085  79.694 109.149  0.00  0.00     0.006 C 
ENDBRANCH   8  11
ENDBRANCH   7   8
ENDBRANCH   1   7
BRANCH   6  13
ATOM     13  N   LIG d   1      -0.643  82.266 112.198  0.00  0.00    -0.311 N 
ATOM     14  C   LIG d   1      -0.756  80.940 112.266  0.00  0.00     0.210 C 
ATOM     15  C   LIG d   1      -2.172  80.425 112.537  0.00  0.00     0.109 C 
ATOM     16  O   LIG d   1       0.189  80.144 112.159  0.00  0.00    -0.276 OA
ATOM     17  H   LIG d   1      -1.455  82.837 112.328  0.00  0.00     0.149 HD
ENDBRANCH   6  13
BRANCH   5  18
ATOM     18  N   LIG d   1       1.473  82.916 114.303  0.00  0.00     0.381 N 
ATOM     19  H   LIG d   1       1.813  83.481 115.055  0.00  0.00    -0.090 HD
ATOM     20  H   LIG d   1       2.200  82.274 114.038  0.00  0.00    -0.090 HD
ATOM     21  H   LIG d   1       0.665  82.411 114.595  0.00  0.00    -0.090 HD
ENDBRANCH   5  18
BRANCH   3  22
ATOM     22  C   LIG d   1       3.023  86.434 111.446  0.00  0.00     0.382 C 
ATOM     23  O   LIG d   1       4.272  86.360 111.349  0.00  0.00    -0.241 OA
ATOM     24  O   LIG d   1       2.474  87.552 111.467  0.00  0.00    -0.241 OA
ENDBRANCH   3  22
TORSDOF 7
ENDMDL
MODEL 5
REMARK VINA RESULT:      -5.8      2.256      5.315
REMARK  7 active torsions:
REMARK  status: ('A' for Active; 'I' for Inactive)
REMARK    1  A    between atoms: C_2  and  C_3 
REMARK    2  A    between atoms: C_3  and  O_6 
REMARK    3  A    between atoms: C_3  and  C_4 
REMARK    4  A    between atoms: C_7  and  O_6 
REMARK    5  A    between atoms: C_9  and  C_10 
REMARK    6  A    between atoms: N_15  and  C_14 
REMARK    7  A    between atoms: N_20  and  C_19 
REMARK       I    between atoms: C_22  and  N_20 
ROOT
ATOM      1  C   LIG d   1       1.989  85.171 111.581  0.00  0.00     0.161 C 
ATOM      2  C   LIG d   1       2.638  86.409 111.719  0.00  0.00     0.016 C 
ATOM      3  C   LIG d   1       3.357  86.788 112.876  0.00  0.00     0.038 C 
ATOM      4  C   LIG d   1       3.603  85.887 113.923  0.00  0.00     0.028 C 
ATOM      5  C   LIG d   1       2.543  84.798 114.048  0.00  0.00    -0.047 C 
ATOM      6  C   LIG d   1       2.341  84.133 112.667  0.00  0.00     0.091 C 
ENDROOT
BRANCH   1   7
ATOM      7  O   LIG d   1       2.242  84.630 110.270  0.00  0.00    -0.368 OA
BRANCH   7   8
ATOM      8  C   LIG d   1       1.256  84.934 109.253  0.00  0.00     0.119 C 
BRANCH   8   9
ATOM      9  C   LIG d   1      -0.136  84.765 109.894  0.00  0.00     0.028 C 
ATOM     10  C   LIG d   1      -1.003  86.027 109.754  0.00  0.00     0.006 C 
ENDBRANCH   8   9
BRANCH   8  11
ATOM     11  C   LIG d   1       1.302  83.917 108.110  0.00  0.00     0.028 C 
ATOM     12  C   LIG d   1       1.641  82.496 108.589  0.00  0.00     0.006 C 
ENDBRANCH   8  11
ENDBRANCH   7   8
ENDBRANCH   1   7
BRANCH   6  13
ATOM     13  N   LIG d   1       1.260  83.113 112.682  0.00  0.00    -0.311 N 
ATOM     14  C   LIG d   1       1.444  81.844 112.322  0.00  0.00     0.210 C 
ATOM     15  C   LIG d   1       0.191  80.965 112.392  0.00  0.00     0.109 C 
ATOM     16  O   LIG d   1       2.532  81.356 111.983  0.00  0.00    -0.276 OA
ATOM     17  H   LIG d   1       0.351  83.416 112.974  0.00  0.00     0.149 HD
ENDBRANCH   6  13
BRANCH   5  18
ATOM     18  N   LIG d   1       2.995  83.852 115.085  0.00  0.00     0.381 N 
ATOM     19  H   LIG d   1       3.571  84.328 115.750  0.00  0.00    -0.090 HD
ATOM     20  H   LIG d   1       3.544  83.132 114.651  0.00  0.00    -0.090 HD
ATOM     21  H   LIG d   1       2.209  83.449 115.545  0.00  0.00    -0.090 HD
ENDBRANCH   5  18
BRANCH   3  22
ATOM     22  C   LIG d   1       3.803  88.093 113.012  0.00  0.00     0.382 C 
ATOM     23  O   LIG d   1       2.991  89.007 113.297  0.00  0.00    -0.241 OA
ATOM     24  O   LIG d   1       4.999  88.376 112.810  0.00  0.00    -0.241 OA
ENDBRANCH   3  22
TORSDOF 7
ENDMDL
MODEL 6
REMARK VINA RESULT:      -5.8      3.051      5.605
REMARK  7 active torsions:
REMARK  status: ('A' for Active; 'I' for Inactive)
REMARK    1  A    between atoms: C_2  and  C_3 
REMARK    2  A    between atoms: C_3  and  O_6 
REMARK    3  A    between atoms: C_3  and  C_4 
REMARK    4  A    between atoms: C_7  and  O_6 
REMARK    5  A    between atoms: C_9  and  C_10 
REMARK    6  A    between atoms: N_15  and  C_14 
REMARK    7  A    between atoms: N_20  and  C_19 
REMARK       I    between atoms: C_22  and  N_20 
ROOT
ATOM      1  C   LIG d   1       0.472  82.391 112.124  0.00  0.00     0.161 C 
ATOM      2  C   LIG d   1      -0.218  83.582 112.405  0.00  0.00     0.016 C 
ATOM      3  C   LIG d   1      -0.508  84.563 111.428  0.00  0.00     0.038 C 
ATOM      4  C   LIG d   1      -0.257  84.348 110.065  0.00  0.00     0.028 C 
ATOM      5  C   LIG d   1       0.892  83.380 109.805  0.00  0.00    -0.047 C 
ATOM      6  C   LIG d   1       0.655  82.089 110.622  0.00  0.00     0.091 C 
ENDROOT
BRANCH   1   7
ATOM      7  O   LIG d   1      -0.175  81.285 112.782  0.00  0.00    -0.368 OA
BRANCH   7   8
ATOM      8  C   LIG d   1      -1.214  80.613 112.028  0.00  0.00     0.119 C 
BRANCH   8   9
ATOM      9  C   LIG d   1      -2.541  80.815 112.787  0.00  0.00     0.028 C 
ATOM     10  C   LIG d   1      -2.850  79.654 113.747  0.00  0.00     0.006 C 
ENDBRANCH   8   9
BRANCH   8  11
ATOM     11  C   LIG d   1      -0.990  79.098 111.998  0.00  0.00     0.028 C 
ATOM     12  C   LIG d   1      -1.337  78.471 110.638  0.00  0.00     0.006 C 
ENDBRANCH   8  11
ENDBRANCH   7   8
ENDBRANCH   1   7
BRANCH   6  13
ATOM     13  N   LIG d   1       1.775  81.121 110.491  0.00  0.00    -0.311 N 
ATOM     14  C   LIG d   1       1.810  80.161 109.569  0.00  0.00     0.210 C 
ATOM     15  C   LIG d   1       3.048  79.259 109.622  0.00  0.00     0.109 C 
ATOM     16  O   LIG d   1       0.950  79.989 108.693  0.00  0.00    -0.276 OA
ATOM     17  H   LIG d   1       2.531  81.208 111.142  0.00  0.00     0.149 HD
ENDBRANCH   6  13
BRANCH   5  18
ATOM     18  N   LIG d   1       0.953  83.141 108.351  0.00  0.00     0.381 N 
ATOM     19  H   LIG d   1       0.035  82.960 107.998  0.00  0.00    -0.090 HD
ATOM     20  H   LIG d   1       1.523  82.331 108.178  0.00  0.00    -0.090 HD
ATOM     21  H   LIG d   1       1.343  83.934 107.891  0.00  0.00    -0.090 HD
ENDBRANCH   5  18
BRANCH   3  22
ATOM     22  C   LIG d   1      -1.018  85.792 111.818  0.00  0.00     0.382 C 
ATOM     23  O   LIG d   1      -1.225  86.685 110.962  0.00  0.00    -0.241 OA
ATOM     24  O   LIG d   1      -1.232  86.034 113.021  0.00  0.00    -0.241 OA
ENDBRANCH   3  22
TORSDOF 7
ENDMDL
MODEL 7
REMARK VINA RESULT:      -5.7      2.586      4.850
REMARK  7 active torsions:
REMARK  status: ('A' for Active; 'I' for Inactive)
REMARK    1  A    between atoms: C_2  and  C_3 
REMARK    2  A    between atoms: C_3  and  O_6 
REMARK    3  A    between atoms: C_3  and  C_4 
REMARK    4  A    between atoms: C_7  and  O_6 
REMARK    5  A    between atoms: C_9  and  C_10 
REMARK    6  A    between atoms: N_15  and  C_14 
REMARK    7  A    between atoms: N_20  and  C_19 
REMARK       I    between atoms: C_22  and  N_20 
ROOT
ATOM      1  C   LIG d   1       2.328  82.936 110.685  0.00  0.00     0.161 C 
ATOM      2  C   LIG d   1       2.699  81.581 110.656  0.00  0.00     0.016 C 
ATOM      3  C   LIG d   1       2.553  80.759 109.515  0.00  0.00     0.038 C 
ATOM      4  C   LIG d   1       2.163  81.278 108.272  0.00  0.00     0.028 C 
ATOM      5  C   LIG d   1       1.298  82.529 108.382  0.00  0.00    -0.047 C 
ATOM      6  C   LIG d   1       2.005  83.547 109.306  0.00  0.00     0.091 C 
ENDROOT
BRANCH   1   7
ATOM      7  O   LIG d   1       3.349  83.708 111.348  0.00  0.00    -0.368 OA
BRANCH   7   8
ATOM      8  C   LIG d   1       2.881  84.736 112.256  0.00  0.00     0.119 C 
BRANCH   8   9
ATOM      9  C   LIG d   1       4.123  85.415 112.865  0.00  0.00     0.028 C 
ATOM     10  C   LIG d   1       4.715  86.492 111.940  0.00  0.00     0.006 C 
ENDBRANCH   8   9
BRANCH   8  11
ATOM     11  C   LIG d   1       2.127  84.130 113.444  0.00  0.00     0.028 C 
ATOM     12  C   LIG d   1       0.760  84.789 113.680  0.00  0.00     0.006 C 
ENDBRANCH   8  11
ENDBRANCH   7   8
ENDBRANCH   1   7
BRANCH   6  13
ATOM     13  N   LIG d   1       1.187  84.767 109.535  0.00  0.00    -0.311 N 
ATOM     14  C   LIG d   1      -0.041  84.740 110.050  0.00  0.00     0.210 C 
ATOM     15  C   LIG d   1      -0.716  86.109 110.184  0.00  0.00     0.109 C 
ATOM     16  O   LIG d   1      -0.623  83.716 110.438  0.00  0.00    -0.276 OA
ATOM     17  H   LIG d   1       1.595  85.645 109.277  0.00  0.00     0.149 HD
ENDBRANCH   6  13
BRANCH   5  18
ATOM     18  N   LIG d   1       1.080  83.042 107.016  0.00  0.00     0.381 N 
ATOM     19  H   LIG d   1       1.938  83.403 106.649  0.00  0.00    -0.090 HD
ATOM     20  H   LIG d   1       0.412  83.792 107.053  0.00  0.00    -0.090 HD
ATOM     21  H   LIG d   1       0.739  82.313 106.429  0.00  0.00    -0.090 HD
ENDBRANCH   5  18
BRANCH   3  22
ATOM     22  C   LIG d   1       2.760  79.392 109.623  0.00  0.00     0.382 C 
ATOM     23  O   LIG d   1       3.928  78.935 109.647  0.00  0.00    -0.241 OA
ATOM     24  O   LIG d   1       1.794  78.607 109.651  0.00  0.00    -0.241 OA
ENDBRANCH   3  22
TORSDOF 7
ENDMDL
MODEL 8
REMARK VINA RESULT:      -5.7      2.917      6.007
REMARK  7 active torsions:
REMARK  status: ('A' for Active; 'I' for Inactive)
REMARK    1  A    between atoms: C_2  and  C_3 
REMARK    2  A    between atoms: C_3  and  O_6 
REMARK    3  A    between atoms: C_3  and  C_4 
REMARK    4  A    between atoms: C_7  and  O_6 
REMARK    5  A    between atoms: C_9  and  C_10 
REMARK    6  A    between atoms: N_15  and  C_14 
REMARK    7  A    between atoms: N_20  and  C_19 
REMARK       I    between atoms: C_22  and  N_20 
ROOT
ATOM      1  C   LIG d   1       0.661  82.444 110.685  0.00  0.00     0.161 C 
ATOM      2  C   LIG d   1       1.905  82.912 110.231  0.00  0.00     0.016 C 
ATOM      3  C   LIG d   1       2.805  82.124 109.477  0.00  0.00     0.038 C 
ATOM      4  C   LIG d   1       2.453  80.854 108.994  0.00  0.00     0.028 C 
ATOM      5  C   LIG d   1       1.410  80.147 109.853  0.00  0.00    -0.047 C 
ATOM      6  C   LIG d   1       0.213  81.099 110.074  0.00  0.00     0.091 C 
ENDROOT
BRANCH   1   7
ATOM      7  O   LIG d   1      -0.348  83.451 110.473  0.00  0.00    -0.368 OA
BRANCH   7   8
ATOM      8  C   LIG d   1      -0.746  84.210 111.641  0.00  0.00     0.119 C 
BRANCH   8   9
ATOM      9  C   LIG d   1      -0.748  85.700 111.247  0.00  0.00     0.028 C 
ATOM     10  C   LIG d   1      -0.701  85.904 109.723  0.00  0.00     0.006 C 
ENDBRANCH   8   9
BRANCH   8  11
ATOM     11  C   LIG d   1       0.288  84.089 112.764  0.00  0.00     0.028 C 
ATOM     12  C   LIG d   1       0.549  85.424 113.480  0.00  0.00     0.006 C 
ENDBRANCH   8  11
ENDBRANCH   7   8
ENDBRANCH   1   7
BRANCH   6  13
ATOM     13  N   LIG d   1      -0.816  80.517 110.975  0.00  0.00    -0.311 N 
ATOM     14  C   LIG d   1      -0.624  80.322 112.278  0.00  0.00     0.210 C 
ATOM     15  C   LIG d   1      -1.807  79.690 113.019  0.00  0.00     0.109 C 
ATOM     16  O   LIG d   1       0.402  80.641 112.897  0.00  0.00    -0.276 OA
ATOM     17  H   LIG d   1      -1.690  80.257 110.561  0.00  0.00     0.149 HD
ENDBRANCH   6  13
BRANCH   5  18
ATOM     18  N   LIG d   1       1.036  78.899 109.162  0.00  0.00     0.381 N 
ATOM     19  H   LIG d   1       0.070  78.930 108.905  0.00  0.00    -0.090 HD
ATOM     20  H   LIG d   1       1.171  78.126 109.791  0.00  0.00    -0.090 HD
ATOM     21  H   LIG d   1       1.599  78.777 108.349  0.00  0.00    -0.090 HD
ENDBRANCH   5  18
BRANCH   3  22
ATOM     22  C   LIG d   1       4.087  82.589 109.232  0.00  0.00     0.382 C 
ATOM     23  O   LIG d   1       4.834  81.978 108.430  0.00  0.00    -0.241 OA
ATOM     24  O   LIG d   1       4.523  83.588 109.835  0.00  0.00    -0.241 OA
ENDBRANCH   3  22
TORSDOF 7
ENDMDL
MODEL 9
REMARK VINA RESULT:      -5.4      2.618      4.597
REMARK  7 active torsions:
REMARK  status: ('A' for Active; 'I' for Inactive)
REMARK    1  A    between atoms: C_2  and  C_3 
REMARK    2  A    between atoms: C_3  and  O_6 
REMARK    3  A    between atoms: C_3  and  C_4 
REMARK    4  A    between atoms: C_7  and  O_6 
REMARK    5  A    between atoms: C_9  and  C_10 
REMARK    6  A    between atoms: N_15  and  C_14 
REMARK    7  A    between atoms: N_20  and  C_19 
REMARK       I    between atoms: C_22  and  N_20 
ROOT
ATOM      1  C   LIG d   1       0.563  82.159 111.442  0.00  0.00     0.161 C 
ATOM      2  C   LIG d   1      -0.673  82.076 112.105  0.00  0.00     0.016 C 
ATOM      3  C   LIG d   1      -1.412  80.877 112.225  0.00  0.00     0.038 C 
ATOM      4  C   LIG d   1      -0.890  79.640 111.818  0.00  0.00     0.028 C 
ATOM      5  C   LIG d   1       0.132  79.755 110.692  0.00  0.00    -0.047 C 
ATOM      6  C   LIG d   1       1.200  80.799 111.089  0.00  0.00     0.091 C 
ENDROOT
BRANCH   1   7
ATOM      7  O   LIG d   1       1.480  82.956 112.217  0.00  0.00    -0.368 OA
BRANCH   7   8
ATOM      8  C   LIG d   1       1.483  84.378 111.937  0.00  0.00     0.119 C 
BRANCH   8   9
ATOM      9  C   LIG d   1       2.341  84.600 110.676  0.00  0.00     0.028 C 
ATOM     10  C   LIG d   1       3.817  84.231 110.898  0.00  0.00     0.006 C 
ENDBRANCH   8   9
BRANCH   8  11
ATOM     11  C   LIG d   1       2.186  85.163 113.048  0.00  0.00     0.028 C 
ATOM     12  C   LIG d   1       1.235  85.563 114.188  0.00  0.00     0.006 C 
ENDBRANCH   8  11
ENDBRANCH   7   8
ENDBRANCH   1   7
BRANCH   6  13
ATOM     13  N   LIG d   1       2.192  81.034 110.007  0.00  0.00    -0.311 N 
ATOM     14  C   LIG d   1       1.863  81.479 108.796  0.00  0.00     0.210 C 
ATOM     15  C   LIG d   1       3.037  81.634 107.823  0.00  0.00     0.109 C 
ATOM     16  O   LIG d   1       0.716  81.792 108.444  0.00  0.00    -0.276 OA
ATOM     17  H   LIG d   1       3.151  80.837 110.217  0.00  0.00     0.149 HD
ENDBRANCH   6  13
BRANCH   5  18
ATOM     18  N   LIG d   1       0.694  78.411 110.462  0.00  0.00     0.381 N 
ATOM     19  H   LIG d   1       0.193  77.955 109.726  0.00  0.00    -0.090 HD
ATOM     20  H   LIG d   1       0.588  77.866 111.300  0.00  0.00    -0.090 HD
ATOM     21  H   LIG d   1       1.659  78.481 110.223  0.00  0.00    -0.090 HD
ENDBRANCH   5  18
BRANCH   3  22
ATOM     22  C   LIG d   1      -2.706  80.914 112.722  0.00  0.00     0.382 C 
ATOM     23  O   LIG d   1      -3.244  82.016 112.989  0.00  0.00    -0.241 OA
ATOM     24  O   LIG d   1      -3.327  79.859 112.948  0.00  0.00    -0.241 OA
ENDBRANCH   3  22
TORSDOF 7
ENDMDL
