MODEL 1
REMARK VINA RESULT:      -6.7      0.000      0.000
REMARK  7 active torsions:
REMARK  status: ('A' for Active; 'I' for Inactive)
REMARK    1  A    between atoms: C_2  and  C_3 
REMARK    2  A    between atoms: C_3  and  O_6 
REMARK    3  A    between atoms: C_3  and  C_4 
REMARK    4  A    between atoms: C_7  and  O_6 
REMARK    5  A    between atoms: C_9  and  C_10 
REMARK    6  A    between atoms: N_15  and  C_14 
REMARK    7  A    between atoms: N_20  and  C_19 
REMARK       I    between atoms: C_22  and  N_20 
ROOT
ATOM      1  C   LIG d   1       2.098  82.931 110.888  0.00  0.00     0.161 C 
ATOM      2  C   LIG d   1       3.000  81.855 110.848  0.00  0.00     0.016 C 
ATOM      3  C   LIG d   1       3.403  81.222 109.649  0.00  0.00     0.038 C 
ATOM      4  C   LIG d   1       3.044  81.723 108.389  0.00  0.00     0.028 C 
ATOM      5  C   LIG d   1       1.730  82.497 108.397  0.00  0.00    -0.047 C 
ATOM      6  C   LIG d   1       1.782  83.562 109.516  0.00  0.00     0.091 C 
ENDROOT
BRANCH   1   7
ATOM      7  O   LIG d   1       2.577  83.936 111.804  0.00  0.00    -0.368 OA
BRANCH   7   8
ATOM      8  C   LIG d   1       3.992  84.238 111.736  0.00  0.00     0.119 C 
BRANCH   8   9
ATOM      9  C   LIG d   1       4.514  84.339 113.182  0.00  0.00     0.028 C 
ATOM     10  C   LIG d   1       4.899  82.968 113.764  0.00  0.00     0.006 C 
ENDBRANCH   8   9
BRANCH   8  11
ATOM     11  C   LIG d   1       4.238  85.618 111.119  0.00  0.00     0.028 C 
ATOM     12  C   LIG d   1       4.746  86.646 112.142  0.00  0.00     0.006 C 
ENDBRANCH   8  11
ENDBRANCH   7   8
ENDBRANCH   1   7
BRANCH   6  13
ATOM     13  N   LIG d   1       0.504  84.309 109.648  0.00  0.00    -0.311 N 
ATOM     14  C   LIG d   1       0.439  85.632 109.789  0.00  0.00     0.210 C 
ATOM     15  C   LIG d   1      -0.977  86.198 109.928  0.00  0.00     0.109 C 
ATOM     16  O   LIG d   1       1.418  86.393 109.780  0.00  0.00    -0.276 OA
ATOM     17  H   LIG d   1      -0.341  83.772 109.634  0.00  0.00     0.149 HD
ENDBRANCH   6  13
BRANCH   5  18
ATOM     18  N   LIG d   1       1.548  83.078 107.054  0.00  0.00     0.381 N 
ATOM     19  H   LIG d   1       2.096  83.911 106.967  0.00  0.00    -0.090 HD
ATOM     20  H   LIG d   1       0.581  83.324 106.934  0.00  0.00    -0.090 HD
ATOM     21  H   LIG d   1       1.819  82.420 106.357  0.00  0.00    -0.090 HD
ENDBRANCH   5  18
BRANCH   3  22
ATOM     22  C   LIG d   1       4.141  80.049 109.706  0.00  0.00     0.382 C 
ATOM     23  O   LIG d   1       5.378  80.097 109.913  0.00  0.00    -0.241 OA
ATOM     24  O   LIG d   1       3.594  78.948 109.509  0.00  0.00    -0.241 OA
ENDBRANCH   3  22
TORSDOF 7
ENDMDL
MODEL 2
REMARK VINA RESULT:      -6.6      3.307      5.196
REMARK  7 active torsions:
REMARK  status: ('A' for Active; 'I' for Inactive)
REMARK    1  A    between atoms: C_2  and  C_3 
REMARK    2  A    between atoms: C_3  and  O_6 
REMARK    3  A    between atoms: C_3  and  C_4 
REMARK    4  A    between atoms: C_7  and  O_6 
REMARK    5  A    between atoms: C_9  and  C_10 
REMARK    6  A    between atoms: N_15  and  C_14 
REMARK    7  A    between atoms: N_20  and  C_19 
REMARK       I    between atoms: C_22  and  N_20 
ROOT
ATOM      1  C   LIG d   1       0.372  82.744 110.999  0.00  0.00     0.161 C 
ATOM      2  C   LIG d   1      -0.769  82.496 111.780  0.00  0.00     0.016 C 
ATOM      3  C   LIG d   1      -1.304  81.204 111.988  0.00  0.00     0.038 C 
ATOM      4  C   LIG d   1      -0.641  80.048 111.550  0.00  0.00     0.028 C 
ATOM      5  C   LIG d   1       0.242  80.282 110.329  0.00  0.00    -0.047 C 
ATOM      6  C   LIG d   1       1.172  81.485 110.605  0.00  0.00     0.091 C 
ENDROOT
BRANCH   1   7
ATOM      7  O   LIG d   1       1.227  83.691 111.670  0.00  0.00    -0.368 OA
BRANCH   7   8
ATOM      8  C   LIG d   1       1.085  85.075 111.266  0.00  0.00     0.119 C 
BRANCH   8   9
ATOM      9  C   LIG d   1       0.457  85.085 109.859  0.00  0.00     0.028 C 
ATOM     10  C   LIG d   1      -0.770  86.009 109.770  0.00  0.00     0.006 C 
ENDBRANCH   8   9
BRANCH   8  11
ATOM     11  C   LIG d   1       2.449  85.752 111.106  0.00  0.00     0.028 C 
ATOM     12  C   LIG d   1       3.588  84.748 110.870  0.00  0.00     0.006 C 
ENDBRANCH   8  11
ENDBRANCH   7   8
ENDBRANCH   1   7
BRANCH   6  13
ATOM     13  N   LIG d   1       2.011  81.834 109.429  0.00  0.00    -0.311 N 
ATOM     14  C   LIG d   1       3.256  81.393 109.260  0.00  0.00     0.210 C 
ATOM     15  C   LIG d   1       3.951  81.889 107.988  0.00  0.00     0.109 C 
ATOM     16  O   LIG d   1       3.840  80.611 110.026  0.00  0.00    -0.276 OA
ATOM     17  H   LIG d   1       1.605  82.439 108.742  0.00  0.00     0.149 HD
ENDBRANCH   6  13
BRANCH   5  18
ATOM     18  N   LIG d   1       0.977  79.030 110.065  0.00  0.00     0.381 N 
ATOM     19  H   LIG d   1       1.795  78.990 110.640  0.00  0.00    -0.090 HD
ATOM     20  H   LIG d   1       1.267  79.021 109.103  0.00  0.00    -0.090 HD
ATOM     21  H   LIG d   1       0.393  78.245 110.251  0.00  0.00    -0.090 HD
ENDBRANCH   5  18
BRANCH   3  22
ATOM     22  C   LIG d   1      -2.536  81.062 112.607  0.00  0.00     0.382 C 
ATOM     23  O   LIG d   1      -2.689  80.207 113.512  0.00  0.00    -0.241 OA
ATOM     24  O   LIG d   1      -3.510  81.748 112.241  0.00  0.00    -0.241 OA
ENDBRANCH   3  22
TORSDOF 7
ENDMDL
MODEL 3
REMARK VINA RESULT:      -6.3      2.942      5.043
REMARK  7 active torsions:
REMARK  status: ('A' for Active; 'I' for Inactive)
REMARK    1  A    between atoms: C_2  and  C_3 
REMARK    2  A    between atoms: C_3  and  O_6 
REMARK    3  A    between atoms: C_3  and  C_4 
REMARK    4  A    between atoms: C_7  and  O_6 
REMARK    5  A    between atoms: C_9  and  C_10 
REMARK    6  A    between atoms: N_15  and  C_14 
REMARK    7  A    between atoms: N_20  and  C_19 
REMARK       I    between atoms: C_22  and  N_20 
ROOT
ATOM      1  C   LIG d   1       1.582  82.231 111.612  0.00  0.00     0.161 C 
ATOM      2  C   LIG d   1       0.411  81.478 111.803  0.00  0.00     0.016 C 
ATOM      3  C   LIG d   1      -0.838  82.053 112.132  0.00  0.00     0.038 C 
ATOM      4  C   LIG d   1      -1.035  83.442 112.144  0.00  0.00     0.028 C 
ATOM      5  C   LIG d   1       0.232  84.231 112.453  0.00  0.00    -0.047 C 
ATOM      6  C   LIG d   1       1.362  83.755 111.512  0.00  0.00     0.091 C 
ENDROOT
BRANCH   1   7
ATOM      7  O   LIG d   1       2.289  81.749 110.452  0.00  0.00    -0.368 OA
BRANCH   7   8
ATOM      8  C   LIG d   1       3.429  80.893 110.710  0.00  0.00     0.119 C 
BRANCH   8   9
ATOM      9  C   LIG d   1       4.700  81.719 110.435  0.00  0.00     0.028 C 
ATOM     10  C   LIG d   1       4.545  82.648 109.219  0.00  0.00     0.006 C 
ENDBRANCH   8   9
BRANCH   8  11
ATOM     11  C   LIG d   1       3.483  79.724 109.722  0.00  0.00     0.028 C 
ATOM     12  C   LIG d   1       2.154  79.507 108.982  0.00  0.00     0.006 C 
ENDBRANCH   8  11
ENDBRANCH   7   8
ENDBRANCH   1   7
BRANCH   6  13
ATOM     13  N   LIG d   1       2.660  84.417 111.805  0.00  0.00    -0.311 N 
ATOM     14  C   LIG d   1       3.045  85.559 111.239  0.00  0.00     0.210 C 
ATOM     15  C   LIG d   1       4.429  86.059 111.665  0.00  0.00     0.109 C 
ATOM     16  O   LIG d   1       2.357  86.224 110.448  0.00  0.00    -0.276 OA
ATOM     17  H   LIG d   1       3.267  83.962 112.459  0.00  0.00     0.149 HD
ENDBRANCH   6  13
BRANCH   5  18
ATOM     18  N   LIG d   1      -0.085  85.663 112.298  0.00  0.00     0.381 N 
ATOM     19  H   LIG d   1       0.760  86.199 112.299  0.00  0.00    -0.090 HD
ATOM     20  H   LIG d   1      -0.647  85.958 113.077  0.00  0.00    -0.090 HD
ATOM     21  H   LIG d   1      -0.580  85.812 111.446  0.00  0.00    -0.090 HD
ENDBRANCH   5  18
BRANCH   3  22
ATOM     22  C   LIG d   1      -1.897  81.234 112.492  0.00  0.00     0.382 C 
ATOM     23  O   LIG d   1      -3.076  81.598 112.264  0.00  0.00    -0.241 OA
ATOM     24  O   LIG d   1      -1.691  80.157 113.082  0.00  0.00    -0.241 OA
ENDBRANCH   3  22
TORSDOF 7
ENDMDL
MODEL 4
REMARK VINA RESULT:      -6.1      2.509      5.430
REMARK  7 active torsions:
REMARK  status: ('A' for Active; 'I' for Inactive)
REMARK    1  A    between atoms: C_2  and  C_3 
REMARK    2  A    between atoms: C_3  and  O_6 
REMARK    3  A    between atoms: C_3  and  C_4 
REMARK    4  A    between atoms: C_7  and  O_6 
REMARK    5  A    between atoms: C_9  and  C_10 
REMARK    6  A    between atoms: N_15  and  C_14 
REMARK    7  A    between atoms: N_20  and  C_19 
REMARK       I    between atoms: C_22  and  N_20 
ROOT
ATOM      1  C   LIG d   1       1.296  82.989 109.670  0.00  0.00     0.161 C 
ATOM      2  C   LIG d   1       1.513  84.363 109.864  0.00  0.00     0.016 C 
ATOM      3  C   LIG d   1       0.850  85.123 110.855  0.00  0.00     0.038 C 
ATOM      4  C   LIG d   1       0.031  84.524 111.824  0.00  0.00     0.028 C 
ATOM      5  C   LIG d   1      -0.611  83.223 111.355  0.00  0.00    -0.047 C 
ATOM      6  C   LIG d   1       0.490  82.297 110.788  0.00  0.00     0.091 C 
ENDROOT
BRANCH   1   7
ATOM      7  O   LIG d   1       2.556  82.318 109.472  0.00  0.00    -0.368 OA
BRANCH   7   8
ATOM      8  C   LIG d   1       3.202  81.810 110.665  0.00  0.00     0.119 C 
BRANCH   8   9
ATOM      9  C   LIG d   1       4.387  82.743 110.983  0.00  0.00     0.028 C 
ATOM     10  C   LIG d   1       4.810  82.673 112.459  0.00  0.00     0.006 C 
ENDBRANCH   8   9
BRANCH   8  11
ATOM     11  C   LIG d   1       3.825  80.433 110.418  0.00  0.00     0.028 C 
ATOM     12  C   LIG d   1       3.077  79.623 109.348  0.00  0.00     0.006 C 
ENDBRANCH   8  11
ENDBRANCH   7   8
ENDBRANCH   1   7
BRANCH   6  13
ATOM     13  N   LIG d   1      -0.064  81.035 110.230  0.00  0.00    -0.311 N 
ATOM     14  C   LIG d   1      -0.212  79.920 110.943  0.00  0.00     0.210 C 
ATOM     15  C   LIG d   1      -0.782  78.728 110.169  0.00  0.00     0.109 C 
ATOM     16  O   LIG d   1       0.045  79.815 112.152  0.00  0.00    -0.276 OA
ATOM     17  H   LIG d   1      -0.327  81.041 109.264  0.00  0.00     0.149 HD
ENDBRANCH   6  13
BRANCH   5  18
ATOM     18  N   LIG d   1      -1.324  82.637 112.506  0.00  0.00     0.381 N 
ATOM     19  H   LIG d   1      -1.674  81.732 112.262  0.00  0.00    -0.090 HD
ATOM     20  H   LIG d   1      -2.104  83.226 112.738  0.00  0.00    -0.090 HD
ATOM     21  H   LIG d   1      -0.709  82.564 113.286  0.00  0.00    -0.090 HD
ENDBRANCH   5  18
BRANCH   3  22
ATOM     22  C   LIG d   1       0.973  86.504 110.859  0.00  0.00     0.382 C 
ATOM     23  O   LIG d   1      -0.048  87.224 110.978  0.00  0.00    -0.241 OA
ATOM     24  O   LIG d   1       2.086  87.040 110.700  0.00  0.00    -0.241 OA
ENDBRANCH   3  22
TORSDOF 7
ENDMDL
MODEL 5
REMARK VINA RESULT:      -5.8      3.687      4.881
REMARK  7 active torsions:
REMARK  status: ('A' for Active; 'I' for Inactive)
REMARK    1  A    between atoms: C_2  and  C_3 
REMARK    2  A    between atoms: C_3  and  O_6 
REMARK    3  A    between atoms: C_3  and  C_4 
REMARK    4  A    between atoms: C_7  and  O_6 
REMARK    5  A    between atoms: C_9  and  C_10 
REMARK    6  A    between atoms: N_15  and  C_14 
REMARK    7  A    between atoms: N_20  and  C_19 
REMARK       I    between atoms: C_22  and  N_20 
ROOT
ATOM      1  C   LIG d   1       0.872  81.719 111.557  0.00  0.00     0.161 C 
ATOM      2  C   LIG d   1      -0.360  81.711 112.233  0.00  0.00     0.016 C 
ATOM      3  C   LIG d   1      -1.323  80.687 112.083  0.00  0.00     0.038 C 
ATOM      4  C   LIG d   1      -1.053  79.516 111.359  0.00  0.00     0.028 C 
ATOM      5  C   LIG d   1      -0.022  79.712 110.253  0.00  0.00    -0.047 C 
ATOM      6  C   LIG d   1       1.230  80.396 110.849  0.00  0.00     0.091 C 
ENDROOT
BRANCH   1   7
ATOM      7  O   LIG d   1       1.924  82.102 112.465  0.00  0.00    -0.368 OA
BRANCH   7   8
ATOM      8  C   LIG d   1       2.172  83.524 112.590  0.00  0.00     0.119 C 
BRANCH   8   9
ATOM      9  C   LIG d   1       3.634  83.777 112.172  0.00  0.00     0.028 C 
ATOM     10  C   LIG d   1       3.740  84.632 110.897  0.00  0.00     0.006 C 
ENDBRANCH   8   9
BRANCH   8  11
ATOM     11  C   LIG d   1       2.084  83.979 114.049  0.00  0.00     0.028 C 
ATOM     12  C   LIG d   1       1.744  85.471 114.189  0.00  0.00     0.006 C 
ENDBRANCH   8  11
ENDBRANCH   7   8
ENDBRANCH   1   7
BRANCH   6  13
ATOM     13  N   LIG d   1       2.255  80.701 109.817  0.00  0.00    -0.311 N 
ATOM     14  C   LIG d   1       2.193  81.760 109.013  0.00  0.00     0.210 C 
ATOM     15  C   LIG d   1       3.342  81.877 108.007  0.00  0.00     0.109 C 
ATOM     16  O   LIG d   1       1.312  82.632 109.058  0.00  0.00    -0.276 OA
ATOM     17  H   LIG d   1       3.022  80.062 109.733  0.00  0.00     0.149 HD
ENDBRANCH   6  13
BRANCH   5  18
ATOM     18  N   LIG d   1       0.265  78.387 109.671  0.00  0.00     0.381 N 
ATOM     19  H   LIG d   1       0.015  77.670 110.322  0.00  0.00    -0.090 HD
ATOM     20  H   LIG d   1       1.251  78.319 109.489  0.00  0.00    -0.090 HD
ATOM     21  H   LIG d   1      -0.245  78.270 108.823  0.00  0.00    -0.090 HD
ENDBRANCH   5  18
BRANCH   3  22
ATOM     22  C   LIG d   1      -2.587  80.846 112.630  0.00  0.00     0.382 C 
ATOM     23  O   LIG d   1      -3.375  81.695 112.149  0.00  0.00    -0.241 OA
ATOM     24  O   LIG d   1      -2.932  80.184 113.626  0.00  0.00    -0.241 OA
ENDBRANCH   3  22
TORSDOF 7
ENDMDL
MODEL 6
REMARK VINA RESULT:      -5.7      2.730      6.008
REMARK  7 active torsions:
REMARK  status: ('A' for Active; 'I' for Inactive)
REMARK    1  A    between atoms: C_2  and  C_3 
REMARK    2  A    between atoms: C_3  and  O_6 
REMARK    3  A    between atoms: C_3  and  C_4 
REMARK    4  A    between atoms: C_7  and  O_6 
REMARK    5  A    between atoms: C_9  and  C_10 
REMARK    6  A    between atoms: N_15  and  C_14 
REMARK    7  A    between atoms: N_20  and  C_19 
REMARK       I    between atoms: C_22  and  N_20 
ROOT
ATOM      1  C   LIG d   1       1.794  84.930 112.441  0.00  0.00     0.161 C 
ATOM      2  C   LIG d   1       2.449  86.160 112.265  0.00  0.00     0.016 C 
ATOM      3  C   LIG d   1       3.836  86.339 112.471  0.00  0.00     0.038 C 
ATOM      4  C   LIG d   1       4.694  85.259 112.723  0.00  0.00     0.028 C 
ATOM      5  C   LIG d   1       4.003  84.083 113.406  0.00  0.00    -0.047 C 
ATOM      6  C   LIG d   1       2.732  83.716 112.608  0.00  0.00     0.091 C 
ENDROOT
BRANCH   1   7
ATOM      7  O   LIG d   1       0.873  84.706 111.354  0.00  0.00    -0.368 OA
BRANCH   7   8
ATOM      8  C   LIG d   1       1.461  84.583 110.036  0.00  0.00     0.119 C 
BRANCH   8   9
ATOM      9  C   LIG d   1       0.624  85.446 109.073  0.00  0.00     0.028 C 
ATOM     10  C   LIG d   1      -0.665  85.972 109.726  0.00  0.00     0.006 C 
ENDBRANCH   8   9
BRANCH   8  11
ATOM     11  C   LIG d   1       1.342  83.151 109.505  0.00  0.00     0.028 C 
ATOM     12  C   LIG d   1       1.907  82.994 108.084  0.00  0.00     0.006 C 
ENDBRANCH   8  11
ENDBRANCH   7   8
ENDBRANCH   1   7
BRANCH   6  13
ATOM     13  N   LIG d   1       1.950  82.629 113.254  0.00  0.00    -0.311 N 
ATOM     14  C   LIG d   1       2.075  81.344 112.930  0.00  0.00     0.210 C 
ATOM     15  C   LIG d   1       1.161  80.390 113.705  0.00  0.00     0.109 C 
ATOM     16  O   LIG d   1       2.879  80.899 112.096  0.00  0.00    -0.276 OA
ATOM     17  H   LIG d   1       1.297  82.898 113.964  0.00  0.00     0.149 HD
ENDBRANCH   6  13
BRANCH   5  18
ATOM     18  N   LIG d   1       4.977  82.978 113.484  0.00  0.00     0.381 N 
ATOM     19  H   LIG d   1       5.312  82.757 112.568  0.00  0.00    -0.090 HD
ATOM     20  H   LIG d   1       4.517  82.165 113.856  0.00  0.00    -0.090 HD
ATOM     21  H   LIG d   1       5.739  83.235 114.071  0.00  0.00    -0.090 HD
ENDBRANCH   5  18
BRANCH   3  22
ATOM     22  C   LIG d   1       4.372  87.618 112.465  0.00  0.00     0.382 C 
ATOM     23  O   LIG d   1       5.600  87.783 112.266  0.00  0.00    -0.241 OA
ATOM     24  O   LIG d   1       3.651  88.606 112.701  0.00  0.00    -0.241 OA
ENDBRANCH   3  22
TORSDOF 7
ENDMDL
MODEL 7
REMARK VINA RESULT:      -5.7      2.638      5.014
REMARK  7 active torsions:
REMARK  status: ('A' for Active; 'I' for Inactive)
REMARK    1  A    between atoms: C_2  and  C_3 
REMARK    2  A    between atoms: C_3  and  O_6 
REMARK    3  A    between atoms: C_3  and  C_4 
REMARK    4  A    between atoms: C_7  and  O_6 
REMARK    5  A    between atoms: C_9  and  C_10 
REMARK    6  A    between atoms: N_15  and  C_14 
REMARK    7  A    between atoms: N_20  and  C_19 
REMARK       I    between atoms: C_22  and  N_20 
ROOT
ATOM      1  C   LIG d   1       1.729  81.694 110.372  0.00  0.00     0.161 C 
ATOM      2  C   LIG d   1       1.915  83.029 109.979  0.00  0.00     0.016 C 
ATOM      3  C   LIG d   1       1.060  84.084 110.377  0.00  0.00     0.038 C 
ATOM      4  C   LIG d   1       0.042  83.896 111.323  0.00  0.00     0.028 C 
ATOM      5  C   LIG d   1      -0.497  82.470 111.358  0.00  0.00    -0.047 C 
ATOM      6  C   LIG d   1       0.689  81.488 111.494  0.00  0.00     0.091 C 
ENDROOT
BRANCH   1   7
ATOM      7  O   LIG d   1       2.994  81.114 110.749  0.00  0.00    -0.368 OA
BRANCH   7   8
ATOM      8  C   LIG d   1       4.092  82.043 110.926  0.00  0.00     0.119 C 
BRANCH   8   9
ATOM      9  C   LIG d   1       5.311  81.465 110.182  0.00  0.00     0.028 C 
ATOM     10  C   LIG d   1       5.132  79.979 109.827  0.00  0.00     0.006 C 
ENDBRANCH   8   9
BRANCH   8  11
ATOM     11  C   LIG d   1       4.517  82.129 112.395  0.00  0.00     0.028 C 
ATOM     12  C   LIG d   1       4.672  83.577 112.887  0.00  0.00     0.006 C 
ENDBRANCH   8  11
ENDBRANCH   7   8
ENDBRANCH   1   7
BRANCH   6  13
ATOM     13  N   LIG d   1       0.257  80.067 111.451  0.00  0.00    -0.311 N 
ATOM     14  C   LIG d   1      -0.288  79.498 110.376  0.00  0.00     0.210 C 
ATOM     15  C   LIG d   1      -0.681  78.028 110.552  0.00  0.00     0.109 C 
ATOM     16  O   LIG d   1      -0.452  80.063 109.284  0.00  0.00    -0.276 OA
ATOM     17  H   LIG d   1       0.382  79.526 112.284  0.00  0.00     0.149 HD
ENDBRANCH   6  13
BRANCH   5  18
ATOM     18  N   LIG d   1      -1.451  82.382 112.480  0.00  0.00     0.381 N 
ATOM     19  H   LIG d   1      -1.402  83.214 113.032  0.00  0.00    -0.090 HD
ATOM     20  H   LIG d   1      -1.199  81.602 113.061  0.00  0.00    -0.090 HD
ATOM     21  H   LIG d   1      -2.377  82.260 112.131  0.00  0.00    -0.090 HD
ENDBRANCH   5  18
BRANCH   3  22
ATOM     22  C   LIG d   1       1.196  85.335 109.794  0.00  0.00     0.382 C 
ATOM     23  O   LIG d   1       0.504  85.638 108.793  0.00  0.00    -0.241 OA
ATOM     24  O   LIG d   1       2.033  86.147 110.231  0.00  0.00    -0.241 OA
ENDBRANCH   3  22
TORSDOF 7
ENDMDL
MODEL 8
REMARK VINA RESULT:      -5.6      2.797      5.525
REMARK  7 active torsions:
REMARK  status: ('A' for Active; 'I' for Inactive)
REMARK    1  A    between atoms: C_2  and  C_3 
REMARK    2  A    between atoms: C_3  and  O_6 
REMARK    3  A    between atoms: C_3  and  C_4 
REMARK    4  A    between atoms: C_7  and  O_6 
REMARK    5  A    between atoms: C_9  and  C_10 
REMARK    6  A    between atoms: N_15  and  C_14 
REMARK    7  A    between atoms: N_20  and  C_19 
REMARK       I    between atoms: C_22  and  N_20 
ROOT
ATOM      1  C   LIG d   1       1.088  82.864 110.505  0.00  0.00     0.161 C 
ATOM      2  C   LIG d   1       1.699  84.115 110.317  0.00  0.00     0.016 C 
ATOM      3  C   LIG d   1       2.143  84.932 111.382  0.00  0.00     0.038 C 
ATOM      4  C   LIG d   1       2.144  84.482 112.711  0.00  0.00     0.028 C 
ATOM      5  C   LIG d   1       1.075  83.433 112.996  0.00  0.00    -0.047 C 
ATOM      6  C   LIG d   1       1.182  82.308 111.941  0.00  0.00     0.091 C 
ENDROOT
BRANCH   1   7
ATOM      7  O   LIG d   1       1.624  81.912 109.563  0.00  0.00    -0.368 OA
BRANCH   7   8
ATOM      8  C   LIG d   1       2.595  80.974 110.089  0.00  0.00     0.119 C 
BRANCH   8   9
ATOM      9  C   LIG d   1       3.995  81.502 109.720  0.00  0.00     0.028 C 
ATOM     10  C   LIG d   1       4.101  81.899 108.238  0.00  0.00     0.006 C 
ENDBRANCH   8   9
BRANCH   8  11
ATOM     11  C   LIG d   1       2.481  79.611 109.400  0.00  0.00     0.028 C 
ATOM     12  C   LIG d   1       1.025  79.188 109.151  0.00  0.00     0.006 C 
ENDBRANCH   8  11
ENDBRANCH   7   8
ENDBRANCH   1   7
BRANCH   6  13
ATOM     13  N   LIG d   1       0.118  81.282 112.096  0.00  0.00    -0.311 N 
ATOM     14  C   LIG d   1      -1.183  81.566 112.077  0.00  0.00     0.210 C 
ATOM     15  C   LIG d   1      -2.111  80.364 112.275  0.00  0.00     0.109 C 
ATOM     16  O   LIG d   1      -1.657  82.696 111.883  0.00  0.00    -0.276 OA
ATOM     17  H   LIG d   1       0.413  80.334 112.227  0.00  0.00     0.149 HD
ENDBRANCH   6  13
BRANCH   5  18
ATOM     18  N   LIG d   1       1.278  82.953 114.376  0.00  0.00     0.381 N 
ATOM     19  H   LIG d   1       2.235  83.075 114.639  0.00  0.00    -0.090 HD
ATOM     20  H   LIG d   1       1.063  81.972 114.414  0.00  0.00    -0.090 HD
ATOM     21  H   LIG d   1       0.687  83.454 115.002  0.00  0.00    -0.090 HD
ENDBRANCH   5  18
BRANCH   3  22
ATOM     22  C   LIG d   1       2.556  86.230 111.126  0.00  0.00     0.382 C 
ATOM     23  O   LIG d   1       1.750  87.061 110.642  0.00  0.00    -0.241 OA
ATOM     24  O   LIG d   1       3.737  86.569 111.331  0.00  0.00    -0.241 OA
ENDBRANCH   3  22
TORSDOF 7
ENDMDL
MODEL 9
REMARK VINA RESULT:      -5.4      3.072      6.082
REMARK  7 active torsions:
REMARK  status: ('A' for Active; 'I' for Inactive)
REMARK    1  A    between atoms: C_2  and  C_3 
REMARK    2  A    between atoms: C_3  and  O_6 
REMARK    3  A    between atoms: C_3  and  C_4 
REMARK    4  A    between atoms: C_7  and  O_6 
REMARK    5  A    between atoms: C_9  and  C_10 
REMARK    6  A    between atoms: N_15  and  C_14 
REMARK    7  A    between atoms: N_20  and  C_19 
REMARK       I    between atoms: C_22  and  N_20 
ROOT
ATOM      1  C   LIG d   1       1.479  81.958 112.419  0.00  0.00     0.161 C 
ATOM      2  C   LIG d   1       0.652  83.003 112.862  0.00  0.00     0.016 C 
ATOM      3  C   LIG d   1       0.605  84.274 112.245  0.00  0.00     0.038 C 
ATOM      4  C   LIG d   1       1.276  84.540 111.042  0.00  0.00     0.028 C 
ATOM      5  C   LIG d   1       2.517  83.677 110.838  0.00  0.00    -0.047 C 
ATOM      6  C   LIG d   1       2.135  82.193 111.042  0.00  0.00     0.091 C 
ENDROOT
BRANCH   1   7
ATOM      7  O   LIG d   1       0.744  80.719 112.418  0.00  0.00    -0.368 OA
BRANCH   7   8
ATOM      8  C   LIG d   1      -0.301  80.597 111.422  0.00  0.00     0.119 C 
BRANCH   8   9
ATOM      9  C   LIG d   1      -1.592  80.181 112.152  0.00  0.00     0.028 C 
ATOM     10  C   LIG d   1      -2.502  81.381 112.466  0.00  0.00     0.006 C 
ENDBRANCH   8   9
BRANCH   8  11
ATOM     11  C   LIG d   1      -0.005  79.460 110.440  0.00  0.00     0.028 C 
ATOM     12  C   LIG d   1       0.008  79.924 108.975  0.00  0.00     0.006 C 
ENDBRANCH   8  11
ENDBRANCH   7   8
ENDBRANCH   1   7
BRANCH   6  13
ATOM     13  N   LIG d   1       3.309  81.287 110.943  0.00  0.00    -0.311 N 
ATOM     14  C   LIG d   1       3.748  80.779 109.792  0.00  0.00     0.210 C 
ATOM     15  C   LIG d   1       4.961  79.851 109.916  0.00  0.00     0.109 C 
ATOM     16  O   LIG d   1       3.267  81.033 108.678  0.00  0.00    -0.276 OA
ATOM     17  H   LIG d   1       3.778  81.053 111.796  0.00  0.00     0.149 HD
ENDBRANCH   6  13
BRANCH   5  18
ATOM     18  N   LIG d   1       3.038  83.960 109.487  0.00  0.00     0.381 N 
ATOM     19  H   LIG d   1       2.873  84.918 109.254  0.00  0.00    -0.090 HD
ATOM     20  H   LIG d   1       2.550  83.385 108.823  0.00  0.00    -0.090 HD
ATOM     21  H   LIG d   1       4.015  83.765 109.452  0.00  0.00    -0.090 HD
ENDBRANCH   5  18
BRANCH   3  22
ATOM     22  C   LIG d   1      -0.089  85.309 112.855  0.00  0.00     0.382 C 
ATOM     23  O   LIG d   1       0.459  85.983 113.760  0.00  0.00    -0.241 OA
ATOM     24  O   LIG d   1      -1.271  85.547 112.542  0.00  0.00    -0.241 OA
ENDBRANCH   3  22
TORSDOF 7
ENDMDL
