MODEL 1
REMARK VINA RESULT:      -6.5      0.000      0.000
REMARK  7 active torsions:
REMARK  status: ('A' for Active; 'I' for Inactive)
REMARK    1  A    between atoms: C_2  and  C_3 
REMARK    2  A    between atoms: C_3  and  O_6 
REMARK    3  A    between atoms: C_3  and  C_4 
REMARK    4  A    between atoms: C_7  and  O_6 
REMARK    5  A    between atoms: C_9  and  C_10 
REMARK    6  A    between atoms: N_15  and  C_14 
REMARK    7  A    between atoms: N_20  and  C_19 
REMARK       I    between atoms: C_22  and  N_20 
ROOT
ATOM      1  C   LIG d   1       2.777  85.157 110.738  0.00  0.00     0.161 C 
ATOM      2  C   LIG d   1       2.808  86.471 111.236  0.00  0.00     0.016 C 
ATOM      3  C   LIG d   1       3.733  86.912 112.210  0.00  0.00     0.038 C 
ATOM      4  C   LIG d   1       4.794  86.105 112.645  0.00  0.00     0.028 C 
ATOM      5  C   LIG d   1       4.498  84.612 112.546  0.00  0.00    -0.047 C 
ATOM      6  C   LIG d   1       3.997  84.293 111.119  0.00  0.00     0.091 C 
ENDROOT
BRANCH   1   7
ATOM      7  O   LIG d   1       2.607  85.181 109.307  0.00  0.00    -0.368 OA
BRANCH   7   8
ATOM      8  C   LIG d   1       1.324  84.726 108.810  0.00  0.00     0.119 C 
BRANCH   8   9
ATOM      9  C   LIG d   1       1.527  84.273 107.352  0.00  0.00     0.028 C 
ATOM     10  C   LIG d   1       2.281  82.936 107.252  0.00  0.00     0.006 C 
ENDBRANCH   8   9
BRANCH   8  11
ATOM     11  C   LIG d   1       0.314  85.875 108.741  0.00  0.00     0.028 C 
ATOM     12  C   LIG d   1      -0.773  85.778 109.823  0.00  0.00     0.006 C 
ENDBRANCH   8  11
ENDBRANCH   7   8
ENDBRANCH   1   7
BRANCH   6  13
ATOM     13  N   LIG d   1       3.605  82.868 110.962  0.00  0.00    -0.311 N 
ATOM     14  C   LIG d   1       4.255  82.011 110.175  0.00  0.00     0.210 C 
ATOM     15  C   LIG d   1       3.673  80.595 110.142  0.00  0.00     0.109 C 
ATOM     16  O   LIG d   1       5.277  82.282 109.528  0.00  0.00    -0.276 OA
ATOM     17  H   LIG d   1       2.805  82.555 111.476  0.00  0.00     0.149 HD
ENDBRANCH   6  13
BRANCH   5  18
ATOM     18  N   LIG d   1       5.734  83.888 112.900  0.00  0.00     0.381 N 
ATOM     19  H   LIG d   1       6.198  83.584 112.068  0.00  0.00    -0.090 HD
ATOM     20  H   LIG d   1       5.493  83.077 113.442  0.00  0.00    -0.090 HD
ATOM     21  H   LIG d   1       6.337  84.481 113.427  0.00  0.00    -0.090 HD
ENDBRANCH   5  18
BRANCH   3  22
ATOM     22  C   LIG d   1       3.577  88.163 112.788  0.00  0.00     0.382 C 
ATOM     23  O   LIG d   1       4.363  89.094 112.491  0.00  0.00    -0.241 OA
ATOM     24  O   LIG d   1       2.687  88.359 113.637  0.00  0.00    -0.241 OA
ENDBRANCH   3  22
TORSDOF 7
ENDMDL
MODEL 2
REMARK VINA RESULT:      -6.5      3.157      5.020
REMARK  7 active torsions:
REMARK  status: ('A' for Active; 'I' for Inactive)
REMARK    1  A    between atoms: C_2  and  C_3 
REMARK    2  A    between atoms: C_3  and  O_6 
REMARK    3  A    between atoms: C_3  and  C_4 
REMARK    4  A    between atoms: C_7  and  O_6 
REMARK    5  A    between atoms: C_9  and  C_10 
REMARK    6  A    between atoms: N_15  and  C_14 
REMARK    7  A    between atoms: N_20  and  C_19 
REMARK       I    between atoms: C_22  and  N_20 
ROOT
ATOM      1  C   LIG d   1       1.835  84.422 111.373  0.00  0.00     0.161 C 
ATOM      2  C   LIG d   1       0.822  83.450 111.333  0.00  0.00     0.016 C 
ATOM      3  C   LIG d   1      -0.204  83.355 112.301  0.00  0.00     0.038 C 
ATOM      4  C   LIG d   1      -0.374  84.326 113.299  0.00  0.00     0.028 C 
ATOM      5  C   LIG d   1       0.921  85.038 113.678  0.00  0.00    -0.047 C 
ATOM      6  C   LIG d   1       1.603  85.557 112.392  0.00  0.00     0.091 C 
ENDROOT
BRANCH   1   7
ATOM      7  O   LIG d   1       2.043  84.966 110.055  0.00  0.00    -0.368 OA
BRANCH   7   8
ATOM      8  C   LIG d   1       1.007  84.688 109.080  0.00  0.00     0.119 C 
BRANCH   8   9
ATOM      9  C   LIG d   1       1.704  84.341 107.751  0.00  0.00     0.028 C 
ATOM     10  C   LIG d   1       1.912  82.828 107.574  0.00  0.00     0.006 C 
ENDBRANCH   8   9
BRANCH   8  11
ATOM     11  C   LIG d   1       0.170  85.937 108.786  0.00  0.00     0.028 C 
ATOM     12  C   LIG d   1      -1.025  86.092 109.740  0.00  0.00     0.006 C 
ENDBRANCH   8  11
ENDBRANCH   7   8
ENDBRANCH   1   7
BRANCH   6  13
ATOM     13  N   LIG d   1       2.918  86.193 112.665  0.00  0.00    -0.311 N 
ATOM     14  C   LIG d   1       3.208  87.450 112.331  0.00  0.00     0.210 C 
ATOM     15  C   LIG d   1       4.628  87.901 112.685  0.00  0.00     0.109 C 
ATOM     16  O   LIG d   1       2.414  88.243 111.804  0.00  0.00    -0.276 OA
ATOM     17  H   LIG d   1       3.611  85.631 113.118  0.00  0.00     0.149 HD
ENDBRANCH   6  13
BRANCH   5  18
ATOM     18  N   LIG d   1       0.576  86.115 114.625  0.00  0.00     0.381 N 
ATOM     19  H   LIG d   1       0.647  87.003 114.169  0.00  0.00    -0.090 HD
ATOM     20  H   LIG d   1       1.231  86.100 115.387  0.00  0.00    -0.090 HD
ATOM     21  H   LIG d   1      -0.349  85.983 114.970  0.00  0.00    -0.090 HD
ENDBRANCH   5  18
BRANCH   3  22
ATOM     22  C   LIG d   1      -1.050  82.257 112.301  0.00  0.00     0.382 C 
ATOM     23  O   LIG d   1      -2.108  82.280 112.975  0.00  0.00    -0.241 OA
ATOM     24  O   LIG d   1      -0.748  81.227 111.669  0.00  0.00    -0.241 OA
ENDBRANCH   3  22
TORSDOF 7
ENDMDL
MODEL 3
REMARK VINA RESULT:      -6.3      3.867      6.950
REMARK  7 active torsions:
REMARK  status: ('A' for Active; 'I' for Inactive)
REMARK    1  A    between atoms: C_2  and  C_3 
REMARK    2  A    between atoms: C_3  and  O_6 
REMARK    3  A    between atoms: C_3  and  C_4 
REMARK    4  A    between atoms: C_7  and  O_6 
REMARK    5  A    between atoms: C_9  and  C_10 
REMARK    6  A    between atoms: N_15  and  C_14 
REMARK    7  A    between atoms: N_20  and  C_19 
REMARK       I    between atoms: C_22  and  N_20 
ROOT
ATOM      1  C   LIG d   1       1.254  81.303 110.212  0.00  0.00     0.161 C 
ATOM      2  C   LIG d   1       1.158  79.919 109.991  0.00  0.00     0.016 C 
ATOM      3  C   LIG d   1       0.176  79.100 110.594  0.00  0.00     0.038 C 
ATOM      4  C   LIG d   1      -0.877  79.639 111.348  0.00  0.00     0.028 C 
ATOM      5  C   LIG d   1      -0.530  80.968 112.011  0.00  0.00    -0.047 C 
ATOM      6  C   LIG d   1       0.046  81.926 110.943  0.00  0.00     0.091 C 
ENDROOT
BRANCH   1   7
ATOM      7  O   LIG d   1       1.489  81.983 108.963  0.00  0.00    -0.368 OA
BRANCH   7   8
ATOM      8  C   LIG d   1       2.875  82.135 108.571  0.00  0.00     0.119 C 
BRANCH   8   9
ATOM      9  C   LIG d   1       3.637  82.711 109.780  0.00  0.00     0.028 C 
ATOM     10  C   LIG d   1       3.603  84.248 109.818  0.00  0.00     0.006 C 
ENDBRANCH   8   9
BRANCH   8  11
ATOM     11  C   LIG d   1       3.029  83.179 107.461  0.00  0.00     0.028 C 
ATOM     12  C   LIG d   1       1.709  83.469 106.729  0.00  0.00     0.006 C 
ENDBRANCH   8  11
ENDBRANCH   7   8
ENDBRANCH   1   7
BRANCH   6  13
ATOM     13  N   LIG d   1       0.490  83.220 111.523  0.00  0.00    -0.311 N 
ATOM     14  C   LIG d   1       0.024  84.402 111.121  0.00  0.00     0.210 C 
ATOM     15  C   LIG d   1       0.630  85.613 111.837  0.00  0.00     0.109 C 
ATOM     16  O   LIG d   1      -0.856  84.560 110.263  0.00  0.00    -0.276 OA
ATOM     17  H   LIG d   1       1.180  83.183 112.247  0.00  0.00     0.149 HD
ENDBRANCH   6  13
BRANCH   5  18
ATOM     18  N   LIG d   1      -1.757  81.483 112.647  0.00  0.00     0.381 N 
ATOM     19  H   LIG d   1      -1.526  82.228 113.274  0.00  0.00    -0.090 HD
ATOM     20  H   LIG d   1      -2.182  80.744 113.178  0.00  0.00    -0.090 HD
ATOM     21  H   LIG d   1      -2.391  81.809 111.951  0.00  0.00    -0.090 HD
ENDBRANCH   5  18
BRANCH   3  22
ATOM     22  C   LIG d   1       0.266  77.722 110.480  0.00  0.00     0.382 C 
ATOM     23  O   LIG d   1       1.337  77.192 110.097  0.00  0.00    -0.241 OA
ATOM     24  O   LIG d   1      -0.725  77.003 110.712  0.00  0.00    -0.241 OA
ENDBRANCH   3  22
TORSDOF 7
ENDMDL
MODEL 4
REMARK VINA RESULT:      -6.3      4.139      5.950
REMARK  7 active torsions:
REMARK  status: ('A' for Active; 'I' for Inactive)
REMARK    1  A    between atoms: C_2  and  C_3 
REMARK    2  A    between atoms: C_3  and  O_6 
REMARK    3  A    between atoms: C_3  and  C_4 
REMARK    4  A    between atoms: C_7  and  O_6 
REMARK    5  A    between atoms: C_9  and  C_10 
REMARK    6  A    between atoms: N_15  and  C_14 
REMARK    7  A    between atoms: N_20  and  C_19 
REMARK       I    between atoms: C_22  and  N_20 
ROOT
ATOM      1  C   LIG d   1       0.093  82.594 111.175  0.00  0.00     0.161 C 
ATOM      2  C   LIG d   1      -1.028  82.380 111.995  0.00  0.00     0.016 C 
ATOM      3  C   LIG d   1      -1.511  81.095 112.332  0.00  0.00     0.038 C 
ATOM      4  C   LIG d   1      -0.812  79.927 111.993  0.00  0.00     0.028 C 
ATOM      5  C   LIG d   1       0.045  80.077 110.740  0.00  0.00    -0.047 C 
ATOM      6  C   LIG d   1       0.934  81.333 110.887  0.00  0.00     0.091 C 
ENDROOT
BRANCH   1   7
ATOM      7  O   LIG d   1       0.921  83.630 111.739  0.00  0.00    -0.368 OA
BRANCH   7   8
ATOM      8  C   LIG d   1       0.909  84.903 111.047  0.00  0.00     0.119 C 
BRANCH   8   9
ATOM      9  C   LIG d   1      -0.110  85.810 111.764  0.00  0.00     0.028 C 
ATOM     10  C   LIG d   1      -0.963  86.628 110.780  0.00  0.00     0.006 C 
ENDBRANCH   8   9
BRANCH   8  11
ATOM     11  C   LIG d   1       0.383  84.755 109.617  0.00  0.00     0.028 C 
ATOM     12  C   LIG d   1       1.461  85.026 108.555  0.00  0.00     0.006 C 
ENDBRANCH   8  11
ENDBRANCH   7   8
ENDBRANCH   1   7
BRANCH   6  13
ATOM     13  N   LIG d   1       1.743  81.600 109.669  0.00  0.00    -0.311 N 
ATOM     14  C   LIG d   1       3.073  81.665 109.673  0.00  0.00     0.210 C 
ATOM     15  C   LIG d   1       3.709  81.971 108.313  0.00  0.00     0.109 C 
ATOM     16  O   LIG d   1       3.788  81.467 110.666  0.00  0.00    -0.276 OA
ATOM     17  H   LIG d   1       1.244  81.742 108.813  0.00  0.00     0.149 HD
ENDBRANCH   6  13
BRANCH   5  18
ATOM     18  N   LIG d   1       0.823  78.833 110.582  0.00  0.00     0.381 N 
ATOM     19  H   LIG d   1       1.798  79.028 110.689  0.00  0.00    -0.090 HD
ATOM     20  H   LIG d   1       0.673  78.472 109.656  0.00  0.00    -0.090 HD
ATOM     21  H   LIG d   1       0.535  78.162 111.259  0.00  0.00    -0.090 HD
ENDBRANCH   5  18
BRANCH   3  22
ATOM     22  C   LIG d   1      -2.729  80.968 112.983  0.00  0.00     0.382 C 
ATOM     23  O   LIG d   1      -3.555  81.912 112.957  0.00  0.00    -0.241 OA
ATOM     24  O   LIG d   1      -2.993  79.939 113.633  0.00  0.00    -0.241 OA
ENDBRANCH   3  22
TORSDOF 7
ENDMDL
MODEL 5
REMARK VINA RESULT:      -6.2      3.314      4.474
REMARK  7 active torsions:
REMARK  status: ('A' for Active; 'I' for Inactive)
REMARK    1  A    between atoms: C_2  and  C_3 
REMARK    2  A    between atoms: C_3  and  O_6 
REMARK    3  A    between atoms: C_3  and  C_4 
REMARK    4  A    between atoms: C_7  and  O_6 
REMARK    5  A    between atoms: C_9  and  C_10 
REMARK    6  A    between atoms: N_15  and  C_14 
REMARK    7  A    between atoms: N_20  and  C_19 
REMARK       I    between atoms: C_22  and  N_20 
ROOT
ATOM      1  C   LIG d   1      -0.076  83.925 110.565  0.00  0.00     0.161 C 
ATOM      2  C   LIG d   1      -0.193  84.870 111.598  0.00  0.00     0.016 C 
ATOM      3  C   LIG d   1      -0.269  84.522 112.966  0.00  0.00     0.038 C 
ATOM      4  C   LIG d   1      -0.080  83.204 113.408  0.00  0.00     0.028 C 
ATOM      5  C   LIG d   1      -0.463  82.156 112.368  0.00  0.00    -0.047 C 
ATOM      6  C   LIG d   1       0.244  82.490 111.035  0.00  0.00     0.091 C 
ENDROOT
BRANCH   1   7
ATOM      7  O   LIG d   1       0.905  84.368 109.606  0.00  0.00    -0.368 OA
BRANCH   7   8
ATOM      8  C   LIG d   1       2.251  83.866 109.793  0.00  0.00     0.119 C 
BRANCH   8   9
ATOM      9  C   LIG d   1       3.139  85.060 110.195  0.00  0.00     0.028 C 
ATOM     10  C   LIG d   1       3.504  85.043 111.689  0.00  0.00     0.006 C 
ENDBRANCH   8   9
BRANCH   8  11
ATOM     11  C   LIG d   1       2.840  83.348 108.477  0.00  0.00     0.028 C 
ATOM     12  C   LIG d   1       1.825  83.361 107.324  0.00  0.00     0.006 C 
ENDBRANCH   8  11
ENDBRANCH   7   8
ENDBRANCH   1   7
BRANCH   6  13
ATOM     13  N   LIG d   1      -0.143  81.562 109.940  0.00  0.00    -0.311 N 
ATOM     14  C   LIG d   1       0.570  80.488 109.603  0.00  0.00     0.210 C 
ATOM     15  C   LIG d   1       0.005  79.678 108.433  0.00  0.00     0.109 C 
ATOM     16  O   LIG d   1       1.600  80.113 110.183  0.00  0.00    -0.276 OA
ATOM     17  H   LIG d   1      -0.982  81.774 109.437  0.00  0.00     0.149 HD
ENDBRANCH   6  13
BRANCH   5  18
ATOM     18  N   LIG d   1      -0.087  80.835 112.907  0.00  0.00     0.381 N 
ATOM     19  H   LIG d   1      -0.868  80.428 113.382  0.00  0.00    -0.090 HD
ATOM     20  H   LIG d   1       0.658  80.955 113.570  0.00  0.00    -0.090 HD
ATOM     21  H   LIG d   1       0.209  80.237 112.167  0.00  0.00    -0.090 HD
ENDBRANCH   5  18
BRANCH   3  22
ATOM     22  C   LIG d   1      -0.577  85.493 113.906  0.00  0.00     0.382 C 
ATOM     23  O   LIG d   1      -1.756  85.616 114.318  0.00  0.00    -0.241 OA
ATOM     24  O   LIG d   1       0.300  86.278 114.314  0.00  0.00    -0.241 OA
ENDBRANCH   3  22
TORSDOF 7
ENDMDL
MODEL 6
REMARK VINA RESULT:      -6.1      2.861      4.471
REMARK  7 active torsions:
REMARK  status: ('A' for Active; 'I' for Inactive)
REMARK    1  A    between atoms: C_2  and  C_3 
REMARK    2  A    between atoms: C_3  and  O_6 
REMARK    3  A    between atoms: C_3  and  C_4 
REMARK    4  A    between atoms: C_7  and  O_6 
REMARK    5  A    between atoms: C_9  and  C_10 
REMARK    6  A    between atoms: N_15  and  C_14 
REMARK    7  A    between atoms: N_20  and  C_19 
REMARK       I    between atoms: C_22  and  N_20 
ROOT
ATOM      1  C   LIG d   1       3.287  84.449 110.714  0.00  0.00     0.161 C 
ATOM      2  C   LIG d   1       4.323  83.888 111.480  0.00  0.00     0.016 C 
ATOM      3  C   LIG d   1       4.119  83.288 112.744  0.00  0.00     0.038 C 
ATOM      4  C   LIG d   1       2.835  83.072 113.264  0.00  0.00     0.028 C 
ATOM      5  C   LIG d   1       1.801  84.073 112.759  0.00  0.00    -0.047 C 
ATOM      6  C   LIG d   1       1.864  84.124 111.215  0.00  0.00     0.091 C 
ENDROOT
BRANCH   1   7
ATOM      7  O   LIG d   1       3.434  84.061 109.334  0.00  0.00    -0.368 OA
BRANCH   7   8
ATOM      8  C   LIG d   1       3.051  82.701 109.011  0.00  0.00     0.119 C 
BRANCH   8   9
ATOM      9  C   LIG d   1       4.318  81.964 108.534  0.00  0.00     0.028 C 
ATOM     10  C   LIG d   1       4.744  80.845 109.499  0.00  0.00     0.006 C 
ENDBRANCH   8   9
BRANCH   8  11
ATOM     11  C   LIG d   1       2.088  82.662 107.821  0.00  0.00     0.028 C 
ATOM     12  C   LIG d   1       1.790  84.057 107.248  0.00  0.00     0.006 C 
ENDBRANCH   8  11
ENDBRANCH   7   8
ENDBRANCH   1   7
BRANCH   6  13
ATOM     13  N   LIG d   1       0.943  85.141 110.643  0.00  0.00    -0.311 N 
ATOM     14  C   LIG d   1      -0.306  84.870 110.269  0.00  0.00     0.210 C 
ATOM     15  C   LIG d   1      -1.078  86.058 109.686  0.00  0.00     0.109 C 
ATOM     16  O   LIG d   1      -0.859  83.767 110.394  0.00  0.00    -0.276 OA
ATOM     17  H   LIG d   1       1.300  86.070 110.535  0.00  0.00     0.149 HD
ENDBRANCH   6  13
BRANCH   5  18
ATOM     18  N   LIG d   1       0.483  83.649 113.269  0.00  0.00     0.381 N 
ATOM     19  H   LIG d   1       0.230  84.210 114.058  0.00  0.00    -0.090 HD
ATOM     20  H   LIG d   1       0.544  82.692 113.569  0.00  0.00    -0.090 HD
ATOM     21  H   LIG d   1      -0.204  83.738 112.554  0.00  0.00    -0.090 HD
ENDBRANCH   5  18
BRANCH   3  22
ATOM     22  C   LIG d   1       5.212  82.932 113.520  0.00  0.00     0.382 C 
ATOM     23  O   LIG d   1       5.495  81.721 113.686  0.00  0.00    -0.241 OA
ATOM     24  O   LIG d   1       5.892  83.805 114.091  0.00  0.00    -0.241 OA
ENDBRANCH   3  22
TORSDOF 7
ENDMDL
MODEL 7
REMARK VINA RESULT:      -6.0      2.519      6.178
REMARK  7 active torsions:
REMARK  status: ('A' for Active; 'I' for Inactive)
REMARK    1  A    between atoms: C_2  and  C_3 
REMARK    2  A    between atoms: C_3  and  O_6 
REMARK    3  A    between atoms: C_3  and  C_4 
REMARK    4  A    between atoms: C_7  and  O_6 
REMARK    5  A    between atoms: C_9  and  C_10 
REMARK    6  A    between atoms: N_15  and  C_14 
REMARK    7  A    between atoms: N_20  and  C_19 
REMARK       I    between atoms: C_22  and  N_20 
ROOT
ATOM      1  C   LIG d   1       2.790  83.728 110.290  0.00  0.00     0.161 C 
ATOM      2  C   LIG d   1       3.465  82.501 110.402  0.00  0.00     0.016 C 
ATOM      3  C   LIG d   1       3.464  81.518 109.386  0.00  0.00     0.038 C 
ATOM      4  C   LIG d   1       2.909  81.759 108.121  0.00  0.00     0.028 C 
ATOM      5  C   LIG d   1       1.782  82.786 108.139  0.00  0.00    -0.047 C 
ATOM      6  C   LIG d   1       2.272  84.055 108.874  0.00  0.00     0.091 C 
ENDROOT
BRANCH   1   7
ATOM      7  O   LIG d   1       3.630  84.794 110.774  0.00  0.00    -0.368 OA
BRANCH   7   8
ATOM      8  C   LIG d   1       3.511  85.110 112.183  0.00  0.00     0.119 C 
BRANCH   8   9
ATOM      9  C   LIG d   1       2.434  86.203 112.324  0.00  0.00     0.028 C 
ATOM     10  C   LIG d   1       1.223  85.732 113.147  0.00  0.00     0.006 C 
ENDBRANCH   8   9
BRANCH   8  11
ATOM     11  C   LIG d   1       4.798  85.738 112.725  0.00  0.00     0.028 C 
ATOM     12  C   LIG d   1       5.574  84.796 113.660  0.00  0.00     0.006 C 
ENDBRANCH   8  11
ENDBRANCH   7   8
ENDBRANCH   1   7
BRANCH   6  13
ATOM     13  N   LIG d   1       1.203  85.079 109.010  0.00  0.00    -0.311 N 
ATOM     14  C   LIG d   1       0.079  84.878 109.695  0.00  0.00     0.210 C 
ATOM     15  C   LIG d   1      -0.899  86.057 109.693  0.00  0.00     0.109 C 
ATOM     16  O   LIG d   1      -0.188  83.846 110.330  0.00  0.00    -0.276 OA
ATOM     17  H   LIG d   1       1.351  85.957 108.552  0.00  0.00     0.149 HD
ENDBRANCH   6  13
BRANCH   5  18
ATOM     18  N   LIG d   1       1.390  83.043 106.740  0.00  0.00     0.381 N 
ATOM     19  H   LIG d   1       0.505  83.508 106.717  0.00  0.00    -0.090 HD
ATOM     20  H   LIG d   1       1.298  82.164 106.262  0.00  0.00    -0.090 HD
ATOM     21  H   LIG d   1       2.080  83.603 106.290  0.00  0.00    -0.090 HD
ENDBRANCH   5  18
BRANCH   3  22
ATOM     22  C   LIG d   1       3.989  80.261 109.647  0.00  0.00     0.382 C 
ATOM     23  O   LIG d   1       5.231  80.101 109.711  0.00  0.00    -0.241 OA
ATOM     24  O   LIG d   1       3.236  79.276 109.774  0.00  0.00    -0.241 OA
ENDBRANCH   3  22
TORSDOF 7
ENDMDL
MODEL 8
REMARK VINA RESULT:      -5.9      4.446      6.751
REMARK  7 active torsions:
REMARK  status: ('A' for Active; 'I' for Inactive)
REMARK    1  A    between atoms: C_2  and  C_3 
REMARK    2  A    between atoms: C_3  and  O_6 
REMARK    3  A    between atoms: C_3  and  C_4 
REMARK    4  A    between atoms: C_7  and  O_6 
REMARK    5  A    between atoms: C_9  and  C_10 
REMARK    6  A    between atoms: N_15  and  C_14 
REMARK    7  A    between atoms: N_20  and  C_19 
REMARK       I    between atoms: C_22  and  N_20 
ROOT
ATOM      1  C   LIG d   1      -0.187  81.830 110.890  0.00  0.00     0.161 C 
ATOM      2  C   LIG d   1      -0.840  80.921 111.739  0.00  0.00     0.016 C 
ATOM      3  C   LIG d   1      -0.890  79.529 111.499  0.00  0.00     0.038 C 
ATOM      4  C   LIG d   1      -0.157  78.928 110.465  0.00  0.00     0.028 C 
ATOM      5  C   LIG d   1       0.105  79.861 109.287  0.00  0.00    -0.047 C 
ATOM      6  C   LIG d   1       0.712  81.180 109.817  0.00  0.00     0.091 C 
ENDROOT
BRANCH   1   7
ATOM      7  O   LIG d   1       0.569  82.774 111.673  0.00  0.00    -0.368 OA
BRANCH   7   8
ATOM      8  C   LIG d   1      -0.030  84.081 111.849  0.00  0.00     0.119 C 
BRANCH   8   9
ATOM      9  C   LIG d   1       0.460  84.975 110.693  0.00  0.00     0.028 C 
ATOM     10  C   LIG d   1      -0.698  85.668 109.955  0.00  0.00     0.006 C 
ENDBRANCH   8   9
BRANCH   8  11
ATOM     11  C   LIG d   1       0.474  84.758 113.127  0.00  0.00     0.028 C 
ATOM     12  C   LIG d   1      -0.655  85.406 113.944  0.00  0.00     0.006 C 
ENDBRANCH   8  11
ENDBRANCH   7   8
ENDBRANCH   1   7
BRANCH   6  13
ATOM     13  N   LIG d   1       0.921  82.182 108.739  0.00  0.00    -0.311 N 
ATOM     14  C   LIG d   1       2.067  82.312 108.072  0.00  0.00     0.210 C 
ATOM     15  C   LIG d   1       2.076  83.420 107.014  0.00  0.00     0.109 C 
ATOM     16  O   LIG d   1       3.065  81.594 108.233  0.00  0.00    -0.276 OA
ATOM     17  H   LIG d   1       0.153  82.785 108.522  0.00  0.00     0.149 HD
ENDBRANCH   6  13
BRANCH   5  18
ATOM     18  N   LIG d   1       0.994  79.153 108.347  0.00  0.00     0.381 N 
ATOM     19  H   LIG d   1       0.516  78.997 107.481  0.00  0.00    -0.090 HD
ATOM     20  H   LIG d   1       1.236  78.260 108.738  0.00  0.00    -0.090 HD
ATOM     21  H   LIG d   1       1.819  79.688 108.188  0.00  0.00    -0.090 HD
ENDBRANCH   5  18
BRANCH   3  22
ATOM     22  C   LIG d   1      -1.714  78.727 112.274  0.00  0.00     0.382 C 
ATOM     23  O   LIG d   1      -1.373  77.548 112.537  0.00  0.00    -0.241 OA
ATOM     24  O   LIG d   1      -2.813  79.152 112.677  0.00  0.00    -0.241 OA
ENDBRANCH   3  22
TORSDOF 7
ENDMDL
MODEL 9
REMARK VINA RESULT:      -5.9      3.272      5.970
REMARK  7 active torsions:
REMARK  status: ('A' for Active; 'I' for Inactive)
REMARK    1  A    between atoms: C_2  and  C_3 
REMARK    2  A    between atoms: C_3  and  O_6 
REMARK    3  A    between atoms: C_3  and  C_4 
REMARK    4  A    between atoms: C_7  and  O_6 
REMARK    5  A    between atoms: C_9  and  C_10 
REMARK    6  A    between atoms: N_15  and  C_14 
REMARK    7  A    between atoms: N_20  and  C_19 
REMARK       I    between atoms: C_22  and  N_20 
ROOT
ATOM      1  C   LIG d   1       2.056  82.827 110.898  0.00  0.00     0.161 C 
ATOM      2  C   LIG d   1       2.141  81.670 110.107  0.00  0.00     0.016 C 
ATOM      3  C   LIG d   1       1.267  80.567 110.245  0.00  0.00     0.038 C 
ATOM      4  C   LIG d   1       0.147  80.609 111.088  0.00  0.00     0.028 C 
ATOM      5  C   LIG d   1       0.314  81.557 112.271  0.00  0.00    -0.047 C 
ATOM      6  C   LIG d   1       0.772  82.938 111.747  0.00  0.00     0.091 C 
ENDROOT
BRANCH   1   7
ATOM      7  O   LIG d   1       2.212  83.997 110.071  0.00  0.00    -0.368 OA
BRANCH   7   8
ATOM      8  C   LIG d   1       1.146  84.255 109.124  0.00  0.00     0.119 C 
BRANCH   8   9
ATOM      9  C   LIG d   1       1.801  84.541 107.758  0.00  0.00     0.028 C 
ATOM     10  C   LIG d   1       1.725  83.335 106.807  0.00  0.00     0.006 C 
ENDBRANCH   8   9
BRANCH   8  11
ATOM     11  C   LIG d   1       0.379  85.531 109.481  0.00  0.00     0.028 C 
ATOM     12  C   LIG d   1       1.249  86.563 110.215  0.00  0.00     0.006 C 
ENDBRANCH   8  11
ENDBRANCH   7   8
ENDBRANCH   1   7
BRANCH   6  13
ATOM     13  N   LIG d   1       1.040  83.901 112.846  0.00  0.00    -0.311 N 
ATOM     14  C   LIG d   1       0.145  84.785 113.281  0.00  0.00     0.210 C 
ATOM     15  C   LIG d   1       0.633  85.698 114.411  0.00  0.00     0.109 C 
ATOM     16  O   LIG d   1      -1.018  84.879 112.861  0.00  0.00    -0.276 OA
ATOM     17  H   LIG d   1       1.949  83.872 113.266  0.00  0.00     0.149 HD
ENDBRANCH   6  13
BRANCH   5  18
ATOM     18  N   LIG d   1      -0.974  81.608 112.987  0.00  0.00     0.381 N 
ATOM     19  H   LIG d   1      -1.645  81.032 112.519  0.00  0.00    -0.090 HD
ATOM     20  H   LIG d   1      -1.312  82.554 112.981  0.00  0.00    -0.090 HD
ATOM     21  H   LIG d   1      -0.855  81.296 113.926  0.00  0.00    -0.090 HD
ENDBRANCH   5  18
BRANCH   3  22
ATOM     22  C   LIG d   1       1.534  79.389 109.564  0.00  0.00     0.382 C 
ATOM     23  O   LIG d   1       2.498  79.333 108.762  0.00  0.00    -0.241 OA
ATOM     24  O   LIG d   1       0.797  78.395 109.707  0.00  0.00    -0.241 OA
ENDBRANCH   3  22
TORSDOF 7
ENDMDL
