MODEL 1
REMARK VINA RESULT:      -5.8      0.000      0.000
REMARK  7 active torsions:
REMARK  status: ('A' for Active; 'I' for Inactive)
REMARK    1  A    between atoms: C_2  and  C_3 
REMARK    2  A    between atoms: C_3  and  O_6 
REMARK    3  A    between atoms: C_3  and  C_4 
REMARK    4  A    between atoms: C_7  and  O_6 
REMARK    5  A    between atoms: C_9  and  C_10 
REMARK    6  A    between atoms: N_15  and  C_14 
REMARK    7  A    between atoms: N_20  and  C_19 
REMARK       I    between atoms: C_22  and  N_20 
ROOT
ATOM      1  C   LIG d   1       1.167  86.029 112.840  0.00  0.00     0.161 C 
ATOM      2  C   LIG d   1      -0.029  85.420 113.254  0.00  0.00     0.016 C 
ATOM      3  C   LIG d   1      -0.456  85.379 114.601  0.00  0.00     0.038 C 
ATOM      4  C   LIG d   1       0.216  86.081 115.613  0.00  0.00     0.028 C 
ATOM      5  C   LIG d   1       1.699  86.286 115.326  0.00  0.00    -0.047 C 
ATOM      6  C   LIG d   1       1.857  86.895 113.914  0.00  0.00     0.091 C 
ENDROOT
BRANCH   1   7
ATOM      7  O   LIG d   1       0.935  86.802 111.646  0.00  0.00    -0.368 OA
BRANCH   7   8
ATOM      8  C   LIG d   1       1.668  86.389 110.466  0.00  0.00     0.119 C 
BRANCH   8   9
ATOM      9  C   LIG d   1       0.635  86.048 109.375  0.00  0.00     0.028 C 
ATOM     10  C   LIG d   1      -0.804  86.386 109.802  0.00  0.00     0.006 C 
ENDBRANCH   8   9
BRANCH   8  11
ATOM     11  C   LIG d   1       2.438  85.089 110.716  0.00  0.00     0.028 C 
ATOM     12  C   LIG d   1       2.373  84.120 109.525  0.00  0.00     0.006 C 
ENDBRANCH   8  11
ENDBRANCH   7   8
ENDBRANCH   1   7
BRANCH   6  13
ATOM     13  N   LIG d   1       3.282  87.050 113.520  0.00  0.00    -0.311 N 
ATOM     14  C   LIG d   1       3.774  88.160 112.973  0.00  0.00     0.210 C 
ATOM     15  C   LIG d   1       5.265  88.103 112.623  0.00  0.00     0.109 C 
ATOM     16  O   LIG d   1       3.126  89.198 112.773  0.00  0.00    -0.276 OA
ATOM     17  H   LIG d   1       3.886  86.267 113.676  0.00  0.00     0.149 HD
ENDBRANCH   6  13
BRANCH   5  18
ATOM     18  N   LIG d   1       2.244  87.148 116.392  0.00  0.00     0.381 N 
ATOM     19  H   LIG d   1       1.648  87.113 117.194  0.00  0.00    -0.090 HD
ATOM     20  H   LIG d   1       2.273  88.096 116.061  0.00  0.00    -0.090 HD
ATOM     21  H   LIG d   1       3.162  86.846 116.638  0.00  0.00    -0.090 HD
ENDBRANCH   5  18
BRANCH   3  22
ATOM     22  C   LIG d   1      -1.545  84.597 114.953  0.00  0.00     0.382 C 
ATOM     23  O   LIG d   1      -2.699  85.091 114.953  0.00  0.00    -0.241 OA
ATOM     24  O   LIG d   1      -1.384  83.416 115.314  0.00  0.00    -0.241 OA
ENDBRANCH   3  22
TORSDOF 7
ENDMDL
MODEL 2
REMARK VINA RESULT:      -5.7      4.014      5.351
REMARK  7 active torsions:
REMARK  status: ('A' for Active; 'I' for Inactive)
REMARK    1  A    between atoms: C_2  and  C_3 
REMARK    2  A    between atoms: C_3  and  O_6 
REMARK    3  A    between atoms: C_3  and  C_4 
REMARK    4  A    between atoms: C_7  and  O_6 
REMARK    5  A    between atoms: C_9  and  C_10 
REMARK    6  A    between atoms: N_15  and  C_14 
REMARK    7  A    between atoms: N_20  and  C_19 
REMARK       I    between atoms: C_22  and  N_20 
ROOT
ATOM      1  C   LIG d   1      -0.320  82.916 111.578  0.00  0.00     0.161 C 
ATOM      2  C   LIG d   1      -1.496  82.382 112.133  0.00  0.00     0.016 C 
ATOM      3  C   LIG d   1      -1.850  81.017 112.039  0.00  0.00     0.038 C 
ATOM      4  C   LIG d   1      -0.973  80.058 111.510  0.00  0.00     0.028 C 
ATOM      5  C   LIG d   1       0.003  80.628 110.487  0.00  0.00    -0.047 C 
ATOM      6  C   LIG d   1       0.702  81.865 111.095  0.00  0.00     0.091 C 
ENDROOT
BRANCH   1   7
ATOM      7  O   LIG d   1       0.296  83.820 112.517  0.00  0.00    -0.368 OA
BRANCH   7   8
ATOM      8  C   LIG d   1      -0.121  85.205 112.435  0.00  0.00     0.119 C 
BRANCH   8   9
ATOM      9  C   LIG d   1       0.214  85.706 111.017  0.00  0.00     0.028 C 
ATOM     10  C   LIG d   1      -0.880  86.624 110.445  0.00  0.00     0.006 C 
ENDBRANCH   8   9
BRANCH   8  11
ATOM     11  C   LIG d   1       0.696  86.089 113.382  0.00  0.00     0.028 C 
ATOM     12  C   LIG d   1       2.094  86.416 112.834  0.00  0.00     0.006 C 
ENDBRANCH   8  11
ENDBRANCH   7   8
ENDBRANCH   1   7
BRANCH   6  13
ATOM     13  N   LIG d   1       1.612  82.534 110.130  0.00  0.00    -0.311 N 
ATOM     14  C   LIG d   1       2.800  83.032 110.467  0.00  0.00     0.210 C 
ATOM     15  C   LIG d   1       3.570  83.698 109.322  0.00  0.00     0.109 C 
ATOM     16  O   LIG d   1       3.304  82.957 111.597  0.00  0.00    -0.276 OA
ATOM     17  H   LIG d   1       1.295  82.611 109.183  0.00  0.00     0.149 HD
ENDBRANCH   6  13
BRANCH   5  18
ATOM     18  N   LIG d   1       0.945  79.553 110.122  0.00  0.00     0.381 N 
ATOM     19  H   LIG d   1       1.509  79.845 109.349  0.00  0.00    -0.090 HD
ATOM     20  H   LIG d   1       0.421  78.743 109.842  0.00  0.00    -0.090 HD
ATOM     21  H   LIG d   1       1.525  79.330 110.901  0.00  0.00    -0.090 HD
ENDBRANCH   5  18
BRANCH   3  22
ATOM     22  C   LIG d   1      -3.112  80.605 112.440  0.00  0.00     0.382 C 
ATOM     23  O   LIG d   1      -3.291  79.428 112.836  0.00  0.00    -0.241 OA
ATOM     24  O   LIG d   1      -4.082  81.383 112.370  0.00  0.00    -0.241 OA
ENDBRANCH   3  22
TORSDOF 7
ENDMDL
MODEL 3
REMARK VINA RESULT:      -5.6      2.318      4.742
REMARK  7 active torsions:
REMARK  status: ('A' for Active; 'I' for Inactive)
REMARK    1  A    between atoms: C_2  and  C_3 
REMARK    2  A    between atoms: C_3  and  O_6 
REMARK    3  A    between atoms: C_3  and  C_4 
REMARK    4  A    between atoms: C_7  and  O_6 
REMARK    5  A    between atoms: C_9  and  C_10 
REMARK    6  A    between atoms: N_15  and  C_14 
REMARK    7  A    between atoms: N_20  and  C_19 
REMARK       I    between atoms: C_22  and  N_20 
ROOT
ATOM      1  C   LIG d   1       2.264  86.393 111.910  0.00  0.00     0.161 C 
ATOM      2  C   LIG d   1       3.152  87.481 111.956  0.00  0.00     0.016 C 
ATOM      3  C   LIG d   1       3.829  87.884 113.130  0.00  0.00     0.038 C 
ATOM      4  C   LIG d   1       3.779  87.129 114.311  0.00  0.00     0.028 C 
ATOM      5  C   LIG d   1       2.500  86.311 114.454  0.00  0.00    -0.047 C 
ATOM      6  C   LIG d   1       2.283  85.490 113.162  0.00  0.00     0.091 C 
ENDROOT
BRANCH   1   7
ATOM      7  O   LIG d   1       2.510  85.612 110.725  0.00  0.00    -0.368 OA
BRANCH   7   8
ATOM      8  C   LIG d   1       1.521  85.724 109.671  0.00  0.00     0.119 C 
BRANCH   8   9
ATOM      9  C   LIG d   1       0.391  86.634 110.192  0.00  0.00     0.028 C 
ATOM     10  C   LIG d   1      -0.973  85.923 110.210  0.00  0.00     0.006 C 
ENDBRANCH   8   9
BRANCH   8  11
ATOM     11  C   LIG d   1       0.856  84.374 109.386  0.00  0.00     0.028 C 
ATOM     12  C   LIG d   1       1.865  83.218 109.305  0.00  0.00     0.006 C 
ENDBRANCH   8  11
ENDBRANCH   7   8
ENDBRANCH   1   7
BRANCH   6  13
ATOM     13  N   LIG d   1       1.008  84.726 113.183  0.00  0.00    -0.311 N 
ATOM     14  C   LIG d   1       0.940  83.410 112.988  0.00  0.00     0.210 C 
ATOM     15  C   LIG d   1      -0.474  82.823 113.031  0.00  0.00     0.109 C 
ATOM     16  O   LIG d   1       1.919  82.668 112.815  0.00  0.00    -0.276 OA
ATOM     17  H   LIG d   1       0.168  85.244 113.348  0.00  0.00     0.149 HD
ENDBRANCH   6  13
BRANCH   5  18
ATOM     18  N   LIG d   1       2.641  85.469 115.656  0.00  0.00     0.381 N 
ATOM     19  H   LIG d   1       3.188  85.948 116.343  0.00  0.00    -0.090 HD
ATOM     20  H   LIG d   1       3.120  84.622 115.406  0.00  0.00    -0.090 HD
ATOM     21  H   LIG d   1       1.742  85.253 116.029  0.00  0.00    -0.090 HD
ENDBRANCH   5  18
BRANCH   3  22
ATOM     22  C   LIG d   1       4.535  89.078 113.141  0.00  0.00     0.382 C 
ATOM     23  O   LIG d   1       3.999  90.119 113.592  0.00  0.00    -0.241 OA
ATOM     24  O   LIG d   1       5.684  89.136 112.665  0.00  0.00    -0.241 OA
ENDBRANCH   3  22
TORSDOF 7
ENDMDL
MODEL 4
REMARK VINA RESULT:      -5.5      3.272      6.921
REMARK  7 active torsions:
REMARK  status: ('A' for Active; 'I' for Inactive)
REMARK    1  A    between atoms: C_2  and  C_3 
REMARK    2  A    between atoms: C_3  and  O_6 
REMARK    3  A    between atoms: C_3  and  C_4 
REMARK    4  A    between atoms: C_7  and  O_6 
REMARK    5  A    between atoms: C_9  and  C_10 
REMARK    6  A    between atoms: N_15  and  C_14 
REMARK    7  A    between atoms: N_20  and  C_19 
REMARK       I    between atoms: C_22  and  N_20 
ROOT
ATOM      1  C   LIG d   1      -0.683  84.102 113.192  0.00  0.00     0.161 C 
ATOM      2  C   LIG d   1      -0.000  85.245 112.742  0.00  0.00     0.016 C 
ATOM      3  C   LIG d   1       0.498  85.387 111.427  0.00  0.00     0.038 C 
ATOM      4  C   LIG d   1       0.213  84.451 110.421  0.00  0.00     0.028 C 
ATOM      5  C   LIG d   1      -0.040  83.046 110.956  0.00  0.00    -0.047 C 
ATOM      6  C   LIG d   1      -1.100  83.119 112.078  0.00  0.00     0.091 C 
ENDROOT
BRANCH   1   7
ATOM      7  O   LIG d   1      -1.831  84.494 113.970  0.00  0.00    -0.368 OA
BRANCH   7   8
ATOM      8  C   LIG d   1      -1.750  84.243 115.395  0.00  0.00     0.119 C 
BRANCH   8   9
ATOM      9  C   LIG d   1      -0.334  83.712 115.692  0.00  0.00     0.028 C 
ATOM     10  C   LIG d   1       0.482  84.678 116.568  0.00  0.00     0.006 C 
ENDBRANCH   8   9
BRANCH   8  11
ATOM     11  C   LIG d   1      -2.701  83.119 115.818  0.00  0.00     0.028 C 
ATOM     12  C   LIG d   1      -2.492  82.677 117.275  0.00  0.00     0.006 C 
ENDBRANCH   8  11
ENDBRANCH   7   8
ENDBRANCH   1   7
BRANCH   6  13
ATOM     13  N   LIG d   1      -1.346  81.798 112.713  0.00  0.00    -0.311 N 
ATOM     14  C   LIG d   1      -2.544  81.220 112.763  0.00  0.00     0.210 C 
ATOM     15  C   LIG d   1      -2.581  79.867 113.481  0.00  0.00     0.109 C 
ATOM     16  O   LIG d   1      -3.575  81.683 112.251  0.00  0.00    -0.276 OA
ATOM     17  H   LIG d   1      -0.558  81.337 113.126  0.00  0.00     0.149 HD
ENDBRANCH   6  13
BRANCH   5  18
ATOM     18  N   LIG d   1      -0.459  82.205 109.818  0.00  0.00     0.381 N 
ATOM     19  H   LIG d   1      -1.252  81.653 110.079  0.00  0.00    -0.090 HD
ATOM     20  H   LIG d   1       0.293  81.584 109.579  0.00  0.00    -0.090 HD
ATOM     21  H   LIG d   1      -0.688  82.779 109.036  0.00  0.00    -0.090 HD
ENDBRANCH   5  18
BRANCH   3  22
ATOM     22  C   LIG d   1       1.325  86.456 111.117  0.00  0.00     0.382 C 
ATOM     23  O   LIG d   1       1.898  87.092 112.034  0.00  0.00    -0.241 OA
ATOM     24  O   LIG d   1       1.471  86.819 109.935  0.00  0.00    -0.241 OA
ENDBRANCH   3  22
TORSDOF 7
ENDMDL
MODEL 5
REMARK VINA RESULT:      -5.5      2.961      5.879
REMARK  7 active torsions:
REMARK  status: ('A' for Active; 'I' for Inactive)
REMARK    1  A    between atoms: C_2  and  C_3 
REMARK    2  A    between atoms: C_3  and  O_6 
REMARK    3  A    between atoms: C_3  and  C_4 
REMARK    4  A    between atoms: C_7  and  O_6 
REMARK    5  A    between atoms: C_9  and  C_10 
REMARK    6  A    between atoms: N_15  and  C_14 
REMARK    7  A    between atoms: N_20  and  C_19 
REMARK       I    between atoms: C_22  and  N_20 
ROOT
ATOM      1  C   LIG d   1       2.836  84.272 112.015  0.00  0.00     0.161 C 
ATOM      2  C   LIG d   1       3.371  85.497 112.450  0.00  0.00     0.016 C 
ATOM      3  C   LIG d   1       2.972  86.749 111.929  0.00  0.00     0.038 C 
ATOM      4  C   LIG d   1       1.895  86.872 111.037  0.00  0.00     0.028 C 
ATOM      5  C   LIG d   1       1.664  85.624 110.192  0.00  0.00    -0.047 C 
ATOM      6  C   LIG d   1       1.583  84.394 111.124  0.00  0.00     0.091 C 
ENDROOT
BRANCH   1   7
ATOM      7  O   LIG d   1       2.564  83.427 113.151  0.00  0.00    -0.368 OA
BRANCH   7   8
ATOM      8  C   LIG d   1       1.201  83.440 113.641  0.00  0.00     0.119 C 
BRANCH   8   9
ATOM      9  C   LIG d   1       1.118  84.505 114.752  0.00  0.00     0.028 C 
ATOM     10  C   LIG d   1       0.157  85.651 114.395  0.00  0.00     0.006 C 
ENDBRANCH   8   9
BRANCH   8  11
ATOM     11  C   LIG d   1       0.842  82.116 114.322  0.00  0.00     0.028 C 
ATOM     12  C   LIG d   1       0.268  81.079 113.344  0.00  0.00     0.006 C 
ENDBRANCH   8  11
ENDBRANCH   7   8
ENDBRANCH   1   7
BRANCH   6  13
ATOM     13  N   LIG d   1       1.441  83.120 110.371  0.00  0.00    -0.311 N 
ATOM     14  C   LIG d   1       0.265  82.566 110.083  0.00  0.00     0.210 C 
ATOM     15  C   LIG d   1       0.345  81.242 109.316  0.00  0.00     0.109 C 
ATOM     16  O   LIG d   1      -0.837  83.060 110.362  0.00  0.00    -0.276 OA
ATOM     17  H   LIG d   1       2.285  82.667 110.078  0.00  0.00     0.149 HD
ENDBRANCH   6  13
BRANCH   5  18
ATOM     18  N   LIG d   1       0.432  85.839 109.409  0.00  0.00     0.381 N 
ATOM     19  H   LIG d   1       0.480  85.323 108.553  0.00  0.00    -0.090 HD
ATOM     20  H   LIG d   1       0.355  86.815 109.185  0.00  0.00    -0.090 HD
ATOM     21  H   LIG d   1      -0.362  85.548 109.936  0.00  0.00    -0.090 HD
ENDBRANCH   5  18
BRANCH   3  22
ATOM     22  C   LIG d   1       3.679  87.892 112.269  0.00  0.00     0.382 C 
ATOM     23  O   LIG d   1       3.064  88.939 112.583  0.00  0.00    -0.241 OA
ATOM     24  O   LIG d   1       4.924  87.901 112.222  0.00  0.00    -0.241 OA
ENDBRANCH   3  22
TORSDOF 7
ENDMDL
MODEL 6
REMARK VINA RESULT:      -5.4     11.241     13.756
REMARK  7 active torsions:
REMARK  status: ('A' for Active; 'I' for Inactive)
REMARK    1  A    between atoms: C_2  and  C_3 
REMARK    2  A    between atoms: C_3  and  O_6 
REMARK    3  A    between atoms: C_3  and  C_4 
REMARK    4  A    between atoms: C_7  and  O_6 
REMARK    5  A    between atoms: C_9  and  C_10 
REMARK    6  A    between atoms: N_15  and  C_14 
REMARK    7  A    between atoms: N_20  and  C_19 
REMARK       I    between atoms: C_22  and  N_20 
ROOT
ATOM      1  C   LIG d   1      -5.254  75.373 117.748  0.00  0.00     0.161 C 
ATOM      2  C   LIG d   1      -5.550  74.105 117.221  0.00  0.00     0.016 C 
ATOM      3  C   LIG d   1      -6.865  73.666 116.943  0.00  0.00     0.038 C 
ATOM      4  C   LIG d   1      -7.969  74.527 117.031  0.00  0.00     0.028 C 
ATOM      5  C   LIG d   1      -7.777  75.656 118.038  0.00  0.00    -0.047 C 
ATOM      6  C   LIG d   1      -6.436  76.366 117.747  0.00  0.00     0.091 C 
ENDROOT
BRANCH   1   7
ATOM      7  O   LIG d   1      -4.124  75.939 117.055  0.00  0.00    -0.368 OA
BRANCH   7   8
ATOM      8  C   LIG d   1      -3.780  75.324 115.789  0.00  0.00     0.119 C 
BRANCH   8   9
ATOM      9  C   LIG d   1      -2.243  75.318 115.680  0.00  0.00     0.028 C 
ATOM     10  C   LIG d   1      -1.729  76.257 114.575  0.00  0.00     0.006 C 
ENDBRANCH   8   9
BRANCH   8  11
ATOM     11  C   LIG d   1      -4.267  76.169 114.608  0.00  0.00     0.028 C 
ATOM     12  C   LIG d   1      -5.484  75.556 113.898  0.00  0.00     0.006 C 
ENDBRANCH   8  11
ENDBRANCH   7   8
ENDBRANCH   1   7
BRANCH   6  13
ATOM     13  N   LIG d   1      -6.130  77.430 118.739  0.00  0.00    -0.311 N 
ATOM     14  C   LIG d   1      -6.419  78.716 118.547  0.00  0.00     0.210 C 
ATOM     15  C   LIG d   1      -6.001  79.650 119.687  0.00  0.00     0.109 C 
ATOM     16  O   LIG d   1      -7.011  79.167 117.555  0.00  0.00    -0.276 OA
ATOM     17  H   LIG d   1      -5.678  77.147 119.586  0.00  0.00     0.149 HD
ENDBRANCH   6  13
BRANCH   5  18
ATOM     18  N   LIG d   1      -8.942  76.553 117.929  0.00  0.00     0.381 N 
ATOM     19  H   LIG d   1      -8.643  77.463 117.640  0.00  0.00    -0.090 HD
ATOM     20  H   LIG d   1      -9.375  76.636 118.832  0.00  0.00    -0.090 HD
ATOM     21  H   LIG d   1      -9.595  76.186 117.272  0.00  0.00    -0.090 HD
ENDBRANCH   5  18
BRANCH   3  22
ATOM     22  C   LIG d   1      -7.090  72.339 116.608  0.00  0.00     0.382 C 
ATOM     23  O   LIG d   1      -7.906  71.655 117.272  0.00  0.00    -0.241 OA
ATOM     24  O   LIG d   1      -6.454  71.805 115.680  0.00  0.00    -0.241 OA
ENDBRANCH   3  22
TORSDOF 7
ENDMDL
MODEL 7
REMARK VINA RESULT:      -5.3      4.120      5.703
REMARK  7 active torsions:
REMARK  status: ('A' for Active; 'I' for Inactive)
REMARK    1  A    between atoms: C_2  and  C_3 
REMARK    2  A    between atoms: C_3  and  O_6 
REMARK    3  A    between atoms: C_3  and  C_4 
REMARK    4  A    between atoms: C_7  and  O_6 
REMARK    5  A    between atoms: C_9  and  C_10 
REMARK    6  A    between atoms: N_15  and  C_14 
REMARK    7  A    between atoms: N_20  and  C_19 
REMARK       I    between atoms: C_22  and  N_20 
ROOT
ATOM      1  C   LIG d   1      -0.230  83.013 111.574  0.00  0.00     0.161 C 
ATOM      2  C   LIG d   1      -1.421  82.517 112.131  0.00  0.00     0.016 C 
ATOM      3  C   LIG d   1      -1.823  81.165 112.032  0.00  0.00     0.038 C 
ATOM      4  C   LIG d   1      -0.982  80.179 111.496  0.00  0.00     0.028 C 
ATOM      5  C   LIG d   1       0.009  80.720 110.470  0.00  0.00    -0.047 C 
ATOM      6  C   LIG d   1       0.753  81.930 111.081  0.00  0.00     0.091 C 
ENDROOT
BRANCH   1   7
ATOM      7  O   LIG d   1       0.421  83.891 112.513  0.00  0.00    -0.368 OA
BRANCH   7   8
ATOM      8  C   LIG d   1       0.216  83.588 113.915  0.00  0.00     0.119 C 
BRANCH   8   9
ATOM      9  C   LIG d   1       0.111  84.929 114.668  0.00  0.00     0.028 C 
ATOM     10  C   LIG d   1      -1.248  85.616 114.454  0.00  0.00     0.006 C 
ENDBRANCH   8   9
BRANCH   8  11
ATOM     11  C   LIG d   1       1.435  82.880 114.516  0.00  0.00     0.028 C 
ATOM     12  C   LIG d   1       1.191  81.384 114.768  0.00  0.00     0.006 C 
ENDBRANCH   8  11
ENDBRANCH   7   8
ENDBRANCH   1   7
BRANCH   6  13
ATOM     13  N   LIG d   1       1.681  82.572 110.114  0.00  0.00    -0.311 N 
ATOM     14  C   LIG d   1       2.878  83.047 110.452  0.00  0.00     0.210 C 
ATOM     15  C   LIG d   1       3.667  83.688 109.306  0.00  0.00     0.109 C 
ATOM     16  O   LIG d   1       3.376  82.970 111.586  0.00  0.00    -0.276 OA
ATOM     17  H   LIG d   1       1.370  82.648 109.165  0.00  0.00     0.149 HD
ENDBRANCH   6  13
BRANCH   5  18
ATOM     18  N   LIG d   1       0.912  79.615 110.096  0.00  0.00     0.381 N 
ATOM     19  H   LIG d   1       0.711  78.810 110.655  0.00  0.00    -0.090 HD
ATOM     20  H   LIG d   1       1.860  79.895 110.276  0.00  0.00    -0.090 HD
ATOM     21  H   LIG d   1       0.800  79.395 109.131  0.00  0.00    -0.090 HD
ENDBRANCH   5  18
BRANCH   3  22
ATOM     22  C   LIG d   1      -3.096  80.795 112.438  0.00  0.00     0.382 C 
ATOM     23  O   LIG d   1      -3.413  79.582 112.479  0.00  0.00    -0.241 OA
ATOM     24  O   LIG d   1      -3.945  81.661 112.722  0.00  0.00    -0.241 OA
ENDBRANCH   3  22
TORSDOF 7
ENDMDL
MODEL 8
REMARK VINA RESULT:      -4.9      2.624      3.382
REMARK  7 active torsions:
REMARK  status: ('A' for Active; 'I' for Inactive)
REMARK    1  A    between atoms: C_2  and  C_3 
REMARK    2  A    between atoms: C_3  and  O_6 
REMARK    3  A    between atoms: C_3  and  C_4 
REMARK    4  A    between atoms: C_7  and  O_6 
REMARK    5  A    between atoms: C_9  and  C_10 
REMARK    6  A    between atoms: N_15  and  C_14 
REMARK    7  A    between atoms: N_20  and  C_19 
REMARK       I    between atoms: C_22  and  N_20 
ROOT
ATOM      1  C   LIG d   1       0.524  83.508 112.354  0.00  0.00     0.161 C 
ATOM      2  C   LIG d   1      -0.544  82.693 111.944  0.00  0.00     0.016 C 
ATOM      3  C   LIG d   1      -1.646  82.380 112.772  0.00  0.00     0.038 C 
ATOM      4  C   LIG d   1      -1.830  82.988 114.023  0.00  0.00     0.028 C 
ATOM      5  C   LIG d   1      -0.526  83.425 114.682  0.00  0.00    -0.047 C 
ATOM      6  C   LIG d   1       0.286  84.270 113.674  0.00  0.00     0.091 C 
ENDROOT
BRANCH   1   7
ATOM      7  O   LIG d   1       0.869  84.428 111.299  0.00  0.00    -0.368 OA
BRANCH   7   8
ATOM      8  C   LIG d   1       2.242  84.387 110.841  0.00  0.00     0.119 C 
BRANCH   8   9
ATOM      9  C   LIG d   1       2.759  85.838 110.796  0.00  0.00     0.028 C 
ATOM     10  C   LIG d   1       1.617  86.867 110.761  0.00  0.00     0.006 C 
ENDBRANCH   8   9
BRANCH   8  11
ATOM     11  C   LIG d   1       2.334  83.879 109.399  0.00  0.00     0.028 C 
ATOM     12  C   LIG d   1       2.324  82.345 109.306  0.00  0.00     0.006 C 
ENDBRANCH   8  11
ENDBRANCH   7   8
ENDBRANCH   1   7
BRANCH   6  13
ATOM     13  N   LIG d   1       1.614  84.668 114.210  0.00  0.00    -0.311 N 
ATOM     14  C   LIG d   1       1.965  85.933 114.435  0.00  0.00     0.210 C 
ATOM     15  C   LIG d   1       3.388  86.124 114.969  0.00  0.00     0.109 C 
ATOM     16  O   LIG d   1       1.222  86.912 114.274  0.00  0.00    -0.276 OA
ATOM     17  H   LIG d   1       2.269  83.934 114.398  0.00  0.00     0.149 HD
ENDBRANCH   6  13
BRANCH   5  18
ATOM     18  N   LIG d   1      -0.873  84.165 115.910  0.00  0.00     0.381 N 
ATOM     19  H   LIG d   1      -1.175  83.525 116.617  0.00  0.00    -0.090 HD
ATOM     20  H   LIG d   1      -1.632  84.792 115.708  0.00  0.00    -0.090 HD
ATOM     21  H   LIG d   1      -0.084  84.680 116.232  0.00  0.00    -0.090 HD
ENDBRANCH   5  18
BRANCH   3  22
ATOM     22  C   LIG d   1      -2.559  81.418 112.367  0.00  0.00     0.382 C 
ATOM     23  O   LIG d   1      -2.173  80.430 111.697  0.00  0.00    -0.241 OA
ATOM     24  O   LIG d   1      -3.771  81.548 112.625  0.00  0.00    -0.241 OA
ENDBRANCH   3  22
TORSDOF 7
ENDMDL
MODEL 9
REMARK VINA RESULT:      -4.9      4.182      6.587
REMARK  7 active torsions:
REMARK  status: ('A' for Active; 'I' for Inactive)
REMARK    1  A    between atoms: C_2  and  C_3 
REMARK    2  A    between atoms: C_3  and  O_6 
REMARK    3  A    between atoms: C_3  and  C_4 
REMARK    4  A    between atoms: C_7  and  O_6 
REMARK    5  A    between atoms: C_9  and  C_10 
REMARK    6  A    between atoms: N_15  and  C_14 
REMARK    7  A    between atoms: N_20  and  C_19 
REMARK       I    between atoms: C_22  and  N_20 
ROOT
ATOM      1  C   LIG d   1      -0.155  82.982 111.413  0.00  0.00     0.161 C 
ATOM      2  C   LIG d   1       1.092  82.771 110.800  0.00  0.00     0.016 C 
ATOM      3  C   LIG d   1       1.591  81.490 110.472  0.00  0.00     0.038 C 
ATOM      4  C   LIG d   1       0.806  80.334 110.597  0.00  0.00     0.028 C 
ATOM      5  C   LIG d   1      -0.264  80.443 111.678  0.00  0.00    -0.047 C 
ATOM      6  C   LIG d   1      -1.072  81.742 111.456  0.00  0.00     0.091 C 
ENDROOT
BRANCH   1   7
ATOM      7  O   LIG d   1      -0.832  84.084 110.777  0.00  0.00    -0.368 OA
BRANCH   7   8
ATOM      8  C   LIG d   1      -0.974  85.288 111.571  0.00  0.00     0.119 C 
BRANCH   8   9
ATOM      9  C   LIG d   1      -0.679  86.487 110.649  0.00  0.00     0.028 C 
ATOM     10  C   LIG d   1       0.821  86.643 110.351  0.00  0.00     0.006 C 
ENDBRANCH   8   9
BRANCH   8  11
ATOM     11  C   LIG d   1       0.084  85.355 112.676  0.00  0.00     0.028 C 
ATOM     12  C   LIG d   1      -0.513  85.682 114.054  0.00  0.00     0.006 C 
ENDBRANCH   8  11
ENDBRANCH   7   8
ENDBRANCH   1   7
BRANCH   6  13
ATOM     13  N   LIG d   1      -2.085  81.968 112.520  0.00  0.00    -0.311 N 
ATOM     14  C   LIG d   1      -1.778  82.099 113.809  0.00  0.00     0.210 C 
ATOM     15  C   LIG d   1      -2.975  82.305 114.741  0.00  0.00     0.109 C 
ATOM     16  O   LIG d   1      -0.624  82.095 114.265  0.00  0.00    -0.276 OA
ATOM     17  H   LIG d   1      -3.044  82.015 112.234  0.00  0.00     0.149 HD
ENDBRANCH   6  13
BRANCH   5  18
ATOM     18  N   LIG d   1      -1.095  79.226 111.607  0.00  0.00     0.381 N 
ATOM     19  H   LIG d   1      -0.714  78.595 110.930  0.00  0.00    -0.090 HD
ATOM     20  H   LIG d   1      -2.021  79.481 111.314  0.00  0.00    -0.090 HD
ATOM     21  H   LIG d   1      -1.131  78.785 112.500  0.00  0.00    -0.090 HD
ENDBRANCH   5  18
BRANCH   3  22
ATOM     22  C   LIG d   1       2.904  81.352 110.048  0.00  0.00     0.382 C 
ATOM     23  O   LIG d   1       3.736  82.262 110.279  0.00  0.00    -0.241 OA
ATOM     24  O   LIG d   1       3.256  80.348 109.400  0.00  0.00    -0.241 OA
ENDBRANCH   3  22
TORSDOF 7
ENDMDL
