MODEL 1
REMARK VINA RESULT:      -6.6      0.000      0.000
REMARK  7 active torsions:
REMARK  status: ('A' for Active; 'I' for Inactive)
REMARK    1  A    between atoms: C_2  and  C_3 
REMARK    2  A    between atoms: C_3  and  O_6 
REMARK    3  A    between atoms: C_3  and  C_4 
REMARK    4  A    between atoms: C_7  and  O_6 
REMARK    5  A    between atoms: C_9  and  C_10 
REMARK    6  A    between atoms: N_15  and  C_14 
REMARK    7  A    between atoms: N_20  and  C_19 
REMARK       I    between atoms: C_22  and  N_20 
ROOT
ATOM      1  C   LIG d   1       2.045  83.637 111.363  0.00  0.00     0.161 C 
ATOM      2  C   LIG d   1       1.024  82.674 111.303  0.00  0.00     0.016 C 
ATOM      3  C   LIG d   1      -0.268  82.875 111.840  0.00  0.00     0.038 C 
ATOM      4  C   LIG d   1      -0.677  84.119 112.344  0.00  0.00     0.028 C 
ATOM      5  C   LIG d   1       0.474  84.962 112.883  0.00  0.00    -0.047 C 
ATOM      6  C   LIG d   1       1.584  85.041 111.810  0.00  0.00     0.091 C 
ENDROOT
BRANCH   1   7
ATOM      7  O   LIG d   1       2.721  83.713 110.093  0.00  0.00    -0.368 OA
BRANCH   7   8
ATOM      8  C   LIG d   1       2.030  83.118 108.967  0.00  0.00     0.119 C 
BRANCH   8   9
ATOM      9  C   LIG d   1       3.093  82.460 108.066  0.00  0.00     0.028 C 
ATOM     10  C   LIG d   1       4.507  82.548 108.666  0.00  0.00     0.006 C 
ENDBRANCH   8   9
BRANCH   8  11
ATOM     11  C   LIG d   1       1.365  84.187 108.094  0.00  0.00     0.028 C 
ATOM     12  C   LIG d   1       1.445  83.865 106.593  0.00  0.00     0.006 C 
ENDBRANCH   8  11
ENDBRANCH   7   8
ENDBRANCH   1   7
BRANCH   6  13
ATOM     13  N   LIG d   1       2.783  85.777 112.288  0.00  0.00    -0.311 N 
ATOM     14  C   LIG d   1       2.989  87.072 112.056  0.00  0.00     0.210 C 
ATOM     15  C   LIG d   1       4.299  87.630 112.620  0.00  0.00     0.109 C 
ATOM     16  O   LIG d   1       2.195  87.820 111.464  0.00  0.00    -0.276 OA
ATOM     17  H   LIG d   1       3.464  85.254 112.803  0.00  0.00     0.149 HD
ENDBRANCH   6  13
BRANCH   5  18
ATOM     18  N   LIG d   1      -0.073  86.282 113.247  0.00  0.00     0.381 N 
ATOM     19  H   LIG d   1      -0.949  86.168 113.716  0.00  0.00    -0.090 HD
ATOM     20  H   LIG d   1      -0.231  86.811 112.408  0.00  0.00    -0.090 HD
ATOM     21  H   LIG d   1       0.568  86.765 113.838  0.00  0.00    -0.090 HD
ENDBRANCH   5  18
BRANCH   3  22
ATOM     22  C   LIG d   1      -1.155  81.812 111.913  0.00  0.00     0.382 C 
ATOM     23  O   LIG d   1      -0.808  80.676 111.507  0.00  0.00    -0.241 OA
ATOM     24  O   LIG d   1      -2.313  81.983 112.338  0.00  0.00    -0.241 OA
ENDBRANCH   3  22
TORSDOF 7
ENDMDL
MODEL 2
REMARK VINA RESULT:      -6.4      2.803      4.779
REMARK  7 active torsions:
REMARK  status: ('A' for Active; 'I' for Inactive)
REMARK    1  A    between atoms: C_2  and  C_3 
REMARK    2  A    between atoms: C_3  and  O_6 
REMARK    3  A    between atoms: C_3  and  C_4 
REMARK    4  A    between atoms: C_7  and  O_6 
REMARK    5  A    between atoms: C_9  and  C_10 
REMARK    6  A    between atoms: N_15  and  C_14 
REMARK    7  A    between atoms: N_20  and  C_19 
REMARK       I    between atoms: C_22  and  N_20 
ROOT
ATOM      1  C   LIG d   1       0.262  82.256 111.080  0.00  0.00     0.161 C 
ATOM      2  C   LIG d   1      -0.864  82.037 111.891  0.00  0.00     0.016 C 
ATOM      3  C   LIG d   1      -1.434  80.760 112.103  0.00  0.00     0.038 C 
ATOM      4  C   LIG d   1      -0.821  79.588 111.637  0.00  0.00     0.028 C 
ATOM      5  C   LIG d   1       0.034  79.805 110.394  0.00  0.00    -0.047 C 
ATOM      6  C   LIG d   1       1.010  80.975 110.653  0.00  0.00     0.091 C 
ENDROOT
BRANCH   1   7
ATOM      7  O   LIG d   1       1.165  83.169 111.734  0.00  0.00    -0.368 OA
BRANCH   7   8
ATOM      8  C   LIG d   1       1.263  84.493 111.154  0.00  0.00     0.119 C 
BRANCH   8   9
ATOM      9  C   LIG d   1       0.290  84.549 109.961  0.00  0.00     0.028 C 
ATOM     10  C   LIG d   1      -0.791  85.630 110.135  0.00  0.00     0.006 C 
ENDBRANCH   8   9
BRANCH   8  11
ATOM     11  C   LIG d   1       2.652  84.737 110.556  0.00  0.00     0.028 C 
ATOM     12  C   LIG d   1       3.289  86.048 111.044  0.00  0.00     0.006 C 
ENDBRANCH   8  11
ENDBRANCH   7   8
ENDBRANCH   1   7
BRANCH   6  13
ATOM     13  N   LIG d   1       1.826  81.309 109.457  0.00  0.00    -0.311 N 
ATOM     14  C   LIG d   1       3.158  81.334 109.462  0.00  0.00     0.210 C 
ATOM     15  C   LIG d   1       3.802  81.722 108.127  0.00  0.00     0.109 C 
ATOM     16  O   LIG d   1       3.867  81.040 110.436  0.00  0.00    -0.276 OA
ATOM     17  H   LIG d   1       1.332  81.530 108.615  0.00  0.00     0.149 HD
ENDBRANCH   6  13
BRANCH   5  18
ATOM     18  N   LIG d   1       0.722  78.534 110.098  0.00  0.00     0.381 N 
ATOM     19  H   LIG d   1       0.695  77.939 110.902  0.00  0.00    -0.090 HD
ATOM     20  H   LIG d   1       1.684  78.727 109.881  0.00  0.00    -0.090 HD
ATOM     21  H   LIG d   1       0.285  78.081 109.326  0.00  0.00    -0.090 HD
ENDBRANCH   5  18
BRANCH   3  22
ATOM     22  C   LIG d   1      -2.653  80.652 112.756  0.00  0.00     0.382 C 
ATOM     23  O   LIG d   1      -3.506  81.565 112.648  0.00  0.00    -0.241 OA
ATOM     24  O   LIG d   1      -2.892  79.672 113.488  0.00  0.00    -0.241 OA
ENDBRANCH   3  22
TORSDOF 7
ENDMDL
MODEL 3
REMARK VINA RESULT:      -6.2      2.434      5.252
REMARK  7 active torsions:
REMARK  status: ('A' for Active; 'I' for Inactive)
REMARK    1  A    between atoms: C_2  and  C_3 
REMARK    2  A    between atoms: C_3  and  O_6 
REMARK    3  A    between atoms: C_3  and  C_4 
REMARK    4  A    between atoms: C_7  and  O_6 
REMARK    5  A    between atoms: C_9  and  C_10 
REMARK    6  A    between atoms: N_15  and  C_14 
REMARK    7  A    between atoms: N_20  and  C_19 
REMARK       I    between atoms: C_22  and  N_20 
ROOT
ATOM      1  C   LIG d   1       1.390  82.582 109.975  0.00  0.00     0.161 C 
ATOM      2  C   LIG d   1       1.609  83.966 110.087  0.00  0.00     0.016 C 
ATOM      3  C   LIG d   1       0.800  84.821 110.870  0.00  0.00     0.038 C 
ATOM      4  C   LIG d   1      -0.199  84.323 111.721  0.00  0.00     0.028 C 
ATOM      5  C   LIG d   1      -0.783  82.993 111.256  0.00  0.00    -0.047 C 
ATOM      6  C   LIG d   1       0.374  82.005 110.983  0.00  0.00     0.091 C 
ENDROOT
BRANCH   1   7
ATOM      7  O   LIG d   1       2.645  81.880 110.071  0.00  0.00    -0.368 OA
BRANCH   7   8
ATOM      8  C   LIG d   1       3.710  82.570 110.769  0.00  0.00     0.119 C 
BRANCH   8   9
ATOM      9  C   LIG d   1       4.978  82.465 109.899  0.00  0.00     0.028 C 
ATOM     10  C   LIG d   1       4.669  82.567 108.396  0.00  0.00     0.006 C 
ENDBRANCH   8   9
BRANCH   8  11
ATOM     11  C   LIG d   1       4.061  81.868 112.084  0.00  0.00     0.028 C 
ATOM     12  C   LIG d   1       3.254  82.401 113.278  0.00  0.00     0.006 C 
ENDBRANCH   8  11
ENDBRANCH   7   8
ENDBRANCH   1   7
BRANCH   6  13
ATOM     13  N   LIG d   1      -0.106  80.706 110.443  0.00  0.00    -0.311 N 
ATOM     14  C   LIG d   1      -0.498  79.692 111.213  0.00  0.00     0.210 C 
ATOM     15  C   LIG d   1      -0.937  78.436 110.455  0.00  0.00     0.109 C 
ATOM     16  O   LIG d   1      -0.556  79.726 112.452  0.00  0.00    -0.276 OA
ATOM     17  H   LIG d   1      -0.121  80.603 109.448  0.00  0.00     0.149 HD
ENDBRANCH   6  13
BRANCH   5  18
ATOM     18  N   LIG d   1      -1.710  82.523 112.302  0.00  0.00     0.381 N 
ATOM     19  H   LIG d   1      -2.641  82.486 111.938  0.00  0.00    -0.090 HD
ATOM     20  H   LIG d   1      -1.696  83.176 113.066  0.00  0.00    -0.090 HD
ATOM     21  H   LIG d   1      -1.434  81.621 112.622  0.00  0.00    -0.090 HD
ENDBRANCH   5  18
BRANCH   3  22
ATOM     22  C   LIG d   1       0.961  86.195 110.777  0.00  0.00     0.382 C 
ATOM     23  O   LIG d   1       0.045  86.961 111.163  0.00  0.00    -0.241 OA
ATOM     24  O   LIG d   1       1.991  86.677 110.270  0.00  0.00    -0.241 OA
ENDBRANCH   3  22
TORSDOF 7
ENDMDL
MODEL 4
REMARK VINA RESULT:      -6.2      3.063      6.420
REMARK  7 active torsions:
REMARK  status: ('A' for Active; 'I' for Inactive)
REMARK    1  A    between atoms: C_2  and  C_3 
REMARK    2  A    between atoms: C_3  and  O_6 
REMARK    3  A    between atoms: C_3  and  C_4 
REMARK    4  A    between atoms: C_7  and  O_6 
REMARK    5  A    between atoms: C_9  and  C_10 
REMARK    6  A    between atoms: N_15  and  C_14 
REMARK    7  A    between atoms: N_20  and  C_19 
REMARK       I    between atoms: C_22  and  N_20 
ROOT
ATOM      1  C   LIG d   1       0.572  82.137 110.856  0.00  0.00     0.161 C 
ATOM      2  C   LIG d   1       1.411  82.678 109.867  0.00  0.00     0.016 C 
ATOM      3  C   LIG d   1       2.093  81.892 108.910  0.00  0.00     0.038 C 
ATOM      4  C   LIG d   1       1.863  80.514 108.782  0.00  0.00     0.028 C 
ATOM      5  C   LIG d   1       1.412  79.852 110.080  0.00  0.00    -0.047 C 
ATOM      6  C   LIG d   1       0.221  80.647 110.662  0.00  0.00     0.091 C 
ENDROOT
BRANCH   1   7
ATOM      7  O   LIG d   1      -0.630  82.925 110.962  0.00  0.00    -0.368 OA
BRANCH   7   8
ATOM      8  C   LIG d   1      -0.714  83.810 112.106  0.00  0.00     0.119 C 
BRANCH   8   9
ATOM      9  C   LIG d   1      -0.563  85.253 111.588  0.00  0.00     0.028 C 
ATOM     10  C   LIG d   1      -1.025  85.404 110.129  0.00  0.00     0.006 C 
ENDBRANCH   8   9
BRANCH   8  11
ATOM     11  C   LIG d   1       0.464  83.597 113.062  0.00  0.00     0.028 C 
ATOM     12  C   LIG d   1       1.184  84.906 113.422  0.00  0.00     0.006 C 
ENDBRANCH   8  11
ENDBRANCH   7   8
ENDBRANCH   1   7
BRANCH   6  13
ATOM     13  N   LIG d   1      -0.227  80.116 111.976  0.00  0.00    -0.311 N 
ATOM     14  C   LIG d   1      -1.259  79.286 112.117  0.00  0.00     0.210 C 
ATOM     15  C   LIG d   1      -1.565  78.875 113.561  0.00  0.00     0.109 C 
ATOM     16  O   LIG d   1      -1.929  78.825 111.181  0.00  0.00    -0.276 OA
ATOM     17  H   LIG d   1       0.281  80.414 112.785  0.00  0.00     0.149 HD
ENDBRANCH   6  13
BRANCH   5  18
ATOM     18  N   LIG d   1       1.076  78.449 109.772  0.00  0.00     0.381 N 
ATOM     19  H   LIG d   1       0.084  78.349 109.690  0.00  0.00    -0.090 HD
ATOM     20  H   LIG d   1       1.391  77.866 110.527  0.00  0.00    -0.090 HD
ATOM     21  H   LIG d   1       1.516  78.172 108.922  0.00  0.00    -0.090 HD
ENDBRANCH   5  18
BRANCH   3  22
ATOM     22  C   LIG d   1       3.049  82.478 108.094  0.00  0.00     0.382 C 
ATOM     23  O   LIG d   1       2.696  83.098 107.062  0.00  0.00    -0.241 OA
ATOM     24  O   LIG d   1       4.261  82.358 108.353  0.00  0.00    -0.241 OA
ENDBRANCH   3  22
TORSDOF 7
ENDMDL
MODEL 5
REMARK VINA RESULT:      -5.7      2.695      4.615
REMARK  7 active torsions:
REMARK  status: ('A' for Active; 'I' for Inactive)
REMARK    1  A    between atoms: C_2  and  C_3 
REMARK    2  A    between atoms: C_3  and  O_6 
REMARK    3  A    between atoms: C_3  and  C_4 
REMARK    4  A    between atoms: C_7  and  O_6 
REMARK    5  A    between atoms: C_9  and  C_10 
REMARK    6  A    between atoms: N_15  and  C_14 
REMARK    7  A    between atoms: N_20  and  C_19 
REMARK       I    between atoms: C_22  and  N_20 
ROOT
ATOM      1  C   LIG d   1       0.571  82.823 111.010  0.00  0.00     0.161 C 
ATOM      2  C   LIG d   1      -0.614  82.431 111.654  0.00  0.00     0.016 C 
ATOM      3  C   LIG d   1      -1.023  81.084 111.778  0.00  0.00     0.038 C 
ATOM      4  C   LIG d   1      -0.194  80.019 111.395  0.00  0.00     0.028 C 
ATOM      5  C   LIG d   1       0.785  80.383 110.284  0.00  0.00    -0.047 C 
ATOM      6  C   LIG d   1       1.543  81.669 110.684  0.00  0.00     0.091 C 
ENDROOT
BRANCH   1   7
ATOM      7  O   LIG d   1       1.239  83.836 111.788  0.00  0.00    -0.368 OA
BRANCH   7   8
ATOM      8  C   LIG d   1       1.204  85.180 111.250  0.00  0.00     0.119 C 
BRANCH   8   9
ATOM      9  C   LIG d   1       0.342  86.036 112.199  0.00  0.00     0.028 C 
ATOM     10  C   LIG d   1       0.540  85.655 113.676  0.00  0.00     0.006 C 
ENDBRANCH   8   9
BRANCH   8  11
ATOM     11  C   LIG d   1       0.483  85.221 109.900  0.00  0.00     0.028 C 
ATOM     12  C   LIG d   1      -0.945  85.781 110.003  0.00  0.00     0.006 C 
ENDBRANCH   8  11
ENDBRANCH   7   8
ENDBRANCH   1   7
BRANCH   6  13
ATOM     13  N   LIG d   1       2.461  82.142 109.615  0.00  0.00    -0.311 N 
ATOM     14  C   LIG d   1       3.757  81.839 109.575  0.00  0.00     0.210 C 
ATOM     15  C   LIG d   1       4.527  82.446 108.398  0.00  0.00     0.109 C 
ATOM     16  O   LIG d   1       4.336  81.099 110.384  0.00  0.00    -0.276 OA
ATOM     17  H   LIG d   1       2.068  82.723 108.900  0.00  0.00     0.149 HD
ENDBRANCH   6  13
BRANCH   5  18
ATOM     18  N   LIG d   1       1.678  79.226 110.080  0.00  0.00     0.381 N 
ATOM     19  H   LIG d   1       1.211  78.530 109.534  0.00  0.00    -0.090 HD
ATOM     20  H   LIG d   1       1.902  78.827 110.975  0.00  0.00    -0.090 HD
ATOM     21  H   LIG d   1       2.512  79.516 109.619  0.00  0.00    -0.090 HD
ENDBRANCH   5  18
BRANCH   3  22
ATOM     22  C   LIG d   1      -2.292  80.792 112.254  0.00  0.00     0.382 C 
ATOM     23  O   LIG d   1      -3.054  81.720 112.616  0.00  0.00    -0.241 OA
ATOM     24  O   LIG d   1      -2.668  79.610 112.367  0.00  0.00    -0.241 OA
ENDBRANCH   3  22
TORSDOF 7
ENDMDL
MODEL 6
REMARK VINA RESULT:      -5.3      3.228      5.926
REMARK  7 active torsions:
REMARK  status: ('A' for Active; 'I' for Inactive)
REMARK    1  A    between atoms: C_2  and  C_3 
REMARK    2  A    between atoms: C_3  and  O_6 
REMARK    3  A    between atoms: C_3  and  C_4 
REMARK    4  A    between atoms: C_7  and  O_6 
REMARK    5  A    between atoms: C_9  and  C_10 
REMARK    6  A    between atoms: N_15  and  C_14 
REMARK    7  A    between atoms: N_20  and  C_19 
REMARK       I    between atoms: C_22  and  N_20 
ROOT
ATOM      1  C   LIG d   1       1.750  82.578 110.854  0.00  0.00     0.161 C 
ATOM      2  C   LIG d   1       2.580  82.842 111.957  0.00  0.00     0.016 C 
ATOM      3  C   LIG d   1       3.877  82.299 112.101  0.00  0.00     0.038 C 
ATOM      4  C   LIG d   1       4.495  81.571 111.073  0.00  0.00     0.028 C 
ATOM      5  C   LIG d   1       3.507  80.859 110.156  0.00  0.00    -0.047 C 
ATOM      6  C   LIG d   1       2.449  81.877 109.671  0.00  0.00     0.091 C 
ENDROOT
BRANCH   1   7
ATOM      7  O   LIG d   1       1.122  83.798 110.413  0.00  0.00    -0.368 OA
BRANCH   7   8
ATOM      8  C   LIG d   1      -0.292  83.927 110.701  0.00  0.00     0.119 C 
BRANCH   8   9
ATOM      9  C   LIG d   1      -0.793  85.204 109.999  0.00  0.00     0.028 C 
ATOM     10  C   LIG d   1       0.249  85.789 109.032  0.00  0.00     0.006 C 
ENDBRANCH   8   9
BRANCH   8  11
ATOM     11  C   LIG d   1      -0.538  84.163 112.195  0.00  0.00     0.028 C 
ATOM     12  C   LIG d   1      -0.645  85.653 112.553  0.00  0.00     0.006 C 
ENDBRANCH   8  11
ENDBRANCH   7   8
ENDBRANCH   1   7
BRANCH   6  13
ATOM     13  N   LIG d   1       1.395  81.245 108.836  0.00  0.00    -0.311 N 
ATOM     14  C   LIG d   1       0.576  80.295 109.284  0.00  0.00     0.210 C 
ATOM     15  C   LIG d   1      -0.425  79.765 108.253  0.00  0.00     0.109 C 
ATOM     16  O   LIG d   1       0.563  79.863 110.447  0.00  0.00    -0.276 OA
ATOM     17  H   LIG d   1       1.315  81.558 107.888  0.00  0.00     0.149 HD
ENDBRANCH   6  13
BRANCH   5  18
ATOM     18  N   LIG d   1       4.277  80.256 109.052  0.00  0.00     0.381 N 
ATOM     19  H   LIG d   1       4.769  80.970 108.552  0.00  0.00    -0.090 HD
ATOM     20  H   LIG d   1       3.640  79.808 108.418  0.00  0.00    -0.090 HD
ATOM     21  H   LIG d   1       4.923  79.588 109.412  0.00  0.00    -0.090 HD
ENDBRANCH   5  18
BRANCH   3  22
ATOM     22  C   LIG d   1       4.555  82.448 113.301  0.00  0.00     0.382 C 
ATOM     23  O   LIG d   1       4.819  81.442 114.002  0.00  0.00    -0.241 OA
ATOM     24  O   LIG d   1       4.867  83.582 113.714  0.00  0.00    -0.241 OA
ENDBRANCH   3  22
TORSDOF 7
ENDMDL
MODEL 7
REMARK VINA RESULT:      -5.1      2.867      5.190
REMARK  7 active torsions:
REMARK  status: ('A' for Active; 'I' for Inactive)
REMARK    1  A    between atoms: C_2  and  C_3 
REMARK    2  A    between atoms: C_3  and  O_6 
REMARK    3  A    between atoms: C_3  and  C_4 
REMARK    4  A    between atoms: C_7  and  O_6 
REMARK    5  A    between atoms: C_9  and  C_10 
REMARK    6  A    between atoms: N_15  and  C_14 
REMARK    7  A    between atoms: N_20  and  C_19 
REMARK       I    between atoms: C_22  and  N_20 
ROOT
ATOM      1  C   LIG d   1       1.029  82.296 111.665  0.00  0.00     0.161 C 
ATOM      2  C   LIG d   1       0.293  83.381 112.170  0.00  0.00     0.016 C 
ATOM      3  C   LIG d   1      -0.102  84.487 111.383  0.00  0.00     0.038 C 
ATOM      4  C   LIG d   1       0.083  84.511 109.992  0.00  0.00     0.028 C 
ATOM      5  C   LIG d   1       1.266  83.671 109.524  0.00  0.00    -0.047 C 
ATOM      6  C   LIG d   1       1.144  82.253 110.127  0.00  0.00     0.091 C 
ENDROOT
BRANCH   1   7
ATOM      7  O   LIG d   1       0.480  81.060 112.162  0.00  0.00    -0.368 OA
BRANCH   7   8
ATOM      8  C   LIG d   1      -0.703  80.570 111.484  0.00  0.00     0.119 C 
BRANCH   8   9
ATOM      9  C   LIG d   1      -1.702  80.115 112.565  0.00  0.00     0.028 C 
ATOM     10  C   LIG d   1      -2.950  81.011 112.625  0.00  0.00     0.006 C 
ENDBRANCH   8   9
BRANCH   8  11
ATOM     11  C   LIG d   1      -0.394  79.315 110.662  0.00  0.00     0.028 C 
ATOM     12  C   LIG d   1      -1.401  78.180 110.908  0.00  0.00     0.006 C 
ENDBRANCH   8  11
ENDBRANCH   7   8
ENDBRANCH   1   7
BRANCH   6  13
ATOM     13  N   LIG d   1       2.306  81.390 109.787  0.00  0.00    -0.311 N 
ATOM     14  C   LIG d   1       3.558  81.676 110.137  0.00  0.00     0.210 C 
ATOM     15  C   LIG d   1       4.608  80.663 109.668  0.00  0.00     0.109 C 
ATOM     16  O   LIG d   1       3.896  82.657 110.817  0.00  0.00    -0.276 OA
ATOM     17  H   LIG d   1       2.118  80.558 109.263  0.00  0.00     0.149 HD
ENDBRANCH   6  13
BRANCH   5  18
ATOM     18  N   LIG d   1       1.260  83.674 108.049  0.00  0.00     0.381 N 
ATOM     19  H   LIG d   1       1.411  82.746 107.707  0.00  0.00    -0.090 HD
ATOM     20  H   LIG d   1       2.010  84.257 107.722  0.00  0.00    -0.090 HD
ATOM     21  H   LIG d   1       0.389  84.022 107.713  0.00  0.00    -0.090 HD
ENDBRANCH   5  18
BRANCH   3  22
ATOM     22  C   LIG d   1      -0.654  85.603 111.993  0.00  0.00     0.382 C 
ATOM     23  O   LIG d   1      -1.589  86.225 111.433  0.00  0.00    -0.241 OA
ATOM     24  O   LIG d   1      -0.200  86.021 113.075  0.00  0.00    -0.241 OA
ENDBRANCH   3  22
TORSDOF 7
ENDMDL
MODEL 8
REMARK VINA RESULT:      -5.0      2.610      3.875
REMARK  7 active torsions:
REMARK  status: ('A' for Active; 'I' for Inactive)
REMARK    1  A    between atoms: C_2  and  C_3 
REMARK    2  A    between atoms: C_3  and  O_6 
REMARK    3  A    between atoms: C_3  and  C_4 
REMARK    4  A    between atoms: C_7  and  O_6 
REMARK    5  A    between atoms: C_9  and  C_10 
REMARK    6  A    between atoms: N_15  and  C_14 
REMARK    7  A    between atoms: N_20  and  C_19 
REMARK       I    between atoms: C_22  and  N_20 
ROOT
ATOM      1  C   LIG d   1       1.058  82.893 110.274  0.00  0.00     0.161 C 
ATOM      2  C   LIG d   1       1.592  81.693 109.775  0.00  0.00     0.016 C 
ATOM      3  C   LIG d   1       1.081  80.417 110.107  0.00  0.00     0.038 C 
ATOM      4  C   LIG d   1      -0.100  80.261 110.847  0.00  0.00     0.028 C 
ATOM      5  C   LIG d   1      -0.383  81.425 111.790  0.00  0.00    -0.047 C 
ATOM      6  C   LIG d   1      -0.299  82.747 110.994  0.00  0.00     0.091 C 
ENDROOT
BRANCH   1   7
ATOM      7  O   LIG d   1       0.961  83.864 109.213  0.00  0.00    -0.368 OA
BRANCH   7   8
ATOM      8  C   LIG d   1       1.840  85.011 109.316  0.00  0.00     0.119 C 
BRANCH   8   9
ATOM      9  C   LIG d   1       2.897  84.689 110.390  0.00  0.00     0.028 C 
ATOM     10  C   LIG d   1       4.216  84.182 109.782  0.00  0.00     0.006 C 
ENDBRANCH   8   9
BRANCH   8  11
ATOM     11  C   LIG d   1       1.091  86.240 109.840  0.00  0.00     0.028 C 
ATOM     12  C   LIG d   1       1.855  86.973 110.954  0.00  0.00     0.006 C 
ENDBRANCH   8  11
ENDBRANCH   7   8
ENDBRANCH   1   7
BRANCH   6  13
ATOM     13  N   LIG d   1      -0.480  83.942 111.859  0.00  0.00    -0.311 N 
ATOM     14  C   LIG d   1       0.298  84.215 112.905  0.00  0.00     0.210 C 
ATOM     15  C   LIG d   1      -0.074  85.486 113.674  0.00  0.00     0.109 C 
ATOM     16  O   LIG d   1       1.280  83.541 113.250  0.00  0.00    -0.276 OA
ATOM     17  H   LIG d   1      -1.235  84.560 111.631  0.00  0.00     0.149 HD
ENDBRANCH   6  13
BRANCH   5  18
ATOM     18  N   LIG d   1      -1.709  81.197 112.394  0.00  0.00     0.381 N 
ATOM     19  H   LIG d   1      -2.122  82.073 112.646  0.00  0.00    -0.090 HD
ATOM     20  H   LIG d   1      -1.597  80.650 113.229  0.00  0.00    -0.090 HD
ATOM     21  H   LIG d   1      -2.299  80.717 111.750  0.00  0.00    -0.090 HD
ENDBRANCH   5  18
BRANCH   3  22
ATOM     22  C   LIG d   1       1.778  79.279 109.730  0.00  0.00     0.382 C 
ATOM     23  O   LIG d   1       1.193  78.170 109.690  0.00  0.00    -0.241 OA
ATOM     24  O   LIG d   1       2.996  79.340 109.474  0.00  0.00    -0.241 OA
ENDBRANCH   3  22
TORSDOF 7
ENDMDL
MODEL 9
REMARK VINA RESULT:      -4.8     24.771     27.551
REMARK  7 active torsions:
REMARK  status: ('A' for Active; 'I' for Inactive)
REMARK    1  A    between atoms: C_2  and  C_3 
REMARK    2  A    between atoms: C_3  and  O_6 
REMARK    3  A    between atoms: C_3  and  C_4 
REMARK    4  A    between atoms: C_7  and  O_6 
REMARK    5  A    between atoms: C_9  and  C_10 
REMARK    6  A    between atoms: N_15  and  C_14 
REMARK    7  A    between atoms: N_20  and  C_19 
REMARK       I    between atoms: C_22  and  N_20 
ROOT
ATOM      1  C   LIG d   1     -25.694  85.915 112.873  0.00  0.00     0.161 C 
ATOM      2  C   LIG d   1     -24.564  86.664 113.241  0.00  0.00     0.016 C 
ATOM      3  C   LIG d   1     -23.310  86.085 113.542  0.00  0.00     0.038 C 
ATOM      4  C   LIG d   1     -23.058  84.719 113.347  0.00  0.00     0.028 C 
ATOM      5  C   LIG d   1     -24.307  83.851 113.461  0.00  0.00    -0.047 C 
ATOM      6  C   LIG d   1     -25.409  84.434 112.547  0.00  0.00     0.091 C 
ENDROOT
BRANCH   1   7
ATOM      7  O   LIG d   1     -26.363  86.552 111.766  0.00  0.00    -0.368 OA
BRANCH   7   8
ATOM      8  C   LIG d   1     -27.536  87.335 112.097  0.00  0.00     0.119 C 
BRANCH   8   9
ATOM      9  C   LIG d   1     -28.768  86.429 111.902  0.00  0.00     0.028 C 
ATOM     10  C   LIG d   1     -28.822  85.807 110.497  0.00  0.00     0.006 C 
ENDBRANCH   8   9
BRANCH   8  11
ATOM     11  C   LIG d   1     -27.727  88.494 111.114  0.00  0.00     0.028 C 
ATOM     12  C   LIG d   1     -26.488  88.744 110.240  0.00  0.00     0.006 C 
ENDBRANCH   8  11
ENDBRANCH   7   8
ENDBRANCH   1   7
BRANCH   6  13
ATOM     13  N   LIG d   1     -26.692  83.693 112.663  0.00  0.00    -0.311 N 
ATOM     14  C   LIG d   1     -27.062  82.732 111.818  0.00  0.00     0.210 C 
ATOM     15  C   LIG d   1     -28.433  82.111 112.106  0.00  0.00     0.109 C 
ATOM     16  O   LIG d   1     -26.372  82.312 110.877  0.00  0.00    -0.276 OA
ATOM     17  H   LIG d   1     -27.300  83.948 113.417  0.00  0.00     0.149 HD
ENDBRANCH   6  13
BRANCH   5  18
ATOM     18  N   LIG d   1     -23.926  82.472 113.100  0.00  0.00     0.381 N 
ATOM     19  H   LIG d   1     -24.405  82.196 112.266  0.00  0.00    -0.090 HD
ATOM     20  H   LIG d   1     -24.202  81.854 113.842  0.00  0.00    -0.090 HD
ATOM     21  H   LIG d   1     -22.941  82.416 112.960  0.00  0.00    -0.090 HD
ENDBRANCH   5  18
BRANCH   3  22
ATOM     22  C   LIG d   1     -22.302  86.870 114.082  0.00  0.00     0.382 C 
ATOM     23  O   LIG d   1     -22.522  88.076 114.349  0.00  0.00    -0.241 OA
ATOM     24  O   LIG d   1     -21.164  86.398 114.264  0.00  0.00    -0.241 OA
ENDBRANCH   3  22
TORSDOF 7
ENDMDL
