MODEL 1
REMARK VINA RESULT:      -5.6      0.000      0.000
REMARK  7 active torsions:
REMARK  status: ('A' for Active; 'I' for Inactive)
REMARK    1  A    between atoms: C_2  and  C_3 
REMARK    2  A    between atoms: C_3  and  O_6 
REMARK    3  A    between atoms: C_3  and  C_4 
REMARK    4  A    between atoms: C_7  and  O_6 
REMARK    5  A    between atoms: C_9  and  C_10 
REMARK    6  A    between atoms: N_15  and  C_14 
REMARK    7  A    between atoms: N_20  and  C_19 
REMARK       I    between atoms: C_22  and  N_20 
ROOT
ATOM      1  C   LIG d   1      -2.442  80.391 114.380  0.00  0.00     0.161 C 
ATOM      2  C   LIG d   1      -2.070  81.599 113.768  0.00  0.00     0.016 C 
ATOM      3  C   LIG d   1      -1.526  81.676 112.465  0.00  0.00     0.038 C 
ATOM      4  C   LIG d   1      -1.457  80.557 111.623  0.00  0.00     0.028 C 
ATOM      5  C   LIG d   1      -1.352  79.236 112.378  0.00  0.00    -0.047 C 
ATOM      6  C   LIG d   1      -2.478  79.172 113.435  0.00  0.00     0.091 C 
ENDROOT
BRANCH   1   7
ATOM      7  O   LIG d   1      -3.713  80.550 115.042  0.00  0.00    -0.368 OA
BRANCH   7   8
ATOM      8  C   LIG d   1      -3.686  80.511 116.490  0.00  0.00     0.119 C 
BRANCH   8   9
ATOM      9  C   LIG d   1      -5.004  79.865 116.960  0.00  0.00     0.028 C 
ATOM     10  C   LIG d   1      -4.975  78.331 116.857  0.00  0.00     0.006 C 
ENDBRANCH   8   9
BRANCH   8  11
ATOM     11  C   LIG d   1      -3.691  81.922 117.085  0.00  0.00     0.028 C 
ATOM     12  C   LIG d   1      -2.451  82.211 117.945  0.00  0.00     0.006 C 
ENDBRANCH   8  11
ENDBRANCH   7   8
ENDBRANCH   1   7
BRANCH   6  13
ATOM     13  N   LIG d   1      -2.397  77.949 114.276  0.00  0.00    -0.311 N 
ATOM     14  C   LIG d   1      -3.070  76.831 114.011  0.00  0.00     0.210 C 
ATOM     15  C   LIG d   1      -2.859  75.695 115.017  0.00  0.00     0.109 C 
ATOM     16  O   LIG d   1      -3.798  76.661 113.021  0.00  0.00    -0.276 OA
ATOM     17  H   LIG d   1      -1.805  77.988 115.083  0.00  0.00     0.149 HD
ENDBRANCH   6  13
BRANCH   5  18
ATOM     18  N   LIG d   1      -1.427  78.148 111.386  0.00  0.00     0.381 N 
ATOM     19  H   LIG d   1      -2.001  78.430 110.616  0.00  0.00    -0.090 HD
ATOM     20  H   LIG d   1      -1.850  77.344 111.816  0.00  0.00    -0.090 HD
ATOM     21  H   LIG d   1      -0.514  77.918 111.061  0.00  0.00    -0.090 HD
ENDBRANCH   5  18
BRANCH   3  22
ATOM     22  C   LIG d   1      -1.007  82.878 112.007  0.00  0.00     0.382 C 
ATOM     23  O   LIG d   1      -1.065  83.161 110.786  0.00  0.00    -0.241 OA
ATOM     24  O   LIG d   1      -0.441  83.662 112.792  0.00  0.00    -0.241 OA
ENDBRANCH   3  22
TORSDOF 7
ENDMDL
MODEL 2
REMARK VINA RESULT:      -5.1      1.348      2.199
REMARK  7 active torsions:
REMARK  status: ('A' for Active; 'I' for Inactive)
REMARK    1  A    between atoms: C_2  and  C_3 
REMARK    2  A    between atoms: C_3  and  O_6 
REMARK    3  A    between atoms: C_3  and  C_4 
REMARK    4  A    between atoms: C_7  and  O_6 
REMARK    5  A    between atoms: C_9  and  C_10 
REMARK    6  A    between atoms: N_15  and  C_14 
REMARK    7  A    between atoms: N_20  and  C_19 
REMARK       I    between atoms: C_22  and  N_20 
ROOT
ATOM      1  C   LIG d   1      -0.656  80.263 114.460  0.00  0.00     0.161 C 
ATOM      2  C   LIG d   1      -0.789  81.542 113.893  0.00  0.00     0.016 C 
ATOM      3  C   LIG d   1      -1.146  81.761 112.543  0.00  0.00     0.038 C 
ATOM      4  C   LIG d   1      -1.544  80.712 111.701  0.00  0.00     0.028 C 
ATOM      5  C   LIG d   1      -0.940  79.365 112.085  0.00  0.00    -0.047 C 
ATOM      6  C   LIG d   1      -1.196  79.110 113.588  0.00  0.00     0.091 C 
ENDROOT
BRANCH   1   7
ATOM      7  O   LIG d   1      -1.276  80.239 115.761  0.00  0.00    -0.368 OA
BRANCH   7   8
ATOM      8  C   LIG d   1      -2.078  81.396 116.107  0.00  0.00     0.119 C 
BRANCH   8   9
ATOM      9  C   LIG d   1      -1.506  81.982 117.412  0.00  0.00     0.028 C 
ATOM     10  C   LIG d   1      -2.603  82.304 118.441  0.00  0.00     0.006 C 
ENDBRANCH   8   9
BRANCH   8  11
ATOM     11  C   LIG d   1      -3.518  80.996 116.438  0.00  0.00     0.028 C 
ATOM     12  C   LIG d   1      -3.788  79.500 116.215  0.00  0.00     0.006 C 
ENDBRANCH   8  11
ENDBRANCH   7   8
ENDBRANCH   1   7
BRANCH   6  13
ATOM     13  N   LIG d   1      -0.564  77.852 114.065  0.00  0.00    -0.311 N 
ATOM     14  C   LIG d   1      -1.192  76.678 114.082  0.00  0.00     0.210 C 
ATOM     15  C   LIG d   1      -0.365  75.511 114.631  0.00  0.00     0.109 C 
ATOM     16  O   LIG d   1      -2.343  76.485 113.665  0.00  0.00    -0.276 OA
ATOM     17  H   LIG d   1       0.380  77.912 114.392  0.00  0.00     0.149 HD
ENDBRANCH   6  13
BRANCH   5  18
ATOM     18  N   LIG d   1      -1.546  78.341 111.213  0.00  0.00     0.381 N 
ATOM     19  H   LIG d   1      -2.392  78.694 110.812  0.00  0.00    -0.090 HD
ATOM     20  H   LIG d   1      -1.774  77.535 111.769  0.00  0.00    -0.090 HD
ATOM     21  H   LIG d   1      -0.908  78.086 110.492  0.00  0.00    -0.090 HD
ENDBRANCH   5  18
BRANCH   3  22
ATOM     22  C   LIG d   1      -1.067  83.039 112.010  0.00  0.00     0.382 C 
ATOM     23  O   LIG d   1      -1.051  84.036 112.771  0.00  0.00    -0.241 OA
ATOM     24  O   LIG d   1      -1.057  83.209 110.776  0.00  0.00    -0.241 OA
ENDBRANCH   3  22
TORSDOF 7
ENDMDL
MODEL 3
REMARK VINA RESULT:      -5.0      3.888      6.227
REMARK  7 active torsions:
REMARK  status: ('A' for Active; 'I' for Inactive)
REMARK    1  A    between atoms: C_2  and  C_3 
REMARK    2  A    between atoms: C_3  and  O_6 
REMARK    3  A    between atoms: C_3  and  C_4 
REMARK    4  A    between atoms: C_7  and  O_6 
REMARK    5  A    between atoms: C_9  and  C_10 
REMARK    6  A    between atoms: N_15  and  C_14 
REMARK    7  A    between atoms: N_20  and  C_19 
REMARK       I    between atoms: C_22  and  N_20 
ROOT
ATOM      1  C   LIG d   1      -4.913  78.843 116.684  0.00  0.00     0.161 C 
ATOM      2  C   LIG d   1      -4.289  77.950 115.796  0.00  0.00     0.016 C 
ATOM      3  C   LIG d   1      -4.925  76.800 115.275  0.00  0.00     0.038 C 
ATOM      4  C   LIG d   1      -6.287  76.544 115.489  0.00  0.00     0.028 C 
ATOM      5  C   LIG d   1      -6.820  77.144 116.786  0.00  0.00    -0.047 C 
ATOM      6  C   LIG d   1      -6.435  78.640 116.841  0.00  0.00     0.091 C 
ENDROOT
BRANCH   1   7
ATOM      7  O   LIG d   1      -4.626  80.200 116.294  0.00  0.00    -0.368 OA
BRANCH   7   8
ATOM      8  C   LIG d   1      -3.664  80.909 117.114  0.00  0.00     0.119 C 
BRANCH   8   9
ATOM      9  C   LIG d   1      -4.367  82.159 117.678  0.00  0.00     0.028 C 
ATOM     10  C   LIG d   1      -3.778  82.605 119.026  0.00  0.00     0.006 C 
ENDBRANCH   8   9
BRANCH   8  11
ATOM     11  C   LIG d   1      -2.501  81.442 116.272  0.00  0.00     0.028 C 
ATOM     12  C   LIG d   1      -2.954  82.444 115.198  0.00  0.00     0.006 C 
ENDBRANCH   8  11
ENDBRANCH   7   8
ENDBRANCH   1   7
BRANCH   6  13
ATOM     13  N   LIG d   1      -6.845  79.284 118.117  0.00  0.00    -0.311 N 
ATOM     14  C   LIG d   1      -7.567  80.402 118.175  0.00  0.00     0.210 C 
ATOM     15  C   LIG d   1      -7.862  80.907 119.590  0.00  0.00     0.109 C 
ATOM     16  O   LIG d   1      -8.017  81.005 117.189  0.00  0.00    -0.276 OA
ATOM     17  H   LIG d   1      -6.548  78.844 118.966  0.00  0.00     0.149 HD
ENDBRANCH   6  13
BRANCH   5  18
ATOM     18  N   LIG d   1      -8.277  76.920 116.815  0.00  0.00     0.381 N 
ATOM     19  H   LIG d   1      -8.740  77.635 116.289  0.00  0.00    -0.090 HD
ATOM     20  H   LIG d   1      -8.595  76.973 117.767  0.00  0.00    -0.090 HD
ATOM     21  H   LIG d   1      -8.493  76.025 116.434  0.00  0.00    -0.090 HD
ENDBRANCH   5  18
BRANCH   3  22
ATOM     22  C   LIG d   1      -4.184  75.869 114.562  0.00  0.00     0.382 C 
ATOM     23  O   LIG d   1      -4.399  75.702 113.337  0.00  0.00    -0.241 OA
ATOM     24  O   LIG d   1      -3.333  75.164 115.137  0.00  0.00    -0.241 OA
ENDBRANCH   3  22
TORSDOF 7
ENDMDL
MODEL 4
REMARK VINA RESULT:      -4.9      1.971      4.670
REMARK  7 active torsions:
REMARK  status: ('A' for Active; 'I' for Inactive)
REMARK    1  A    between atoms: C_2  and  C_3 
REMARK    2  A    between atoms: C_3  and  O_6 
REMARK    3  A    between atoms: C_3  and  C_4 
REMARK    4  A    between atoms: C_7  and  O_6 
REMARK    5  A    between atoms: C_9  and  C_10 
REMARK    6  A    between atoms: N_15  and  C_14 
REMARK    7  A    between atoms: N_20  and  C_19 
REMARK       I    between atoms: C_22  and  N_20 
ROOT
ATOM      1  C   LIG d   1      -2.005  79.822 114.195  0.00  0.00     0.161 C 
ATOM      2  C   LIG d   1      -2.856  78.707 114.254  0.00  0.00     0.016 C 
ATOM      3  C   LIG d   1      -3.015  77.793 113.187  0.00  0.00     0.038 C 
ATOM      4  C   LIG d   1      -2.213  77.849 112.037  0.00  0.00     0.028 C 
ATOM      5  C   LIG d   1      -1.700  79.250 111.724  0.00  0.00    -0.047 C 
ATOM      6  C   LIG d   1      -1.039  79.837 112.992  0.00  0.00     0.091 C 
ENDROOT
BRANCH   1   7
ATOM      7  O   LIG d   1      -1.269  79.940 115.429  0.00  0.00    -0.368 OA
BRANCH   7   8
ATOM      8  C   LIG d   1      -1.630  81.054 116.283  0.00  0.00     0.119 C 
BRANCH   8   9
ATOM      9  C   LIG d   1      -2.842  81.756 115.640  0.00  0.00     0.028 C 
ATOM     10  C   LIG d   1      -3.990  81.979 116.640  0.00  0.00     0.006 C 
ENDBRANCH   8   9
BRANCH   8  11
ATOM     11  C   LIG d   1      -0.522  82.110 116.319  0.00  0.00     0.028 C 
ATOM     12  C   LIG d   1       0.199  82.171 117.675  0.00  0.00     0.006 C 
ENDBRANCH   8  11
ENDBRANCH   7   8
ENDBRANCH   1   7
BRANCH   6  13
ATOM     13  N   LIG d   1      -0.584  81.238 112.797  0.00  0.00    -0.311 N 
ATOM     14  C   LIG d   1      -1.373  82.208 112.336  0.00  0.00     0.210 C 
ATOM     15  C   LIG d   1      -0.699  83.576 112.192  0.00  0.00     0.109 C 
ATOM     16  O   LIG d   1      -2.575  82.072 112.064  0.00  0.00    -0.276 OA
ATOM     17  H   LIG d   1       0.369  81.444 113.023  0.00  0.00     0.149 HD
ENDBRANCH   6  13
BRANCH   5  18
ATOM     18  N   LIG d   1      -0.769  79.139 110.585  0.00  0.00     0.381 N 
ATOM     19  H   LIG d   1      -0.741  80.005 110.085  0.00  0.00    -0.090 HD
ATOM     20  H   LIG d   1      -1.102  78.426 109.961  0.00  0.00    -0.090 HD
ATOM     21  H   LIG d   1       0.143  78.907 110.911  0.00  0.00    -0.090 HD
ENDBRANCH   5  18
BRANCH   3  22
ATOM     22  C   LIG d   1      -4.014  76.833 113.247  0.00  0.00     0.382 C 
ATOM     23  O   LIG d   1      -3.803  75.745 113.836  0.00  0.00    -0.241 OA
ATOM     24  O   LIG d   1      -5.108  77.022 112.683  0.00  0.00    -0.241 OA
ENDBRANCH   3  22
TORSDOF 7
ENDMDL
MODEL 5
REMARK VINA RESULT:      -4.8      3.114      4.534
REMARK  7 active torsions:
REMARK  status: ('A' for Active; 'I' for Inactive)
REMARK    1  A    between atoms: C_2  and  C_3 
REMARK    2  A    between atoms: C_3  and  O_6 
REMARK    3  A    between atoms: C_3  and  C_4 
REMARK    4  A    between atoms: C_7  and  O_6 
REMARK    5  A    between atoms: C_9  and  C_10 
REMARK    6  A    between atoms: N_15  and  C_14 
REMARK    7  A    between atoms: N_20  and  C_19 
REMARK       I    between atoms: C_22  and  N_20 
ROOT
ATOM      1  C   LIG d   1      -3.688  78.417 115.917  0.00  0.00     0.161 C 
ATOM      2  C   LIG d   1      -4.255  79.620 116.367  0.00  0.00     0.016 C 
ATOM      3  C   LIG d   1      -3.568  80.856 116.358  0.00  0.00     0.038 C 
ATOM      4  C   LIG d   1      -2.310  81.001 115.753  0.00  0.00     0.028 C 
ATOM      5  C   LIG d   1      -1.493  79.713 115.740  0.00  0.00    -0.047 C 
ATOM      6  C   LIG d   1      -2.357  78.576 115.151  0.00  0.00     0.091 C 
ENDROOT
BRANCH   1   7
ATOM      7  O   LIG d   1      -4.644  77.696 115.115  0.00  0.00    -0.368 OA
BRANCH   7   8
ATOM      8  C   LIG d   1      -5.409  76.674 115.801  0.00  0.00     0.119 C 
BRANCH   8   9
ATOM      9  C   LIG d   1      -5.393  75.412 114.917  0.00  0.00     0.028 C 
ATOM     10  C   LIG d   1      -5.181  75.740 113.429  0.00  0.00     0.006 C 
ENDBRANCH   8   9
BRANCH   8  11
ATOM     11  C   LIG d   1      -6.885  77.068 115.918  0.00  0.00     0.028 C 
ATOM     12  C   LIG d   1      -7.659  76.185 116.910  0.00  0.00     0.006 C 
ENDBRANCH   8  11
ENDBRANCH   7   8
ENDBRANCH   1   7
BRANCH   6  13
ATOM     13  N   LIG d   1      -1.662  77.262 115.179  0.00  0.00    -0.311 N 
ATOM     14  C   LIG d   1      -1.373  76.562 114.084  0.00  0.00     0.210 C 
ATOM     15  C   LIG d   1      -0.672  75.224 114.338  0.00  0.00     0.109 C 
ATOM     16  O   LIG d   1      -1.602  76.937 112.924  0.00  0.00    -0.276 OA
ATOM     17  H   LIG d   1      -1.412  76.898 116.078  0.00  0.00     0.149 HD
ENDBRANCH   6  13
BRANCH   5  18
ATOM     18  N   LIG d   1      -0.267  79.971 114.961  0.00  0.00     0.381 N 
ATOM     19  H   LIG d   1       0.488  80.188 115.580  0.00  0.00    -0.090 HD
ATOM     20  H   LIG d   1      -0.423  80.764 114.364  0.00  0.00    -0.090 HD
ATOM     21  H   LIG d   1      -0.038  79.173 114.412  0.00  0.00    -0.090 HD
ENDBRANCH   5  18
BRANCH   3  22
ATOM     22  C   LIG d   1      -4.123  81.956 116.995  0.00  0.00     0.382 C 
ATOM     23  O   LIG d   1      -3.566  82.439 118.010  0.00  0.00    -0.241 OA
ATOM     24  O   LIG d   1      -5.197  82.443 116.594  0.00  0.00    -0.241 OA
ENDBRANCH   3  22
TORSDOF 7
ENDMDL
MODEL 6
REMARK VINA RESULT:      -4.7      2.506      5.194
REMARK  7 active torsions:
REMARK  status: ('A' for Active; 'I' for Inactive)
REMARK    1  A    between atoms: C_2  and  C_3 
REMARK    2  A    between atoms: C_3  and  O_6 
REMARK    3  A    between atoms: C_3  and  C_4 
REMARK    4  A    between atoms: C_7  and  O_6 
REMARK    5  A    between atoms: C_9  and  C_10 
REMARK    6  A    between atoms: N_15  and  C_14 
REMARK    7  A    between atoms: N_20  and  C_19 
REMARK       I    between atoms: C_22  and  N_20 
ROOT
ATOM      1  C   LIG d   1      -1.748  79.682 114.154  0.00  0.00     0.161 C 
ATOM      2  C   LIG d   1      -2.624  78.586 114.226  0.00  0.00     0.016 C 
ATOM      3  C   LIG d   1      -2.993  77.810 113.103  0.00  0.00     0.038 C 
ATOM      4  C   LIG d   1      -2.389  77.986 111.849  0.00  0.00     0.028 C 
ATOM      5  C   LIG d   1      -1.877  79.404 111.618  0.00  0.00    -0.047 C 
ATOM      6  C   LIG d   1      -0.993  79.820 112.816  0.00  0.00     0.091 C 
ENDROOT
BRANCH   1   7
ATOM      7  O   LIG d   1      -0.817  79.635 115.253  0.00  0.00    -0.368 OA
BRANCH   7   8
ATOM      8  C   LIG d   1      -0.868  78.448 116.082  0.00  0.00     0.119 C 
BRANCH   8   9
ATOM      9  C   LIG d   1      -0.973  78.911 117.548  0.00  0.00     0.028 C 
ATOM     10  C   LIG d   1       0.405  79.085 118.209  0.00  0.00     0.006 C 
ENDBRANCH   8   9
BRANCH   8  11
ATOM     11  C   LIG d   1       0.440  77.654 116.000  0.00  0.00     0.028 C 
ATOM     12  C   LIG d   1       0.366  76.486 115.005  0.00  0.00     0.006 C 
ENDBRANCH   8  11
ENDBRANCH   7   8
ENDBRANCH   1   7
BRANCH   6  13
ATOM     13  N   LIG d   1      -0.519  81.225 112.710  0.00  0.00    -0.311 N 
ATOM     14  C   LIG d   1      -1.338  82.266 112.570  0.00  0.00     0.210 C 
ATOM     15  C   LIG d   1      -0.641  83.626 112.459  0.00  0.00     0.109 C 
ATOM     16  O   LIG d   1      -2.576  82.196 112.559  0.00  0.00    -0.276 OA
ATOM     17  H   LIG d   1       0.470  81.376 112.741  0.00  0.00     0.149 HD
ENDBRANCH   6  13
BRANCH   5  18
ATOM     18  N   LIG d   1      -1.150  79.411 110.334  0.00  0.00     0.381 N 
ATOM     19  H   LIG d   1      -1.666  78.895 109.650  0.00  0.00    -0.090 HD
ATOM     20  H   LIG d   1      -0.260  78.963 110.462  0.00  0.00    -0.090 HD
ATOM     21  H   LIG d   1      -1.017  80.348 110.023  0.00  0.00    -0.090 HD
ENDBRANCH   5  18
BRANCH   3  22
ATOM     22  C   LIG d   1      -4.007  76.871 113.219  0.00  0.00     0.382 C 
ATOM     23  O   LIG d   1      -3.804  75.804 113.847  0.00  0.00    -0.241 OA
ATOM     24  O   LIG d   1      -5.107  77.057 112.667  0.00  0.00    -0.241 OA
ENDBRANCH   3  22
TORSDOF 7
ENDMDL
MODEL 7
REMARK VINA RESULT:      -4.7      2.199      3.027
REMARK  7 active torsions:
REMARK  status: ('A' for Active; 'I' for Inactive)
REMARK    1  A    between atoms: C_2  and  C_3 
REMARK    2  A    between atoms: C_3  and  O_6 
REMARK    3  A    between atoms: C_3  and  C_4 
REMARK    4  A    between atoms: C_7  and  O_6 
REMARK    5  A    between atoms: C_9  and  C_10 
REMARK    6  A    between atoms: N_15  and  C_14 
REMARK    7  A    between atoms: N_20  and  C_19 
REMARK       I    between atoms: C_22  and  N_20 
ROOT
ATOM      1  C   LIG d   1      -1.982  79.947 115.901  0.00  0.00     0.161 C 
ATOM      2  C   LIG d   1      -2.436  80.719 114.819  0.00  0.00     0.016 C 
ATOM      3  C   LIG d   1      -2.366  80.290 113.473  0.00  0.00     0.038 C 
ATOM      4  C   LIG d   1      -1.972  78.988 113.130  0.00  0.00     0.028 C 
ATOM      5  C   LIG d   1      -1.030  78.352 114.147  0.00  0.00    -0.047 C 
ATOM      6  C   LIG d   1      -1.652  78.480 115.556  0.00  0.00     0.091 C 
ENDROOT
BRANCH   1   7
ATOM      7  O   LIG d   1      -2.939  80.006 116.978  0.00  0.00    -0.368 OA
BRANCH   7   8
ATOM      8  C   LIG d   1      -4.334  80.027 116.591  0.00  0.00     0.119 C 
BRANCH   8   9
ATOM      9  C   LIG d   1      -4.978  81.263 117.248  0.00  0.00     0.028 C 
ATOM     10  C   LIG d   1      -3.957  82.118 118.017  0.00  0.00     0.006 C 
ENDBRANCH   8   9
BRANCH   8  11
ATOM     11  C   LIG d   1      -5.090  78.824 117.162  0.00  0.00     0.028 C 
ATOM     12  C   LIG d   1      -5.055  77.601 116.231  0.00  0.00     0.006 C 
ENDBRANCH   8  11
ENDBRANCH   7   8
ENDBRANCH   1   7
BRANCH   6  13
ATOM     13  N   LIG d   1      -0.756  77.958 116.621  0.00  0.00    -0.311 N 
ATOM     14  C   LIG d   1      -0.816  76.710 117.082  0.00  0.00     0.210 C 
ATOM     15  C   LIG d   1       0.185  76.383 118.194  0.00  0.00     0.109 C 
ATOM     16  O   LIG d   1      -1.581  75.833 116.653  0.00  0.00    -0.276 OA
ATOM     17  H   LIG d   1      -0.084  78.593 117.003  0.00  0.00     0.149 HD
ENDBRANCH   6  13
BRANCH   5  18
ATOM     18  N   LIG d   1      -0.811  76.952 113.736  0.00  0.00     0.381 N 
ATOM     19  H   LIG d   1      -1.655  76.428 113.854  0.00  0.00    -0.090 HD
ATOM     20  H   LIG d   1      -0.104  76.548 114.325  0.00  0.00    -0.090 HD
ATOM     21  H   LIG d   1      -0.520  76.918 112.784  0.00  0.00    -0.090 HD
ENDBRANCH   5  18
BRANCH   3  22
ATOM     22  C   LIG d   1      -2.654  81.182 112.452  0.00  0.00     0.382 C 
ATOM     23  O   LIG d   1      -1.761  81.508 111.634  0.00  0.00    -0.241 OA
ATOM     24  O   LIG d   1      -3.784  81.699 112.364  0.00  0.00    -0.241 OA
ENDBRANCH   3  22
TORSDOF 7
ENDMDL
MODEL 8
REMARK VINA RESULT:      -4.6      3.068      5.774
REMARK  7 active torsions:
REMARK  status: ('A' for Active; 'I' for Inactive)
REMARK    1  A    between atoms: C_2  and  C_3 
REMARK    2  A    between atoms: C_3  and  O_6 
REMARK    3  A    between atoms: C_3  and  C_4 
REMARK    4  A    between atoms: C_7  and  O_6 
REMARK    5  A    between atoms: C_9  and  C_10 
REMARK    6  A    between atoms: N_15  and  C_14 
REMARK    7  A    between atoms: N_20  and  C_19 
REMARK       I    between atoms: C_22  and  N_20 
ROOT
ATOM      1  C   LIG d   1      -3.822  79.956 116.219  0.00  0.00     0.161 C 
ATOM      2  C   LIG d   1      -3.253  78.919 115.461  0.00  0.00     0.016 C 
ATOM      3  C   LIG d   1      -3.753  77.597 115.452  0.00  0.00     0.038 C 
ATOM      4  C   LIG d   1      -4.956  77.255 116.088  0.00  0.00     0.028 C 
ATOM      5  C   LIG d   1      -5.289  78.151 117.276  0.00  0.00    -0.047 C 
ATOM      6  C   LIG d   1      -5.200  79.628 116.831  0.00  0.00     0.091 C 
ENDROOT
BRANCH   1   7
ATOM      7  O   LIG d   1      -3.899  81.156 115.425  0.00  0.00    -0.368 OA
BRANCH   7   8
ATOM      8  C   LIG d   1      -2.980  82.217 115.783  0.00  0.00     0.119 C 
BRANCH   8   9
ATOM      9  C   LIG d   1      -1.791  82.150 114.805  0.00  0.00     0.028 C 
ATOM     10  C   LIG d   1      -2.239  81.914 113.352  0.00  0.00     0.006 C 
ENDBRANCH   8   9
BRANCH   8  11
ATOM     11  C   LIG d   1      -2.376  81.987 117.171  0.00  0.00     0.028 C 
ATOM     12  C   LIG d   1      -0.840  82.036 117.169  0.00  0.00     0.006 C 
ENDBRANCH   8  11
ENDBRANCH   7   8
ENDBRANCH   1   7
BRANCH   6  13
ATOM     13  N   LIG d   1      -5.428  80.573 117.955  0.00  0.00    -0.311 N 
ATOM     14  C   LIG d   1      -6.211  81.647 117.862  0.00  0.00     0.210 C 
ATOM     15  C   LIG d   1      -6.293  82.499 119.133  0.00  0.00     0.109 C 
ATOM     16  O   LIG d   1      -6.870  81.957 116.859  0.00  0.00    -0.276 OA
ATOM     17  H   LIG d   1      -4.957  80.380 118.817  0.00  0.00     0.149 HD
ENDBRANCH   6  13
BRANCH   5  18
ATOM     18  N   LIG d   1      -6.631  77.772 117.758  0.00  0.00     0.381 N 
ATOM     19  H   LIG d   1      -7.247  78.558 117.697  0.00  0.00    -0.090 HD
ATOM     20  H   LIG d   1      -6.564  77.497 118.722  0.00  0.00    -0.090 HD
ATOM     21  H   LIG d   1      -6.988  77.018 117.213  0.00  0.00    -0.090 HD
ENDBRANCH   5  18
BRANCH   3  22
ATOM     22  C   LIG d   1      -3.026  76.591 114.834  0.00  0.00     0.382 C 
ATOM     23  O   LIG d   1      -2.971  76.536 113.581  0.00  0.00    -0.241 OA
ATOM     24  O   LIG d   1      -2.462  75.711 115.512  0.00  0.00    -0.241 OA
ENDBRANCH   3  22
TORSDOF 7
ENDMDL
MODEL 9
REMARK VINA RESULT:      -4.6      2.344      5.756
REMARK  7 active torsions:
REMARK  status: ('A' for Active; 'I' for Inactive)
REMARK    1  A    between atoms: C_2  and  C_3 
REMARK    2  A    between atoms: C_3  and  O_6 
REMARK    3  A    between atoms: C_3  and  C_4 
REMARK    4  A    between atoms: C_7  and  O_6 
REMARK    5  A    between atoms: C_9  and  C_10 
REMARK    6  A    between atoms: N_15  and  C_14 
REMARK    7  A    between atoms: N_20  and  C_19 
REMARK       I    between atoms: C_22  and  N_20 
ROOT
ATOM      1  C   LIG d   1      -3.163  78.821 115.342  0.00  0.00     0.161 C 
ATOM      2  C   LIG d   1      -3.828  78.875 116.578  0.00  0.00     0.016 C 
ATOM      3  C   LIG d   1      -4.158  80.084 117.233  0.00  0.00     0.038 C 
ATOM      4  C   LIG d   1      -3.978  81.332 116.619  0.00  0.00     0.028 C 
ATOM      5  C   LIG d   1      -2.852  81.345 115.591  0.00  0.00    -0.047 C 
ATOM      6  C   LIG d   1      -3.059  80.173 114.605  0.00  0.00     0.091 C 
ENDROOT
BRANCH   1   7
ATOM      7  O   LIG d   1      -3.786  77.835 114.495  0.00  0.00    -0.368 OA
BRANCH   7   8
ATOM      8  C   LIG d   1      -4.033  76.541 115.098  0.00  0.00     0.119 C 
BRANCH   8   9
ATOM      9  C   LIG d   1      -2.901  75.597 114.648  0.00  0.00     0.028 C 
ATOM     10  C   LIG d   1      -1.886  75.322 115.770  0.00  0.00     0.006 C 
ENDBRANCH   8   9
BRANCH   8  11
ATOM     11  C   LIG d   1      -5.322  75.913 114.561  0.00  0.00     0.028 C 
ATOM     12  C   LIG d   1      -5.079  74.581 113.834  0.00  0.00     0.006 C 
ENDBRANCH   8  11
ENDBRANCH   7   8
ENDBRANCH   1   7
BRANCH   6  13
ATOM     13  N   LIG d   1      -1.955  80.062 113.616  0.00  0.00    -0.311 N 
ATOM     14  C   LIG d   1      -1.978  80.652 112.422  0.00  0.00     0.210 C 
ATOM     15  C   LIG d   1      -0.746  80.392 111.549  0.00  0.00     0.109 C 
ATOM     16  O   LIG d   1      -2.886  81.392 112.017  0.00  0.00    -0.276 OA
ATOM     17  H   LIG d   1      -1.164  79.505 113.876  0.00  0.00     0.149 HD
ENDBRANCH   6  13
BRANCH   5  18
ATOM     18  N   LIG d   1      -2.866  82.664 114.931  0.00  0.00     0.381 N 
ATOM     19  H   LIG d   1      -2.707  83.383 115.608  0.00  0.00    -0.090 HD
ATOM     20  H   LIG d   1      -3.771  82.813 114.520  0.00  0.00    -0.090 HD
ATOM     21  H   LIG d   1      -2.163  82.701 114.226  0.00  0.00    -0.090 HD
ENDBRANCH   5  18
BRANCH   3  22
ATOM     22  C   LIG d   1      -4.637  80.052 118.533  0.00  0.00     0.382 C 
ATOM     23  O   LIG d   1      -4.339  80.971 119.334  0.00  0.00    -0.241 OA
ATOM     24  O   LIG d   1      -5.328  79.094 118.929  0.00  0.00    -0.241 OA
ENDBRANCH   3  22
TORSDOF 7
ENDMDL
