MODEL 1
REMARK VINA RESULT:      -5.0      0.000      0.000
REMARK  7 active torsions:
REMARK  status: ('A' for Active; 'I' for Inactive)
REMARK    1  A    between atoms: C_2  and  C_3 
REMARK    2  A    between atoms: C_3  and  O_6 
REMARK    3  A    between atoms: C_3  and  C_4 
REMARK    4  A    between atoms: C_7  and  O_6 
REMARK    5  A    between atoms: C_9  and  C_10 
REMARK    6  A    between atoms: N_15  and  C_14 
REMARK    7  A    between atoms: N_20  and  C_19 
REMARK       I    between atoms: C_22  and  N_20 
ROOT
ATOM      1  C   LIG d   1      -2.869  78.428 115.219  0.00  0.00     0.161 C 
ATOM      2  C   LIG d   1      -2.990  79.597 114.449  0.00  0.00     0.016 C 
ATOM      3  C   LIG d   1      -2.524  79.704 113.118  0.00  0.00     0.038 C 
ATOM      4  C   LIG d   1      -2.038  78.594 112.411  0.00  0.00     0.028 C 
ATOM      5  C   LIG d   1      -1.431  77.522 113.310  0.00  0.00    -0.047 C 
ATOM      6  C   LIG d   1      -2.441  77.174 114.427  0.00  0.00     0.091 C 
ENDROOT
BRANCH   1   7
ATOM      7  O   LIG d   1      -4.100  78.179 115.926  0.00  0.00    -0.368 OA
BRANCH   7   8
ATOM      8  C   LIG d   1      -4.347  79.008 117.087  0.00  0.00     0.119 C 
BRANCH   8   9
ATOM      9  C   LIG d   1      -3.415  78.519 118.213  0.00  0.00     0.028 C 
ATOM     10  C   LIG d   1      -2.600  79.663 118.839  0.00  0.00     0.006 C 
ENDBRANCH   8   9
BRANCH   8  11
ATOM     11  C   LIG d   1      -5.768  78.809 117.623  0.00  0.00     0.028 C 
ATOM     12  C   LIG d   1      -6.506  80.136 117.862  0.00  0.00     0.006 C 
ENDBRANCH   8  11
ENDBRANCH   7   8
ENDBRANCH   1   7
BRANCH   6  13
ATOM     13  N   LIG d   1      -1.894  76.193 115.401  0.00  0.00    -0.311 N 
ATOM     14  C   LIG d   1      -2.491  75.038 115.691  0.00  0.00     0.210 C 
ATOM     15  C   LIG d   1      -1.769  74.182 116.737  0.00  0.00     0.109 C 
ATOM     16  O   LIG d   1      -3.532  74.626 115.159  0.00  0.00    -0.276 OA
ATOM     17  H   LIG d   1      -1.036  76.433 115.856  0.00  0.00     0.149 HD
ENDBRANCH   6  13
BRANCH   5  18
ATOM     18  N   LIG d   1      -1.091  76.367 112.458  0.00  0.00     0.381 N 
ATOM     19  H   LIG d   1      -0.215  76.528 112.003  0.00  0.00    -0.090 HD
ATOM     20  H   LIG d   1      -1.799  76.263 111.753  0.00  0.00    -0.090 HD
ATOM     21  H   LIG d   1      -1.039  75.539 113.011  0.00  0.00    -0.090 HD
ENDBRANCH   5  18
BRANCH   3  22
ATOM     22  C   LIG d   1      -2.506  80.942 112.494  0.00  0.00     0.382 C 
ATOM     23  O   LIG d   1      -1.540  81.260 111.760  0.00  0.00    -0.241 OA
ATOM     24  O   LIG d   1      -3.422  81.763 112.692  0.00  0.00    -0.241 OA
ENDBRANCH   3  22
TORSDOF 7
ENDMDL
MODEL 2
REMARK VINA RESULT:      -4.8      2.793      5.393
REMARK  7 active torsions:
REMARK  status: ('A' for Active; 'I' for Inactive)
REMARK    1  A    between atoms: C_2  and  C_3 
REMARK    2  A    between atoms: C_3  and  O_6 
REMARK    3  A    between atoms: C_3  and  C_4 
REMARK    4  A    between atoms: C_7  and  O_6 
REMARK    5  A    between atoms: C_9  and  C_10 
REMARK    6  A    between atoms: N_15  and  C_14 
REMARK    7  A    between atoms: N_20  and  C_19 
REMARK       I    between atoms: C_22  and  N_20 
ROOT
ATOM      1  C   LIG d   1      -1.882  75.178 115.401  0.00  0.00     0.161 C 
ATOM      2  C   LIG d   1      -1.413  74.956 116.707  0.00  0.00     0.016 C 
ATOM      3  C   LIG d   1      -0.776  75.949 117.485  0.00  0.00     0.038 C 
ATOM      4  C   LIG d   1      -0.699  77.285 117.063  0.00  0.00     0.028 C 
ATOM      5  C   LIG d   1      -0.707  77.443 115.546  0.00  0.00    -0.047 C 
ATOM      6  C   LIG d   1      -1.906  76.658 114.966  0.00  0.00     0.091 C 
ENDROOT
BRANCH   1   7
ATOM      7  O   LIG d   1      -3.187  74.588 115.243  0.00  0.00    -0.368 OA
BRANCH   7   8
ATOM      8  C   LIG d   1      -4.315  75.441 115.558  0.00  0.00     0.119 C 
BRANCH   8   9
ATOM      9  C   LIG d   1      -4.644  75.240 117.050  0.00  0.00     0.028 C 
ATOM     10  C   LIG d   1      -4.555  76.549 117.852  0.00  0.00     0.006 C 
ENDBRANCH   8   9
BRANCH   8  11
ATOM     11  C   LIG d   1      -5.573  75.003 114.803  0.00  0.00     0.028 C 
ATOM     12  C   LIG d   1      -6.590  74.285 115.704  0.00  0.00     0.006 C 
ENDBRANCH   8  11
ENDBRANCH   7   8
ENDBRANCH   1   7
BRANCH   6  13
ATOM     13  N   LIG d   1      -1.940  76.691 113.481  0.00  0.00    -0.311 N 
ATOM     14  C   LIG d   1      -2.658  77.568 112.783  0.00  0.00     0.210 C 
ATOM     15  C   LIG d   1      -2.566  77.414 111.261  0.00  0.00     0.109 C 
ATOM     16  O   LIG d   1      -3.337  78.480 113.278  0.00  0.00    -0.276 OA
ATOM     17  H   LIG d   1      -1.393  76.005 112.997  0.00  0.00     0.149 HD
ENDBRANCH   6  13
BRANCH   5  18
ATOM     18  N   LIG d   1      -0.762  78.887 115.249  0.00  0.00     0.381 N 
ATOM     19  H   LIG d   1      -1.623  79.105 114.789  0.00  0.00    -0.090 HD
ATOM     20  H   LIG d   1      -0.006  79.120 114.629  0.00  0.00    -0.090 HD
ATOM     21  H   LIG d   1      -0.685  79.412 116.092  0.00  0.00    -0.090 HD
ENDBRANCH   5  18
BRANCH   3  22
ATOM     22  C   LIG d   1      -0.172  75.601 118.683  0.00  0.00     0.382 C 
ATOM     23  O   LIG d   1      -0.216  74.414 119.086  0.00  0.00    -0.241 OA
ATOM     24  O   LIG d   1       0.379  76.468 119.388  0.00  0.00    -0.241 OA
ENDBRANCH   3  22
TORSDOF 7
ENDMDL
MODEL 3
REMARK VINA RESULT:      -4.7      2.717      5.633
REMARK  7 active torsions:
REMARK  status: ('A' for Active; 'I' for Inactive)
REMARK    1  A    between atoms: C_2  and  C_3 
REMARK    2  A    between atoms: C_3  and  O_6 
REMARK    3  A    between atoms: C_3  and  C_4 
REMARK    4  A    between atoms: C_7  and  O_6 
REMARK    5  A    between atoms: C_9  and  C_10 
REMARK    6  A    between atoms: N_15  and  C_14 
REMARK    7  A    between atoms: N_20  and  C_19 
REMARK       I    between atoms: C_22  and  N_20 
ROOT
ATOM      1  C   LIG d   1      -2.247  75.082 115.398  0.00  0.00     0.161 C 
ATOM      2  C   LIG d   1      -2.046  74.662 116.723  0.00  0.00     0.016 C 
ATOM      3  C   LIG d   1      -1.329  75.417 117.679  0.00  0.00     0.038 C 
ATOM      4  C   LIG d   1      -0.890  76.723 117.414  0.00  0.00     0.028 C 
ATOM      5  C   LIG d   1      -0.630  76.986 115.934  0.00  0.00    -0.047 C 
ATOM      6  C   LIG d   1      -1.871  76.553 115.122  0.00  0.00     0.091 C 
ENDROOT
BRANCH   1   7
ATOM      7  O   LIG d   1      -3.612  74.832 115.007  0.00  0.00    -0.368 OA
BRANCH   7   8
ATOM      8  C   LIG d   1      -4.609  74.977 116.048  0.00  0.00     0.119 C 
BRANCH   8   9
ATOM      9  C   LIG d   1      -5.854  74.180 115.611  0.00  0.00     0.028 C 
ATOM     10  C   LIG d   1      -7.157  74.774 116.171  0.00  0.00     0.006 C 
ENDBRANCH   8   9
BRANCH   8  11
ATOM     11  C   LIG d   1      -5.080  76.429 116.171  0.00  0.00     0.028 C 
ATOM     12  C   LIG d   1      -4.683  77.073 117.509  0.00  0.00     0.006 C 
ENDBRANCH   8  11
ENDBRANCH   7   8
ENDBRANCH   1   7
BRANCH   6  13
ATOM     13  N   LIG d   1      -1.669  76.699 113.657  0.00  0.00    -0.311 N 
ATOM     14  C   LIG d   1      -2.566  77.255 112.845  0.00  0.00     0.210 C 
ATOM     15  C   LIG d   1      -2.167  77.287 111.366  0.00  0.00     0.109 C 
ATOM     16  O   LIG d   1      -3.640  77.754 113.213  0.00  0.00    -0.276 OA
ATOM     17  H   LIG d   1      -0.811  76.349 113.278  0.00  0.00     0.149 HD
ENDBRANCH   6  13
BRANCH   5  18
ATOM     18  N   LIG d   1      -0.312  78.419 115.786  0.00  0.00     0.381 N 
ATOM     19  H   LIG d   1      -0.738  78.939 116.527  0.00  0.00    -0.090 HD
ATOM     20  H   LIG d   1      -0.689  78.747 114.914  0.00  0.00    -0.090 HD
ATOM     21  H   LIG d   1       0.675  78.553 115.801  0.00  0.00    -0.090 HD
ENDBRANCH   5  18
BRANCH   3  22
ATOM     22  C   LIG d   1      -1.009  74.850 118.903  0.00  0.00     0.382 C 
ATOM     23  O   LIG d   1      -1.921  74.447 119.664  0.00  0.00    -0.241 OA
ATOM     24  O   LIG d   1       0.178  74.778 119.275  0.00  0.00    -0.241 OA
ENDBRANCH   3  22
TORSDOF 7
ENDMDL
MODEL 4
REMARK VINA RESULT:      -4.7      1.785      2.618
REMARK  7 active torsions:
REMARK  status: ('A' for Active; 'I' for Inactive)
REMARK    1  A    between atoms: C_2  and  C_3 
REMARK    2  A    between atoms: C_3  and  O_6 
REMARK    3  A    between atoms: C_3  and  C_4 
REMARK    4  A    between atoms: C_7  and  O_6 
REMARK    5  A    between atoms: C_9  and  C_10 
REMARK    6  A    between atoms: N_15  and  C_14 
REMARK    7  A    between atoms: N_20  and  C_19 
REMARK       I    between atoms: C_22  and  N_20 
ROOT
ATOM      1  C   LIG d   1      -2.503  77.800 116.459  0.00  0.00     0.161 C 
ATOM      2  C   LIG d   1      -2.850  78.713 115.449  0.00  0.00     0.016 C 
ATOM      3  C   LIG d   1      -2.465  78.562 114.097  0.00  0.00     0.038 C 
ATOM      4  C   LIG d   1      -1.830  77.400 113.633  0.00  0.00     0.028 C 
ATOM      5  C   LIG d   1      -1.016  76.684 114.706  0.00  0.00    -0.047 C 
ATOM      6  C   LIG d   1      -1.906  76.471 115.952  0.00  0.00     0.091 C 
ENDROOT
BRANCH   1   7
ATOM      7  O   LIG d   1      -3.644  77.548 117.302  0.00  0.00    -0.368 OA
BRANCH   7   8
ATOM      8  C   LIG d   1      -4.927  77.477 116.634  0.00  0.00     0.119 C 
BRANCH   8   9
ATOM      9  C   LIG d   1      -5.957  78.189 117.532  0.00  0.00     0.028 C 
ATOM     10  C   LIG d   1      -7.386  77.662 117.319  0.00  0.00     0.006 C 
ENDBRANCH   8   9
BRANCH   8  11
ATOM     11  C   LIG d   1      -5.419  76.031 116.522  0.00  0.00     0.028 C 
ATOM     12  C   LIG d   1      -5.425  75.513 115.075  0.00  0.00     0.006 C 
ENDBRANCH   8  11
ENDBRANCH   7   8
ENDBRANCH   1   7
BRANCH   6  13
ATOM     13  N   LIG d   1      -1.162  75.852 117.080  0.00  0.00    -0.311 N 
ATOM     14  C   LIG d   1      -1.606  74.796 117.759  0.00  0.00     0.210 C 
ATOM     15  C   LIG d   1      -0.694  74.329 118.898  0.00  0.00     0.109 C 
ATOM     16  O   LIG d   1      -2.653  74.181 117.506  0.00  0.00    -0.276 OA
ATOM     17  H   LIG d   1      -0.288  76.268 117.332  0.00  0.00     0.149 HD
ENDBRANCH   6  13
BRANCH   5  18
ATOM     18  N   LIG d   1      -0.524  75.421 114.123  0.00  0.00     0.381 N 
ATOM     19  H   LIG d   1       0.284  75.110 114.624  0.00  0.00    -0.090 HD
ATOM     20  H   LIG d   1      -0.260  75.585 113.168  0.00  0.00    -0.090 HD
ATOM     21  H   LIG d   1      -1.237  74.727 114.164  0.00  0.00    -0.090 HD
ENDBRANCH   5  18
BRANCH   3  22
ATOM     22  C   LIG d   1      -2.680  79.598 113.201  0.00  0.00     0.382 C 
ATOM     23  O   LIG d   1      -3.379  80.583 113.538  0.00  0.00    -0.241 OA
ATOM     24  O   LIG d   1      -2.219  79.539 112.045  0.00  0.00    -0.241 OA
ENDBRANCH   3  22
TORSDOF 7
ENDMDL
MODEL 5
REMARK VINA RESULT:      -4.7      0.550      1.590
REMARK  7 active torsions:
REMARK  status: ('A' for Active; 'I' for Inactive)
REMARK    1  A    between atoms: C_2  and  C_3 
REMARK    2  A    between atoms: C_3  and  O_6 
REMARK    3  A    between atoms: C_3  and  C_4 
REMARK    4  A    between atoms: C_7  and  O_6 
REMARK    5  A    between atoms: C_9  and  C_10 
REMARK    6  A    between atoms: N_15  and  C_14 
REMARK    7  A    between atoms: N_20  and  C_19 
REMARK       I    between atoms: C_22  and  N_20 
ROOT
ATOM      1  C   LIG d   1      -2.913  78.538 115.104  0.00  0.00     0.161 C 
ATOM      2  C   LIG d   1      -2.937  79.737 114.372  0.00  0.00     0.016 C 
ATOM      3  C   LIG d   1      -2.453  79.849 113.048  0.00  0.00     0.038 C 
ATOM      4  C   LIG d   1      -2.048  78.728 112.309  0.00  0.00     0.028 C 
ATOM      5  C   LIG d   1      -1.535  77.584 113.176  0.00  0.00    -0.047 C 
ATOM      6  C   LIG d   1      -2.578  77.281 114.276  0.00  0.00     0.091 C 
ENDROOT
BRANCH   1   7
ATOM      7  O   LIG d   1      -4.166  78.364 115.796  0.00  0.00    -0.368 OA
BRANCH   7   8
ATOM      8  C   LIG d   1      -4.096  78.333 117.243  0.00  0.00     0.119 C 
BRANCH   8   9
ATOM      9  C   LIG d   1      -5.295  79.139 117.781  0.00  0.00     0.028 C 
ATOM     10  C   LIG d   1      -6.626  78.383 117.628  0.00  0.00     0.006 C 
ENDBRANCH   8   9
BRANCH   8  11
ATOM     11  C   LIG d   1      -2.853  79.065 117.756  0.00  0.00     0.028 C 
ATOM     12  C   LIG d   1      -2.807  79.157 119.290  0.00  0.00     0.006 C 
ENDBRANCH   8  11
ENDBRANCH   7   8
ENDBRANCH   1   7
BRANCH   6  13
ATOM     13  N   LIG d   1      -2.117  76.230 115.221  0.00  0.00    -0.311 N 
ATOM     14  C   LIG d   1      -2.864  75.186 115.577  0.00  0.00     0.210 C 
ATOM     15  C   LIG d   1      -2.205  74.232 116.578  0.00  0.00     0.109 C 
ATOM     16  O   LIG d   1      -3.997  74.943 115.136  0.00  0.00    -0.276 OA
ATOM     17  H   LIG d   1      -1.197  76.332 115.603  0.00  0.00     0.149 HD
ENDBRANCH   6  13
BRANCH   5  18
ATOM     18  N   LIG d   1      -1.278  76.433 112.290  0.00  0.00     0.381 N 
ATOM     19  H   LIG d   1      -2.146  76.035 111.991  0.00  0.00    -0.090 HD
ATOM     20  H   LIG d   1      -0.770  75.734 112.804  0.00  0.00    -0.090 HD
ATOM     21  H   LIG d   1      -0.747  76.724 111.498  0.00  0.00    -0.090 HD
ENDBRANCH   5  18
BRANCH   3  22
ATOM     22  C   LIG d   1      -2.333  81.101 112.464  0.00  0.00     0.382 C 
ATOM     23  O   LIG d   1      -1.380  81.341 111.684  0.00  0.00    -0.241 OA
ATOM     24  O   LIG d   1      -3.141  82.008 112.742  0.00  0.00    -0.241 OA
ENDBRANCH   3  22
TORSDOF 7
ENDMDL
MODEL 6
REMARK VINA RESULT:      -4.6      4.201      5.792
REMARK  7 active torsions:
REMARK  status: ('A' for Active; 'I' for Inactive)
REMARK    1  A    between atoms: C_2  and  C_3 
REMARK    2  A    between atoms: C_3  and  O_6 
REMARK    3  A    between atoms: C_3  and  C_4 
REMARK    4  A    between atoms: C_7  and  O_6 
REMARK    5  A    between atoms: C_9  and  C_10 
REMARK    6  A    between atoms: N_15  and  C_14 
REMARK    7  A    between atoms: N_20  and  C_19 
REMARK       I    between atoms: C_22  and  N_20 
ROOT
ATOM      1  C   LIG d   1      -6.931  77.537 117.728  0.00  0.00     0.161 C 
ATOM      2  C   LIG d   1      -7.724  78.697 117.721  0.00  0.00     0.016 C 
ATOM      3  C   LIG d   1      -7.192  80.003 117.819  0.00  0.00     0.038 C 
ATOM      4  C   LIG d   1      -5.811  80.247 117.778  0.00  0.00     0.028 C 
ATOM      5  C   LIG d   1      -4.975  79.081 118.294  0.00  0.00    -0.047 C 
ATOM      6  C   LIG d   1      -5.416  77.788 117.571  0.00  0.00     0.091 C 
ENDROOT
BRANCH   1   7
ATOM      7  O   LIG d   1      -7.395  76.622 116.716  0.00  0.00    -0.368 OA
BRANCH   7   8
ATOM      8  C   LIG d   1      -7.452  75.225 117.097  0.00  0.00     0.119 C 
BRANCH   8   9
ATOM      9  C   LIG d   1      -6.924  74.399 115.909  0.00  0.00     0.028 C 
ATOM     10  C   LIG d   1      -6.203  75.267 114.864  0.00  0.00     0.006 C 
ENDBRANCH   8   9
BRANCH   8  11
ATOM     11  C   LIG d   1      -8.898  74.763 117.303  0.00  0.00     0.028 C 
ATOM     12  C   LIG d   1      -9.319  74.763 118.781  0.00  0.00     0.006 C 
ENDBRANCH   8  11
ENDBRANCH   7   8
ENDBRANCH   1   7
BRANCH   6  13
ATOM     13  N   LIG d   1      -4.706  76.585 118.078  0.00  0.00    -0.311 N 
ATOM     14  C   LIG d   1      -3.620  76.077 117.498  0.00  0.00     0.210 C 
ATOM     15  C   LIG d   1      -3.056  74.821 118.170  0.00  0.00     0.109 C 
ATOM     16  O   LIG d   1      -3.050  76.566 116.511  0.00  0.00    -0.276 OA
ATOM     17  H   LIG d   1      -5.082  76.143 118.893  0.00  0.00     0.149 HD
ENDBRANCH   6  13
BRANCH   5  18
ATOM     18  N   LIG d   1      -3.556  79.415 118.067  0.00  0.00     0.381 N 
ATOM     19  H   LIG d   1      -3.290  79.149 117.140  0.00  0.00    -0.090 HD
ATOM     20  H   LIG d   1      -2.992  78.897 118.717  0.00  0.00    -0.090 HD
ATOM     21  H   LIG d   1      -3.411  80.392 118.195  0.00  0.00    -0.090 HD
ENDBRANCH   5  18
BRANCH   3  22
ATOM     22  C   LIG d   1      -8.046  81.081 117.999  0.00  0.00     0.382 C 
ATOM     23  O   LIG d   1      -8.325  81.828 117.031  0.00  0.00    -0.241 OA
ATOM     24  O   LIG d   1      -8.505  81.341 119.127  0.00  0.00    -0.241 OA
ENDBRANCH   3  22
TORSDOF 7
ENDMDL
MODEL 7
REMARK VINA RESULT:      -4.5      2.652      5.004
REMARK  7 active torsions:
REMARK  status: ('A' for Active; 'I' for Inactive)
REMARK    1  A    between atoms: C_2  and  C_3 
REMARK    2  A    between atoms: C_3  and  O_6 
REMARK    3  A    between atoms: C_3  and  C_4 
REMARK    4  A    between atoms: C_7  and  O_6 
REMARK    5  A    between atoms: C_9  and  C_10 
REMARK    6  A    between atoms: N_15  and  C_14 
REMARK    7  A    between atoms: N_20  and  C_19 
REMARK       I    between atoms: C_22  and  N_20 
ROOT
ATOM      1  C   LIG d   1      -3.203  78.395 115.740  0.00  0.00     0.161 C 
ATOM      2  C   LIG d   1      -2.007  78.968 116.204  0.00  0.00     0.016 C 
ATOM      3  C   LIG d   1      -1.160  78.345 117.149  0.00  0.00     0.038 C 
ATOM      4  C   LIG d   1      -1.377  77.029 117.584  0.00  0.00     0.028 C 
ATOM      5  C   LIG d   1      -2.841  76.606 117.528  0.00  0.00    -0.047 C 
ATOM      6  C   LIG d   1      -3.399  76.912 116.119  0.00  0.00     0.091 C 
ENDROOT
BRANCH   1   7
ATOM      7  O   LIG d   1      -3.305  78.565 114.312  0.00  0.00    -0.368 OA
BRANCH   7   8
ATOM      8  C   LIG d   1      -2.108  78.272 113.549  0.00  0.00     0.119 C 
BRANCH   8   9
ATOM      9  C   LIG d   1      -1.885  79.442 112.571  0.00  0.00     0.028 C 
ATOM     10  C   LIG d   1      -2.822  80.629 112.853  0.00  0.00     0.006 C 
ENDBRANCH   8   9
BRANCH   8  11
ATOM     11  C   LIG d   1      -2.300  77.036 112.665  0.00  0.00     0.028 C 
ATOM     12  C   LIG d   1      -2.130  77.342 111.168  0.00  0.00     0.006 C 
ENDBRANCH   8  11
ENDBRANCH   7   8
ENDBRANCH   1   7
BRANCH   6  13
ATOM     13  N   LIG d   1      -4.849  76.606 116.005  0.00  0.00    -0.311 N 
ATOM     14  C   LIG d   1      -5.344  75.713 115.150  0.00  0.00     0.210 C 
ATOM     15  C   LIG d   1      -6.869  75.566 115.180  0.00  0.00     0.109 C 
ATOM     16  O   LIG d   1      -4.663  75.005 114.394  0.00  0.00    -0.276 OA
ATOM     17  H   LIG d   1      -5.471  77.113 116.604  0.00  0.00     0.149 HD
ENDBRANCH   6  13
BRANCH   5  18
ATOM     18  N   LIG d   1      -2.905  75.174 117.876  0.00  0.00     0.381 N 
ATOM     19  H   LIG d   1      -3.756  74.982 118.367  0.00  0.00    -0.090 HD
ATOM     20  H   LIG d   1      -2.135  74.952 118.482  0.00  0.00    -0.090 HD
ATOM     21  H   LIG d   1      -2.858  74.620 117.050  0.00  0.00    -0.090 HD
ENDBRANCH   5  18
BRANCH   3  22
ATOM     22  C   LIG d   1      -0.104  79.055 117.699  0.00  0.00     0.382 C 
ATOM     23  O   LIG d   1       0.439  78.652 118.756  0.00  0.00    -0.241 OA
ATOM     24  O   LIG d   1       0.283  80.117 117.177  0.00  0.00    -0.241 OA
ENDBRANCH   3  22
TORSDOF 7
ENDMDL
MODEL 8
REMARK VINA RESULT:      -4.4      3.058      4.883
REMARK  7 active torsions:
REMARK  status: ('A' for Active; 'I' for Inactive)
REMARK    1  A    between atoms: C_2  and  C_3 
REMARK    2  A    between atoms: C_3  and  O_6 
REMARK    3  A    between atoms: C_3  and  C_4 
REMARK    4  A    between atoms: C_7  and  O_6 
REMARK    5  A    between atoms: C_9  and  C_10 
REMARK    6  A    between atoms: N_15  and  C_14 
REMARK    7  A    between atoms: N_20  and  C_19 
REMARK       I    between atoms: C_22  and  N_20 
ROOT
ATOM      1  C   LIG d   1      -5.770  78.469 117.495  0.00  0.00     0.161 C 
ATOM      2  C   LIG d   1      -4.614  79.082 116.984  0.00  0.00     0.016 C 
ATOM      3  C   LIG d   1      -3.580  78.372 116.332  0.00  0.00     0.038 C 
ATOM      4  C   LIG d   1      -3.702  77.012 116.012  0.00  0.00     0.028 C 
ATOM      5  C   LIG d   1      -4.628  76.248 116.953  0.00  0.00    -0.047 C 
ATOM      6  C   LIG d   1      -5.973  77.003 117.056  0.00  0.00     0.091 C 
ENDROOT
BRANCH   1   7
ATOM      7  O   LIG d   1      -6.930  79.257 117.161  0.00  0.00    -0.368 OA
BRANCH   7   8
ATOM      8  C   LIG d   1      -7.531  80.000 118.250  0.00  0.00     0.119 C 
BRANCH   8   9
ATOM      9  C   LIG d   1      -9.038  79.680 118.252  0.00  0.00     0.028 C 
ATOM     10  C   LIG d   1      -9.907  80.947 118.163  0.00  0.00     0.006 C 
ENDBRANCH   8   9
BRANCH   8  11
ATOM     11  C   LIG d   1      -7.437  81.510 118.012  0.00  0.00     0.028 C 
ATOM     12  C   LIG d   1      -6.717  82.249 119.152  0.00  0.00     0.006 C 
ENDBRANCH   8  11
ENDBRANCH   7   8
ENDBRANCH   1   7
BRANCH   6  13
ATOM     13  N   LIG d   1      -6.906  76.369 118.024  0.00  0.00    -0.311 N 
ATOM     14  C   LIG d   1      -8.173  76.076 117.735  0.00  0.00     0.210 C 
ATOM     15  C   LIG d   1      -8.967  75.444 118.882  0.00  0.00     0.109 C 
ATOM     16  O   LIG d   1      -8.704  76.249 116.628  0.00  0.00    -0.276 OA
ATOM     17  H   LIG d   1      -6.548  76.166 118.936  0.00  0.00     0.149 HD
ENDBRANCH   6  13
BRANCH   5  18
ATOM     18  N   LIG d   1      -4.773  74.879 116.423  0.00  0.00     0.381 N 
ATOM     19  H   LIG d   1      -5.581  74.827 115.835  0.00  0.00    -0.090 HD
ATOM     20  H   LIG d   1      -4.900  74.245 117.192  0.00  0.00    -0.090 HD
ATOM     21  H   LIG d   1      -3.960  74.626 115.905  0.00  0.00    -0.090 HD
ENDBRANCH   5  18
BRANCH   3  22
ATOM     22  C   LIG d   1      -2.389  79.015 116.030  0.00  0.00     0.382 C 
ATOM     23  O   LIG d   1      -1.624  79.385 116.953  0.00  0.00    -0.241 OA
ATOM     24  O   LIG d   1      -2.091  79.269 114.847  0.00  0.00    -0.241 OA
ENDBRANCH   3  22
TORSDOF 7
ENDMDL
MODEL 9
REMARK VINA RESULT:      -4.4      1.275      1.638
REMARK  7 active torsions:
REMARK  status: ('A' for Active; 'I' for Inactive)
REMARK    1  A    between atoms: C_2  and  C_3 
REMARK    2  A    between atoms: C_3  and  O_6 
REMARK    3  A    between atoms: C_3  and  C_4 
REMARK    4  A    between atoms: C_7  and  O_6 
REMARK    5  A    between atoms: C_9  and  C_10 
REMARK    6  A    between atoms: N_15  and  C_14 
REMARK    7  A    between atoms: N_20  and  C_19 
REMARK       I    between atoms: C_22  and  N_20 
ROOT
ATOM      1  C   LIG d   1      -3.103  78.231 115.203  0.00  0.00     0.161 C 
ATOM      2  C   LIG d   1      -3.144  79.458 114.521  0.00  0.00     0.016 C 
ATOM      3  C   LIG d   1      -2.613  79.646 113.224  0.00  0.00     0.038 C 
ATOM      4  C   LIG d   1      -2.138  78.573 112.455  0.00  0.00     0.028 C 
ATOM      5  C   LIG d   1      -1.616  77.411 113.293  0.00  0.00    -0.047 C 
ATOM      6  C   LIG d   1      -2.689  77.023 114.336  0.00  0.00     0.091 C 
ENDROOT
BRANCH   1   7
ATOM      7  O   LIG d   1      -4.374  77.981 115.835  0.00  0.00    -0.368 OA
BRANCH   7   8
ATOM      8  C   LIG d   1      -4.453  78.284 117.250  0.00  0.00     0.119 C 
BRANCH   8   9
ATOM      9  C   LIG d   1      -5.237  77.143 117.925  0.00  0.00     0.028 C 
ATOM     10  C   LIG d   1      -5.286  75.872 117.060  0.00  0.00     0.006 C 
ENDBRANCH   8   9
BRANCH   8  11
ATOM     11  C   LIG d   1      -5.278  79.549 117.503  0.00  0.00     0.028 C 
ATOM     12  C   LIG d   1      -6.775  79.256 117.693  0.00  0.00     0.006 C 
ENDBRANCH   8  11
ENDBRANCH   7   8
ENDBRANCH   1   7
BRANCH   6  13
ATOM     13  N   LIG d   1      -2.226  75.949 115.253  0.00  0.00    -0.311 N 
ATOM     14  C   LIG d   1      -1.269  76.124 116.163  0.00  0.00     0.210 C 
ATOM     15  C   LIG d   1      -0.929  74.881 116.992  0.00  0.00     0.109 C 
ATOM     16  O   LIG d   1      -0.691  77.199 116.384  0.00  0.00    -0.276 OA
ATOM     17  H   LIG d   1      -2.663  75.053 115.163  0.00  0.00     0.149 HD
ENDBRANCH   6  13
BRANCH   5  18
ATOM     18  N   LIG d   1      -1.282  76.310 112.370  0.00  0.00     0.381 N 
ATOM     19  H   LIG d   1      -0.316  76.069 112.466  0.00  0.00    -0.090 HD
ATOM     20  H   LIG d   1      -1.438  76.619 111.426  0.00  0.00    -0.090 HD
ATOM     21  H   LIG d   1      -1.851  75.516 112.566  0.00  0.00    -0.090 HD
ENDBRANCH   5  18
BRANCH   3  22
ATOM     22  C   LIG d   1      -2.518  80.926 112.699  0.00  0.00     0.382 C 
ATOM     23  O   LIG d   1      -1.420  81.342 112.258  0.00  0.00    -0.241 OA
ATOM     24  O   LIG d   1      -3.506  81.684 112.701  0.00  0.00    -0.241 OA
ENDBRANCH   3  22
TORSDOF 7
ENDMDL
