MODEL 1
REMARK VINA RESULT:      -5.2      0.000      0.000
REMARK  7 active torsions:
REMARK  status: ('A' for Active; 'I' for Inactive)
REMARK    1  A    between atoms: C_2  and  C_3 
REMARK    2  A    between atoms: C_3  and  O_6 
REMARK    3  A    between atoms: C_3  and  C_4 
REMARK    4  A    between atoms: C_7  and  O_6 
REMARK    5  A    between atoms: C_9  and  C_10 
REMARK    6  A    between atoms: N_15  and  C_14 
REMARK    7  A    between atoms: N_20  and  C_19 
REMARK       I    between atoms: C_22  and  N_20 
ROOT
ATOM      1  C   LIG d   1      -3.025  78.878 115.904  0.00  0.00     0.161 C 
ATOM      2  C   LIG d   1      -3.048  79.925 114.968  0.00  0.00     0.016 C 
ATOM      3  C   LIG d   1      -2.475  79.830 113.679  0.00  0.00     0.038 C 
ATOM      4  C   LIG d   1      -1.967  78.621 113.181  0.00  0.00     0.028 C 
ATOM      5  C   LIG d   1      -1.468  77.679 114.271  0.00  0.00    -0.047 C 
ATOM      6  C   LIG d   1      -2.574  77.515 115.339  0.00  0.00     0.091 C 
ENDROOT
BRANCH   1   7
ATOM      7  O   LIG d   1      -4.315  78.757 116.534  0.00  0.00    -0.368 OA
BRANCH   7   8
ATOM      8  C   LIG d   1      -4.752  79.895 117.317  0.00  0.00     0.119 C 
BRANCH   8   9
ATOM      9  C   LIG d   1      -4.098  79.780 118.707  0.00  0.00     0.028 C 
ATOM     10  C   LIG d   1      -3.441  81.095 119.158  0.00  0.00     0.006 C 
ENDBRANCH   8   9
BRANCH   8  11
ATOM     11  C   LIG d   1      -6.261  79.849 117.573  0.00  0.00     0.028 C 
ATOM     12  C   LIG d   1      -6.902  81.245 117.613  0.00  0.00     0.006 C 
ENDBRANCH   8  11
ENDBRANCH   7   8
ENDBRANCH   1   7
BRANCH   6  13
ATOM     13  N   LIG d   1      -2.136  76.675 116.484  0.00  0.00    -0.311 N 
ATOM     14  C   LIG d   1      -2.309  75.356 116.534  0.00  0.00     0.210 C 
ATOM     15  C   LIG d   1      -1.803  74.685 117.815  0.00  0.00     0.109 C 
ATOM     16  O   LIG d   1      -2.805  74.672 115.625  0.00  0.00    -0.276 OA
ATOM     17  H   LIG d   1      -1.696  77.144 117.252  0.00  0.00     0.149 HD
ENDBRANCH   6  13
BRANCH   5  18
ATOM     18  N   LIG d   1      -1.096  76.406 113.624  0.00  0.00     0.381 N 
ATOM     19  H   LIG d   1      -1.835  76.103 113.023  0.00  0.00    -0.090 HD
ATOM     20  H   LIG d   1      -0.960  75.708 114.334  0.00  0.00    -0.090 HD
ATOM     21  H   LIG d   1      -0.257  76.523 113.099  0.00  0.00    -0.090 HD
ENDBRANCH   5  18
BRANCH   3  22
ATOM     22  C   LIG d   1      -2.369  80.964 112.889  0.00  0.00     0.382 C 
ATOM     23  O   LIG d   1      -3.148  81.930 113.071  0.00  0.00    -0.241 OA
ATOM     24  O   LIG d   1      -1.533  81.016 111.967  0.00  0.00    -0.241 OA
ENDBRANCH   3  22
TORSDOF 7
ENDMDL
MODEL 2
REMARK VINA RESULT:      -4.8      1.564      2.195
REMARK  7 active torsions:
REMARK  status: ('A' for Active; 'I' for Inactive)
REMARK    1  A    between atoms: C_2  and  C_3 
REMARK    2  A    between atoms: C_3  and  O_6 
REMARK    3  A    between atoms: C_3  and  C_4 
REMARK    4  A    between atoms: C_7  and  O_6 
REMARK    5  A    between atoms: C_9  and  C_10 
REMARK    6  A    between atoms: N_15  and  C_14 
REMARK    7  A    between atoms: N_20  and  C_19 
REMARK       I    between atoms: C_22  and  N_20 
ROOT
ATOM      1  C   LIG d   1      -2.521  79.038 116.710  0.00  0.00     0.161 C 
ATOM      2  C   LIG d   1      -2.865  79.813 115.590  0.00  0.00     0.016 C 
ATOM      3  C   LIG d   1      -2.435  79.516 114.276  0.00  0.00     0.038 C 
ATOM      4  C   LIG d   1      -1.751  78.330 113.970  0.00  0.00     0.028 C 
ATOM      5  C   LIG d   1      -0.948  77.775 115.142  0.00  0.00    -0.047 C 
ATOM      6  C   LIG d   1      -1.869  77.679 116.380  0.00  0.00     0.091 C 
ENDROOT
BRANCH   1   7
ATOM      7  O   LIG d   1      -3.680  78.847 117.546  0.00  0.00    -0.368 OA
BRANCH   7   8
ATOM      8  C   LIG d   1      -4.716  77.986 117.014  0.00  0.00     0.119 C 
BRANCH   8   9
ATOM      9  C   LIG d   1      -6.066  78.695 117.236  0.00  0.00     0.028 C 
ATOM     10  C   LIG d   1      -5.896  80.168 117.644  0.00  0.00     0.006 C 
ENDBRANCH   8   9
BRANCH   8  11
ATOM     11  C   LIG d   1      -4.812  76.676 117.801  0.00  0.00     0.028 C 
ATOM     12  C   LIG d   1      -4.438  76.843 119.282  0.00  0.00     0.006 C 
ENDBRANCH   8  11
ENDBRANCH   7   8
ENDBRANCH   1   7
BRANCH   6  13
ATOM     13  N   LIG d   1      -1.141  77.223 117.593  0.00  0.00    -0.311 N 
ATOM     14  C   LIG d   1      -1.082  75.950 117.978  0.00  0.00     0.210 C 
ATOM     15  C   LIG d   1      -0.297  75.699 119.269  0.00  0.00     0.109 C 
ATOM     16  O   LIG d   1      -1.579  74.999 117.355  0.00  0.00    -0.276 OA
ATOM     17  H   LIG d   1      -0.683  77.925 118.141  0.00  0.00     0.149 HD
ENDBRANCH   6  13
BRANCH   5  18
ATOM     18  N   LIG d   1      -0.400  76.470 114.727  0.00  0.00     0.381 N 
ATOM     19  H   LIG d   1       0.599  76.516 114.699  0.00  0.00    -0.090 HD
ATOM     20  H   LIG d   1      -0.732  76.256 113.803  0.00  0.00    -0.090 HD
ATOM     21  H   LIG d   1      -0.688  75.760 115.364  0.00  0.00    -0.090 HD
ENDBRANCH   5  18
BRANCH   3  22
ATOM     22  C   LIG d   1      -2.654  80.432 113.258  0.00  0.00     0.382 C 
ATOM     23  O   LIG d   1      -2.123  80.258 112.134  0.00  0.00    -0.241 OA
ATOM     24  O   LIG d   1      -3.339  81.452 113.462  0.00  0.00    -0.241 OA
ENDBRANCH   3  22
TORSDOF 7
ENDMDL
MODEL 3
REMARK VINA RESULT:      -4.7      2.025      2.978
REMARK  7 active torsions:
REMARK  status: ('A' for Active; 'I' for Inactive)
REMARK    1  A    between atoms: C_2  and  C_3 
REMARK    2  A    between atoms: C_3  and  O_6 
REMARK    3  A    between atoms: C_3  and  C_4 
REMARK    4  A    between atoms: C_7  and  O_6 
REMARK    5  A    between atoms: C_9  and  C_10 
REMARK    6  A    between atoms: N_15  and  C_14 
REMARK    7  A    between atoms: N_20  and  C_19 
REMARK       I    between atoms: C_22  and  N_20 
ROOT
ATOM      1  C   LIG d   1      -2.958  78.454 116.661  0.00  0.00     0.161 C 
ATOM      2  C   LIG d   1      -3.192  79.280 115.549  0.00  0.00     0.016 C 
ATOM      3  C   LIG d   1      -2.470  79.177 114.337  0.00  0.00     0.038 C 
ATOM      4  C   LIG d   1      -1.561  78.135 114.102  0.00  0.00     0.028 C 
ATOM      5  C   LIG d   1      -0.928  77.584 115.375  0.00  0.00    -0.047 C 
ATOM      6  C   LIG d   1      -2.047  77.239 116.384  0.00  0.00     0.091 C 
ENDROOT
BRANCH   1   7
ATOM      7  O   LIG d   1      -4.213  78.022 117.221  0.00  0.00    -0.368 OA
BRANCH   7   8
ATOM      8  C   LIG d   1      -4.619  76.667 116.906  0.00  0.00     0.119 C 
BRANCH   8   9
ATOM      9  C   LIG d   1      -5.863  76.756 116.001  0.00  0.00     0.028 C 
ATOM     10  C   LIG d   1      -5.739  75.878 114.744  0.00  0.00     0.006 C 
ENDBRANCH   8   9
BRANCH   8  11
ATOM     11  C   LIG d   1      -5.082  75.918 118.159  0.00  0.00     0.028 C 
ATOM     12  C   LIG d   1      -4.863  74.400 118.061  0.00  0.00     0.006 C 
ENDBRANCH   8  11
ENDBRANCH   7   8
ENDBRANCH   1   7
BRANCH   6  13
ATOM     13  N   LIG d   1      -1.511  76.772 117.689  0.00  0.00    -0.311 N 
ATOM     14  C   LIG d   1      -1.319  75.488 117.985  0.00  0.00     0.210 C 
ATOM     15  C   LIG d   1      -0.776  75.224 119.393  0.00  0.00     0.109 C 
ATOM     16  O   LIG d   1      -1.516  74.545 117.205  0.00  0.00    -0.276 OA
ATOM     17  H   LIG d   1      -1.294  77.473 118.370  0.00  0.00     0.149 HD
ENDBRANCH   6  13
BRANCH   5  18
ATOM     18  N   LIG d   1      -0.110  76.416 114.997  0.00  0.00     0.381 N 
ATOM     19  H   LIG d   1      -0.654  75.788 114.438  0.00  0.00    -0.090 HD
ATOM     20  H   LIG d   1       0.171  75.932 115.831  0.00  0.00    -0.090 HD
ATOM     21  H   LIG d   1       0.694  76.712 114.489  0.00  0.00    -0.090 HD
ENDBRANCH   5  18
BRANCH   3  22
ATOM     22  C   LIG d   1      -2.625  80.149 113.360  0.00  0.00     0.382 C 
ATOM     23  O   LIG d   1      -3.270  81.195 113.613  0.00  0.00    -0.241 OA
ATOM     24  O   LIG d   1      -2.167  79.973 112.216  0.00  0.00    -0.241 OA
ENDBRANCH   3  22
TORSDOF 7
ENDMDL
MODEL 4
REMARK VINA RESULT:      -4.7      2.656      5.416
REMARK  7 active torsions:
REMARK  status: ('A' for Active; 'I' for Inactive)
REMARK    1  A    between atoms: C_2  and  C_3 
REMARK    2  A    between atoms: C_3  and  O_6 
REMARK    3  A    between atoms: C_3  and  C_4 
REMARK    4  A    between atoms: C_7  and  O_6 
REMARK    5  A    between atoms: C_9  and  C_10 
REMARK    6  A    between atoms: N_15  and  C_14 
REMARK    7  A    between atoms: N_20  and  C_19 
REMARK       I    between atoms: C_22  and  N_20 
ROOT
ATOM      1  C   LIG d   1      -1.809  76.115 115.303  0.00  0.00     0.161 C 
ATOM      2  C   LIG d   1      -1.449  76.027 116.658  0.00  0.00     0.016 C 
ATOM      3  C   LIG d   1      -0.927  77.114 117.396  0.00  0.00     0.038 C 
ATOM      4  C   LIG d   1      -0.872  78.412 116.867  0.00  0.00     0.028 C 
ATOM      5  C   LIG d   1      -0.752  78.441 115.347  0.00  0.00    -0.047 C 
ATOM      6  C   LIG d   1      -1.860  77.551 114.739  0.00  0.00     0.091 C 
ENDROOT
BRANCH   1   7
ATOM      7  O   LIG d   1      -3.069  75.448 115.088  0.00  0.00    -0.368 OA
BRANCH   7   8
ATOM      8  C   LIG d   1      -4.010  75.493 116.188  0.00  0.00     0.119 C 
BRANCH   8   9
ATOM      9  C   LIG d   1      -4.816  74.180 116.162  0.00  0.00     0.028 C 
ATOM     10  C   LIG d   1      -5.903  74.180 115.075  0.00  0.00     0.006 C 
ENDBRANCH   8   9
BRANCH   8  11
ATOM     11  C   LIG d   1      -5.043  76.607 115.991  0.00  0.00     0.028 C 
ATOM     12  C   LIG d   1      -4.834  77.789 116.951  0.00  0.00     0.006 C 
ENDBRANCH   8  11
ENDBRANCH   7   8
ENDBRANCH   1   7
BRANCH   6  13
ATOM     13  N   LIG d   1      -1.763  77.456 113.259  0.00  0.00    -0.311 N 
ATOM     14  C   LIG d   1      -2.498  78.193 112.428  0.00  0.00     0.210 C 
ATOM     15  C   LIG d   1      -2.256  77.924 110.939  0.00  0.00     0.109 C 
ATOM     16  O   LIG d   1      -3.305  79.065 112.781  0.00  0.00    -0.276 OA
ATOM     17  H   LIG d   1      -1.110  76.795 112.886  0.00  0.00     0.149 HD
ENDBRANCH   6  13
BRANCH   5  18
ATOM     18  N   LIG d   1      -0.843  79.850 114.920  0.00  0.00     0.381 N 
ATOM     19  H   LIG d   1       0.021  80.318 115.107  0.00  0.00    -0.090 HD
ATOM     20  H   LIG d   1      -1.568  80.304 115.448  0.00  0.00    -0.090 HD
ATOM     21  H   LIG d   1      -1.051  79.899 113.946  0.00  0.00    -0.090 HD
ENDBRANCH   5  18
BRANCH   3  22
ATOM     22  C   LIG d   1      -0.417  76.899 118.668  0.00  0.00     0.382 C 
ATOM     23  O   LIG d   1      -0.299  75.730 119.106  0.00  0.00    -0.241 OA
ATOM     24  O   LIG d   1      -0.115  77.862 119.398  0.00  0.00    -0.241 OA
ENDBRANCH   3  22
TORSDOF 7
ENDMDL
MODEL 5
REMARK VINA RESULT:      -4.6      2.835      4.096
REMARK  7 active torsions:
REMARK  status: ('A' for Active; 'I' for Inactive)
REMARK    1  A    between atoms: C_2  and  C_3 
REMARK    2  A    between atoms: C_3  and  O_6 
REMARK    3  A    between atoms: C_3  and  C_4 
REMARK    4  A    between atoms: C_7  and  O_6 
REMARK    5  A    between atoms: C_9  and  C_10 
REMARK    6  A    between atoms: N_15  and  C_14 
REMARK    7  A    between atoms: N_20  and  C_19 
REMARK       I    between atoms: C_22  and  N_20 
ROOT
ATOM      1  C   LIG d   1      -2.906  76.873 115.229  0.00  0.00     0.161 C 
ATOM      2  C   LIG d   1      -2.785  77.086 113.845  0.00  0.00     0.016 C 
ATOM      3  C   LIG d   1      -2.155  78.221 113.285  0.00  0.00     0.038 C 
ATOM      4  C   LIG d   1      -1.466  79.153 114.077  0.00  0.00     0.028 C 
ATOM      5  C   LIG d   1      -1.995  79.244 115.504  0.00  0.00    -0.047 C 
ATOM      6  C   LIG d   1      -2.063  77.822 116.106  0.00  0.00     0.091 C 
ENDROOT
BRANCH   1   7
ATOM      7  O   LIG d   1      -2.600  75.499 115.540  0.00  0.00    -0.368 OA
BRANCH   7   8
ATOM      8  C   LIG d   1      -3.719  74.673 115.944  0.00  0.00     0.119 C 
BRANCH   8   9
ATOM      9  C   LIG d   1      -4.991  75.539 115.855  0.00  0.00     0.028 C 
ATOM     10  C   LIG d   1      -5.961  75.047 114.768  0.00  0.00     0.006 C 
ENDBRANCH   8   9
BRANCH   8  11
ATOM     11  C   LIG d   1      -3.608  74.266 117.417  0.00  0.00     0.028 C 
ATOM     12  C   LIG d   1      -4.834  74.684 118.244  0.00  0.00     0.006 C 
ENDBRANCH   8  11
ENDBRANCH   7   8
ENDBRANCH   1   7
BRANCH   6  13
ATOM     13  N   LIG d   1      -2.649  77.812 117.471  0.00  0.00    -0.311 N 
ATOM     14  C   LIG d   1      -2.020  77.318 118.536  0.00  0.00     0.210 C 
ATOM     15  C   LIG d   1      -2.811  77.388 119.846  0.00  0.00     0.109 C 
ATOM     16  O   LIG d   1      -0.868  76.858 118.526  0.00  0.00    -0.276 OA
ATOM     17  H   LIG d   1      -3.569  78.195 117.576  0.00  0.00     0.149 HD
ENDBRANCH   6  13
BRANCH   5  18
ATOM     18  N   LIG d   1      -1.101  80.147 116.253  0.00  0.00     0.381 N 
ATOM     19  H   LIG d   1      -1.206  81.083 115.918  0.00  0.00    -0.090 HD
ATOM     20  H   LIG d   1      -0.149  79.863 116.101  0.00  0.00    -0.090 HD
ATOM     21  H   LIG d   1      -1.314  80.108 117.226  0.00  0.00    -0.090 HD
ENDBRANCH   5  18
BRANCH   3  22
ATOM     22  C   LIG d   1      -2.245  78.455 111.922  0.00  0.00     0.382 C 
ATOM     23  O   LIG d   1      -2.925  77.688 111.198  0.00  0.00    -0.241 OA
ATOM     24  O   LIG d   1      -1.619  79.396 111.399  0.00  0.00    -0.241 OA
ENDBRANCH   3  22
TORSDOF 7
ENDMDL
MODEL 6
REMARK VINA RESULT:      -4.5      3.177      6.172
REMARK  7 active torsions:
REMARK  status: ('A' for Active; 'I' for Inactive)
REMARK    1  A    between atoms: C_2  and  C_3 
REMARK    2  A    between atoms: C_3  and  O_6 
REMARK    3  A    between atoms: C_3  and  C_4 
REMARK    4  A    between atoms: C_7  and  O_6 
REMARK    5  A    between atoms: C_9  and  C_10 
REMARK    6  A    between atoms: N_15  and  C_14 
REMARK    7  A    between atoms: N_20  and  C_19 
REMARK       I    between atoms: C_22  and  N_20 
ROOT
ATOM      1  C   LIG d   1      -4.815  78.575 117.018  0.00  0.00     0.161 C 
ATOM      2  C   LIG d   1      -4.688  77.320 116.399  0.00  0.00     0.016 C 
ATOM      3  C   LIG d   1      -5.763  76.415 116.247  0.00  0.00     0.038 C 
ATOM      4  C   LIG d   1      -7.082  76.769 116.571  0.00  0.00     0.028 C 
ATOM      5  C   LIG d   1      -7.173  77.831 117.661  0.00  0.00    -0.047 C 
ATOM      6  C   LIG d   1      -6.268  79.024 117.277  0.00  0.00     0.091 C 
ENDROOT
BRANCH   1   7
ATOM      7  O   LIG d   1      -4.112  79.572 116.250  0.00  0.00    -0.368 OA
BRANCH   7   8
ATOM      8  C   LIG d   1      -2.805  79.190 115.755  0.00  0.00     0.119 C 
BRANCH   8   9
ATOM      9  C   LIG d   1      -1.755  79.786 116.713  0.00  0.00     0.028 C 
ATOM     10  C   LIG d   1      -0.315  79.502 116.256  0.00  0.00     0.006 C 
ENDBRANCH   8   9
BRANCH   8  11
ATOM     11  C   LIG d   1      -2.517  79.827 114.392  0.00  0.00     0.028 C 
ATOM     12  C   LIG d   1      -2.430  78.793 113.258  0.00  0.00     0.006 C 
ENDBRANCH   8  11
ENDBRANCH   7   8
ENDBRANCH   1   7
BRANCH   6  13
ATOM     13  N   LIG d   1      -6.234  80.072 118.330  0.00  0.00    -0.311 N 
ATOM     14  C   LIG d   1      -6.547  81.347 118.107  0.00  0.00     0.210 C 
ATOM     15  C   LIG d   1      -6.426  82.266 119.326  0.00  0.00     0.109 C 
ATOM     16  O   LIG d   1      -6.944  81.798 117.021  0.00  0.00    -0.276 OA
ATOM     17  H   LIG d   1      -5.953  79.787 119.248  0.00  0.00     0.149 HD
ENDBRANCH   6  13
BRANCH   5  18
ATOM     18  N   LIG d   1      -8.593  78.205 117.801  0.00  0.00     0.381 N 
ATOM     19  H   LIG d   1      -8.977  77.777 118.620  0.00  0.00    -0.090 HD
ATOM     20  H   LIG d   1      -9.099  77.865 117.002  0.00  0.00    -0.090 HD
ATOM     21  H   LIG d   1      -8.681  79.195 117.863  0.00  0.00    -0.090 HD
ENDBRANCH   5  18
BRANCH   3  22
ATOM     22  C   LIG d   1      -5.518  75.125 115.803  0.00  0.00     0.382 C 
ATOM     23  O   LIG d   1      -5.452  74.180 116.626  0.00  0.00    -0.241 OA
ATOM     24  O   LIG d   1      -5.318  74.900 114.594  0.00  0.00    -0.241 OA
ENDBRANCH   3  22
TORSDOF 7
ENDMDL
MODEL 7
REMARK VINA RESULT:      -4.4      2.374      5.889
REMARK  7 active torsions:
REMARK  status: ('A' for Active; 'I' for Inactive)
REMARK    1  A    between atoms: C_2  and  C_3 
REMARK    2  A    between atoms: C_3  and  O_6 
REMARK    3  A    between atoms: C_3  and  C_4 
REMARK    4  A    between atoms: C_7  and  O_6 
REMARK    5  A    between atoms: C_9  and  C_10 
REMARK    6  A    between atoms: N_15  and  C_14 
REMARK    7  A    between atoms: N_20  and  C_19 
REMARK       I    between atoms: C_22  and  N_20 
ROOT
ATOM      1  C   LIG d   1      -3.150  78.242 115.969  0.00  0.00     0.161 C 
ATOM      2  C   LIG d   1      -2.471  77.029 115.768  0.00  0.00     0.016 C 
ATOM      3  C   LIG d   1      -2.814  75.827 116.428  0.00  0.00     0.038 C 
ATOM      4  C   LIG d   1      -3.964  75.720 117.225  0.00  0.00     0.028 C 
ATOM      5  C   LIG d   1      -4.388  77.042 117.855  0.00  0.00    -0.047 C 
ATOM      6  C   LIG d   1      -4.475  78.120 116.750  0.00  0.00     0.091 C 
ENDROOT
BRANCH   1   7
ATOM      7  O   LIG d   1      -3.373  78.893 114.703  0.00  0.00    -0.368 OA
BRANCH   7   8
ATOM      8  C   LIG d   1      -2.388  78.635 113.672  0.00  0.00     0.119 C 
BRANCH   8   9
ATOM      9  C   LIG d   1      -1.648  79.959 113.397  0.00  0.00     0.028 C 
ATOM     10  C   LIG d   1      -2.588  81.062 112.883  0.00  0.00     0.006 C 
ENDBRANCH   8   9
BRANCH   8  11
ATOM     11  C   LIG d   1      -3.056  78.262 112.345  0.00  0.00     0.028 C 
ATOM     12  C   LIG d   1      -2.090  77.579 111.363  0.00  0.00     0.006 C 
ENDBRANCH   8  11
ENDBRANCH   7   8
ENDBRANCH   1   7
BRANCH   6  13
ATOM     13  N   LIG d   1      -4.802  79.464 117.294  0.00  0.00    -0.311 N 
ATOM     14  C   LIG d   1      -6.049  79.905 117.457  0.00  0.00     0.210 C 
ATOM     15  C   LIG d   1      -6.163  81.328 118.014  0.00  0.00     0.109 C 
ATOM     16  O   LIG d   1      -7.070  79.241 117.225  0.00  0.00    -0.276 OA
ATOM     17  H   LIG d   1      -4.034  80.057 117.538  0.00  0.00     0.149 HD
ENDBRANCH   6  13
BRANCH   5  18
ATOM     18  N   LIG d   1      -5.673  76.816 118.544  0.00  0.00     0.381 N 
ATOM     19  H   LIG d   1      -5.597  76.024 119.151  0.00  0.00    -0.090 HD
ATOM     20  H   LIG d   1      -6.380  76.620 117.857  0.00  0.00    -0.090 HD
ATOM     21  H   LIG d   1      -5.925  77.624 119.070  0.00  0.00    -0.090 HD
ENDBRANCH   5  18
BRANCH   3  22
ATOM     22  C   LIG d   1      -1.981  74.724 116.324  0.00  0.00     0.382 C 
ATOM     23  O   LIG d   1      -1.524  74.183 117.360  0.00  0.00    -0.241 OA
ATOM     24  O   LIG d   1      -1.643  74.289 115.206  0.00  0.00    -0.241 OA
ENDBRANCH   3  22
TORSDOF 7
ENDMDL
MODEL 8
REMARK VINA RESULT:      -4.2      1.880      2.139
REMARK  7 active torsions:
REMARK  status: ('A' for Active; 'I' for Inactive)
REMARK    1  A    between atoms: C_2  and  C_3 
REMARK    2  A    between atoms: C_3  and  O_6 
REMARK    3  A    between atoms: C_3  and  C_4 
REMARK    4  A    between atoms: C_7  and  O_6 
REMARK    5  A    between atoms: C_9  and  C_10 
REMARK    6  A    between atoms: N_15  and  C_14 
REMARK    7  A    between atoms: N_20  and  C_19 
REMARK       I    between atoms: C_22  and  N_20 
ROOT
ATOM      1  C   LIG d   1      -3.654  78.739 116.673  0.00  0.00     0.161 C 
ATOM      2  C   LIG d   1      -2.920  79.440 115.702  0.00  0.00     0.016 C 
ATOM      3  C   LIG d   1      -1.993  78.823 114.831  0.00  0.00     0.038 C 
ATOM      4  C   LIG d   1      -1.848  77.429 114.769  0.00  0.00     0.028 C 
ATOM      5  C   LIG d   1      -2.197  76.726 116.077  0.00  0.00    -0.047 C 
ATOM      6  C   LIG d   1      -3.591  77.202 116.547  0.00  0.00     0.091 C 
ENDROOT
BRANCH   1   7
ATOM      7  O   LIG d   1      -5.024  79.186 116.668  0.00  0.00    -0.368 OA
BRANCH   7   8
ATOM      8  C   LIG d   1      -5.311  80.368 117.455  0.00  0.00     0.119 C 
BRANCH   8   9
ATOM      9  C   LIG d   1      -4.725  80.142 118.862  0.00  0.00     0.028 C 
ATOM     10  C   LIG d   1      -3.924  81.354 119.367  0.00  0.00     0.006 C 
ENDBRANCH   8   9
BRANCH   8  11
ATOM     11  C   LIG d   1      -6.818  80.544 117.667  0.00  0.00     0.028 C 
ATOM     12  C   LIG d   1      -7.265  82.012 117.576  0.00  0.00     0.006 C 
ENDBRANCH   8  11
ENDBRANCH   7   8
ENDBRANCH   1   7
BRANCH   6  13
ATOM     13  N   LIG d   1      -3.973  76.626 117.862  0.00  0.00    -0.311 N 
ATOM     14  C   LIG d   1      -5.101  75.949 118.066  0.00  0.00     0.210 C 
ATOM     15  C   LIG d   1      -5.311  75.458 119.502  0.00  0.00     0.109 C 
ATOM     16  O   LIG d   1      -5.933  75.679 117.186  0.00  0.00    -0.276 OA
ATOM     17  H   LIG d   1      -3.340  76.771 118.625  0.00  0.00     0.149 HD
ENDBRANCH   6  13
BRANCH   5  18
ATOM     18  N   LIG d   1      -2.135  75.272 115.831  0.00  0.00     0.381 N 
ATOM     19  H   LIG d   1      -1.367  74.876 116.335  0.00  0.00    -0.090 HD
ATOM     20  H   LIG d   1      -1.985  75.114 114.851  0.00  0.00    -0.090 HD
ATOM     21  H   LIG d   1      -2.987  74.842 116.118  0.00  0.00    -0.090 HD
ENDBRANCH   5  18
BRANCH   3  22
ATOM     22  C   LIG d   1      -1.171  79.606 114.035  0.00  0.00     0.382 C 
ATOM     23  O   LIG d   1      -0.288  80.324 114.563  0.00  0.00    -0.241 OA
ATOM     24  O   LIG d   1      -1.330  79.638 112.800  0.00  0.00    -0.241 OA
ENDBRANCH   3  22
TORSDOF 7
ENDMDL
MODEL 9
REMARK VINA RESULT:      -4.0      2.940      5.199
REMARK  7 active torsions:
REMARK  status: ('A' for Active; 'I' for Inactive)
REMARK    1  A    between atoms: C_2  and  C_3 
REMARK    2  A    between atoms: C_3  and  O_6 
REMARK    3  A    between atoms: C_3  and  C_4 
REMARK    4  A    between atoms: C_7  and  O_6 
REMARK    5  A    between atoms: C_9  and  C_10 
REMARK    6  A    between atoms: N_15  and  C_14 
REMARK    7  A    between atoms: N_20  and  C_19 
REMARK       I    between atoms: C_22  and  N_20 
ROOT
ATOM      1  C   LIG d   1      -4.712  79.236 117.217  0.00  0.00     0.161 C 
ATOM      2  C   LIG d   1      -5.339  80.477 117.420  0.00  0.00     0.016 C 
ATOM      3  C   LIG d   1      -6.730  80.620 117.633  0.00  0.00     0.038 C 
ATOM      4  C   LIG d   1      -7.571  79.512 117.810  0.00  0.00     0.028 C 
ATOM      5  C   LIG d   1      -7.068  78.253 117.112  0.00  0.00    -0.047 C 
ATOM      6  C   LIG d   1      -5.596  78.008 117.517  0.00  0.00     0.091 C 
ENDROOT
BRANCH   1   7
ATOM      7  O   LIG d   1      -3.492  79.174 117.982  0.00  0.00    -0.368 OA
BRANCH   7   8
ATOM      8  C   LIG d   1      -2.260  79.214 117.221  0.00  0.00     0.119 C 
BRANCH   8   9
ATOM      9  C   LIG d   1      -2.638  79.247 115.728  0.00  0.00     0.028 C 
ATOM     10  C   LIG d   1      -2.065  78.050 114.951  0.00  0.00     0.006 C 
ENDBRANCH   8   9
BRANCH   8  11
ATOM     11  C   LIG d   1      -1.450  77.927 117.406  0.00  0.00     0.028 C 
ATOM     12  C   LIG d   1      -1.869  77.133 118.653  0.00  0.00     0.006 C 
ENDBRANCH   8  11
ENDBRANCH   7   8
ENDBRANCH   1   7
BRANCH   6  13
ATOM     13  N   LIG d   1      -5.001  76.843 116.812  0.00  0.00    -0.311 N 
ATOM     14  C   LIG d   1      -5.013  75.605 117.303  0.00  0.00     0.210 C 
ATOM     15  C   LIG d   1      -4.326  74.554 116.425  0.00  0.00     0.109 C 
ATOM     16  O   LIG d   1      -5.555  75.271 118.368  0.00  0.00    -0.276 OA
ATOM     17  H   LIG d   1      -4.567  77.018 115.927  0.00  0.00     0.149 HD
ENDBRANCH   6  13
BRANCH   5  18
ATOM     18  N   LIG d   1      -7.964  77.144 117.492  0.00  0.00     0.381 N 
ATOM     19  H   LIG d   1      -8.727  77.496 118.035  0.00  0.00    -0.090 HD
ATOM     20  H   LIG d   1      -7.451  76.490 118.056  0.00  0.00    -0.090 HD
ATOM     21  H   LIG d   1      -8.310  76.690 116.675  0.00  0.00    -0.090 HD
ENDBRANCH   5  18
BRANCH   3  22
ATOM     22  C   LIG d   1      -7.298  81.885 117.633  0.00  0.00     0.382 C 
ATOM     23  O   LIG d   1      -7.392  82.531 118.704  0.00  0.00    -0.241 OA
ATOM     24  O   LIG d   1      -7.759  82.370 116.582  0.00  0.00    -0.241 OA
ENDBRANCH   3  22
TORSDOF 7
ENDMDL
