MODEL 1
REMARK VINA RESULT:      -5.3      0.000      0.000
REMARK  7 active torsions:
REMARK  status: ('A' for Active; 'I' for Inactive)
REMARK    1  A    between atoms: C_2  and  C_3 
REMARK    2  A    between atoms: C_3  and  O_6 
REMARK    3  A    between atoms: C_3  and  C_4 
REMARK    4  A    between atoms: C_7  and  O_6 
REMARK    5  A    between atoms: C_9  and  C_10 
REMARK    6  A    between atoms: N_15  and  C_14 
REMARK    7  A    between atoms: N_20  and  C_19 
REMARK       I    between atoms: C_22  and  N_20 
ROOT
ATOM      1  C   LIG d   1      -1.645  76.242 115.200  0.00  0.00     0.161 C 
ATOM      2  C   LIG d   1      -1.534  75.511 116.395  0.00  0.00     0.016 C 
ATOM      3  C   LIG d   1      -0.864  75.994 117.543  0.00  0.00     0.038 C 
ATOM      4  C   LIG d   1      -0.387  77.310 117.624  0.00  0.00     0.028 C 
ATOM      5  C   LIG d   1      -0.032  77.911 116.268  0.00  0.00    -0.047 C 
ATOM      6  C   LIG d   1      -1.228  77.724 115.308  0.00  0.00     0.091 C 
ENDROOT
BRANCH   1   7
ATOM      7  O   LIG d   1      -2.988  76.136 114.686  0.00  0.00    -0.368 OA
BRANCH   7   8
ATOM      8  C   LIG d   1      -4.021  75.840 115.657  0.00  0.00     0.119 C 
BRANCH   8   9
ATOM      9  C   LIG d   1      -5.034  74.896 114.983  0.00  0.00     0.028 C 
ATOM     10  C   LIG d   1      -6.043  75.650 114.101  0.00  0.00     0.006 C 
ENDBRANCH   8   9
BRANCH   8  11
ATOM     11  C   LIG d   1      -4.818  77.096 116.022  0.00  0.00     0.028 C 
ATOM     12  C   LIG d   1      -4.208  77.868 117.202  0.00  0.00     0.006 C 
ENDBRANCH   8  11
ENDBRANCH   7   8
ENDBRANCH   1   7
BRANCH   6  13
ATOM     13  N   LIG d   1      -0.933  78.209 113.934  0.00  0.00    -0.311 N 
ATOM     14  C   LIG d   1      -1.716  79.059 113.273  0.00  0.00     0.210 C 
ATOM     15  C   LIG d   1      -1.239  79.414 111.861  0.00  0.00     0.109 C 
ATOM     16  O   LIG d   1      -2.744  79.578 113.733  0.00  0.00    -0.276 OA
ATOM     17  H   LIG d   1      -0.102  77.862 113.497  0.00  0.00     0.149 HD
ENDBRANCH   6  13
BRANCH   5  18
ATOM     18  N   LIG d   1       0.319  79.327 116.486  0.00  0.00     0.381 N 
ATOM     19  H   LIG d   1      -0.319  79.738 117.139  0.00  0.00    -0.090 HD
ATOM     20  H   LIG d   1       0.238  79.820 115.614  0.00  0.00    -0.090 HD
ATOM     21  H   LIG d   1       1.250  79.399 116.832  0.00  0.00    -0.090 HD
ENDBRANCH   5  18
BRANCH   3  22
ATOM     22  C   LIG d   1      -0.630  75.141 118.611  0.00  0.00     0.382 C 
ATOM     23  O   LIG d   1       0.440  74.489 118.670  0.00  0.00    -0.241 OA
ATOM     24  O   LIG d   1      -1.495  74.982 119.493  0.00  0.00    -0.241 OA
ENDBRANCH   3  22
TORSDOF 7
ENDMDL
MODEL 2
REMARK VINA RESULT:      -5.2      2.356      5.445
REMARK  7 active torsions:
REMARK  status: ('A' for Active; 'I' for Inactive)
REMARK    1  A    between atoms: C_2  and  C_3 
REMARK    2  A    between atoms: C_3  and  O_6 
REMARK    3  A    between atoms: C_3  and  C_4 
REMARK    4  A    between atoms: C_7  and  O_6 
REMARK    5  A    between atoms: C_9  and  C_10 
REMARK    6  A    between atoms: N_15  and  C_14 
REMARK    7  A    between atoms: N_20  and  C_19 
REMARK       I    between atoms: C_22  and  N_20 
ROOT
ATOM      1  C   LIG d   1      -2.676  78.200 116.077  0.00  0.00     0.161 C 
ATOM      2  C   LIG d   1      -2.939  79.035 114.978  0.00  0.00     0.016 C 
ATOM      3  C   LIG d   1      -2.348  78.857 113.706  0.00  0.00     0.038 C 
ATOM      4  C   LIG d   1      -1.563  77.734 113.404  0.00  0.00     0.028 C 
ATOM      5  C   LIG d   1      -0.864  77.138 114.621  0.00  0.00    -0.047 C 
ATOM      6  C   LIG d   1      -1.909  76.905 115.736  0.00  0.00     0.091 C 
ENDROOT
BRANCH   1   7
ATOM      7  O   LIG d   1      -3.907  77.889 116.760  0.00  0.00    -0.368 OA
BRANCH   7   8
ATOM      8  C   LIG d   1      -4.356  78.859 117.737  0.00  0.00     0.119 C 
BRANCH   8   9
ATOM      9  C   LIG d   1      -3.589  78.588 119.045  0.00  0.00     0.028 C 
ATOM     10  C   LIG d   1      -2.813  79.822 119.536  0.00  0.00     0.006 C 
ENDBRANCH   8   9
BRANCH   8  11
ATOM     11  C   LIG d   1      -5.834  78.657 118.084  0.00  0.00     0.028 C 
ATOM     12  C   LIG d   1      -6.531  79.960 118.505  0.00  0.00     0.006 C 
ENDBRANCH   8  11
ENDBRANCH   7   8
ENDBRANCH   1   7
BRANCH   6  13
ATOM     13  N   LIG d   1      -1.296  76.402 116.992  0.00  0.00    -0.311 N 
ATOM     14  C   LIG d   1      -1.185  75.108 117.287  0.00  0.00     0.210 C 
ATOM     15  C   LIG d   1      -0.539  74.806 118.643  0.00  0.00     0.109 C 
ATOM     16  O   LIG d   1      -1.532  74.180 116.541  0.00  0.00    -0.276 OA
ATOM     17  H   LIG d   1      -0.959  77.086 117.641  0.00  0.00     0.149 HD
ENDBRANCH   6  13
BRANCH   5  18
ATOM     18  N   LIG d   1      -0.195  75.897 114.187  0.00  0.00     0.381 N 
ATOM     19  H   LIG d   1       0.209  76.029 113.281  0.00  0.00    -0.090 HD
ATOM     20  H   LIG d   1      -0.879  75.164 114.124  0.00  0.00    -0.090 HD
ATOM     21  H   LIG d   1       0.513  75.645 114.841  0.00  0.00    -0.090 HD
ENDBRANCH   5  18
BRANCH   3  22
ATOM     22  C   LIG d   1      -2.507  79.831 112.732  0.00  0.00     0.382 C 
ATOM     23  O   LIG d   1      -1.791  79.810 111.702  0.00  0.00    -0.241 OA
ATOM     24  O   LIG d   1      -3.327  80.755 112.890  0.00  0.00    -0.241 OA
ENDBRANCH   3  22
TORSDOF 7
ENDMDL
MODEL 3
REMARK VINA RESULT:      -5.0      2.657      5.503
REMARK  7 active torsions:
REMARK  status: ('A' for Active; 'I' for Inactive)
REMARK    1  A    between atoms: C_2  and  C_3 
REMARK    2  A    between atoms: C_3  and  O_6 
REMARK    3  A    between atoms: C_3  and  C_4 
REMARK    4  A    between atoms: C_7  and  O_6 
REMARK    5  A    between atoms: C_9  and  C_10 
REMARK    6  A    between atoms: N_15  and  C_14 
REMARK    7  A    between atoms: N_20  and  C_19 
REMARK       I    between atoms: C_22  and  N_20 
ROOT
ATOM      1  C   LIG d   1      -2.111  78.322 114.775  0.00  0.00     0.161 C 
ATOM      2  C   LIG d   1      -2.652  79.519 114.277  0.00  0.00     0.016 C 
ATOM      3  C   LIG d   1      -2.617  79.879 112.910  0.00  0.00     0.038 C 
ATOM      4  C   LIG d   1      -2.170  78.991 111.920  0.00  0.00     0.028 C 
ATOM      5  C   LIG d   1      -1.153  77.977 112.432  0.00  0.00    -0.047 C 
ATOM      6  C   LIG d   1      -1.719  77.291 113.696  0.00  0.00     0.091 C 
ENDROOT
BRANCH   1   7
ATOM      7  O   LIG d   1      -3.021  77.732 115.724  0.00  0.00    -0.368 OA
BRANCH   7   8
ATOM      8  C   LIG d   1      -3.505  78.608 116.772  0.00  0.00     0.119 C 
BRANCH   8   9
ATOM      9  C   LIG d   1      -2.596  78.407 118.000  0.00  0.00     0.028 C 
ATOM     10  C   LIG d   1      -2.015  76.985 118.073  0.00  0.00     0.006 C 
ENDBRANCH   8   9
BRANCH   8  11
ATOM     11  C   LIG d   1      -4.908  78.202 117.234  0.00  0.00     0.028 C 
ATOM     12  C   LIG d   1      -5.378  78.986 118.470  0.00  0.00     0.006 C 
ENDBRANCH   8  11
ENDBRANCH   7   8
ENDBRANCH   1   7
BRANCH   6  13
ATOM     13  N   LIG d   1      -0.751  76.344 114.309  0.00  0.00    -0.311 N 
ATOM     14  C   LIG d   1      -1.113  75.212 114.910  0.00  0.00     0.210 C 
ATOM     15  C   LIG d   1       0.041  74.391 115.492  0.00  0.00     0.109 C 
ATOM     16  O   LIG d   1      -2.278  74.794 114.987  0.00  0.00    -0.276 OA
ATOM     17  H   LIG d   1       0.219  76.590 114.264  0.00  0.00     0.149 HD
ENDBRANCH   6  13
BRANCH   5  18
ATOM     18  N   LIG d   1      -0.877  77.030 111.334  0.00  0.00     0.381 N 
ATOM     19  H   LIG d   1      -1.635  77.038 110.681  0.00  0.00    -0.090 HD
ATOM     20  H   LIG d   1      -0.800  76.103 111.716  0.00  0.00    -0.090 HD
ATOM     21  H   LIG d   1      -0.030  77.279 110.874  0.00  0.00    -0.090 HD
ENDBRANCH   5  18
BRANCH   3  22
ATOM     22  C   LIG d   1      -2.996  81.156 112.526  0.00  0.00     0.382 C 
ATOM     23  O   LIG d   1      -2.123  82.020 112.274  0.00  0.00    -0.241 OA
ATOM     24  O   LIG d   1      -4.201  81.468 112.471  0.00  0.00    -0.241 OA
ENDBRANCH   3  22
TORSDOF 7
ENDMDL
MODEL 4
REMARK VINA RESULT:      -4.9      1.778      2.177
REMARK  7 active torsions:
REMARK  status: ('A' for Active; 'I' for Inactive)
REMARK    1  A    between atoms: C_2  and  C_3 
REMARK    2  A    between atoms: C_3  and  O_6 
REMARK    3  A    between atoms: C_3  and  C_4 
REMARK    4  A    between atoms: C_7  and  O_6 
REMARK    5  A    between atoms: C_9  and  C_10 
REMARK    6  A    between atoms: N_15  and  C_14 
REMARK    7  A    between atoms: N_20  and  C_19 
REMARK       I    between atoms: C_22  and  N_20 
ROOT
ATOM      1  C   LIG d   1      -3.199  76.962 115.547  0.00  0.00     0.161 C 
ATOM      2  C   LIG d   1      -2.887  76.956 116.917  0.00  0.00     0.016 C 
ATOM      3  C   LIG d   1      -1.811  77.685 117.473  0.00  0.00     0.038 C 
ATOM      4  C   LIG d   1      -1.062  78.597 116.714  0.00  0.00     0.028 C 
ATOM      5  C   LIG d   1      -1.019  78.256 115.228  0.00  0.00    -0.047 C 
ATOM      6  C   LIG d   1      -2.463  78.037 114.721  0.00  0.00     0.091 C 
ENDROOT
BRANCH   1   7
ATOM      7  O   LIG d   1      -4.625  77.085 115.372  0.00  0.00    -0.368 OA
BRANCH   7   8
ATOM      8  C   LIG d   1      -5.419  75.952 115.801  0.00  0.00     0.119 C 
BRANCH   8   9
ATOM      9  C   LIG d   1      -5.792  75.145 114.542  0.00  0.00     0.028 C 
ATOM     10  C   LIG d   1      -6.179  76.048 113.359  0.00  0.00     0.006 C 
ENDBRANCH   8   9
BRANCH   8  11
ATOM     11  C   LIG d   1      -6.754  76.403 116.402  0.00  0.00     0.028 C 
ATOM     12  C   LIG d   1      -7.747  75.244 116.585  0.00  0.00     0.006 C 
ENDBRANCH   8  11
ENDBRANCH   7   8
ENDBRANCH   1   7
BRANCH   6  13
ATOM     13  N   LIG d   1      -2.506  77.617 113.296  0.00  0.00    -0.311 N 
ATOM     14  C   LIG d   1      -2.728  78.460 112.289  0.00  0.00     0.210 C 
ATOM     15  C   LIG d   1      -2.752  77.816 110.900  0.00  0.00     0.109 C 
ATOM     16  O   LIG d   1      -2.877  79.685 112.413  0.00  0.00    -0.276 OA
ATOM     17  H   LIG d   1      -2.364  76.645 113.103  0.00  0.00     0.149 HD
ENDBRANCH   6  13
BRANCH   5  18
ATOM     18  N   LIG d   1      -0.325  79.359 114.538  0.00  0.00     0.381 N 
ATOM     19  H   LIG d   1      -0.111  79.090 113.598  0.00  0.00    -0.090 HD
ATOM     20  H   LIG d   1       0.539  79.549 115.015  0.00  0.00    -0.090 HD
ATOM     21  H   LIG d   1      -0.897  80.174 114.535  0.00  0.00    -0.090 HD
ENDBRANCH   5  18
BRANCH   3  22
ATOM     22  C   LIG d   1      -1.450  77.476 118.795  0.00  0.00     0.382 C 
ATOM     23  O   LIG d   1      -1.291  78.455 119.564  0.00  0.00    -0.241 OA
ATOM     24  O   LIG d   1      -1.237  76.324 119.217  0.00  0.00    -0.241 OA
ENDBRANCH   3  22
TORSDOF 7
ENDMDL
MODEL 5
REMARK VINA RESULT:      -4.6      2.675      5.234
REMARK  7 active torsions:
REMARK  status: ('A' for Active; 'I' for Inactive)
REMARK    1  A    between atoms: C_2  and  C_3 
REMARK    2  A    between atoms: C_3  and  O_6 
REMARK    3  A    between atoms: C_3  and  C_4 
REMARK    4  A    between atoms: C_7  and  O_6 
REMARK    5  A    between atoms: C_9  and  C_10 
REMARK    6  A    between atoms: N_15  and  C_14 
REMARK    7  A    between atoms: N_20  and  C_19 
REMARK       I    between atoms: C_22  and  N_20 
ROOT
ATOM      1  C   LIG d   1      -4.047  77.906 117.020  0.00  0.00     0.161 C 
ATOM      2  C   LIG d   1      -4.890  77.192 116.152  0.00  0.00     0.016 C 
ATOM      3  C   LIG d   1      -4.475  76.048 115.432  0.00  0.00     0.038 C 
ATOM      4  C   LIG d   1      -3.226  75.448 115.649  0.00  0.00     0.028 C 
ATOM      5  C   LIG d   1      -2.162  76.424 116.138  0.00  0.00    -0.047 C 
ATOM      6  C   LIG d   1      -2.715  77.201 117.354  0.00  0.00     0.091 C 
ENDROOT
BRANCH   1   7
ATOM      7  O   LIG d   1      -4.757  78.234 118.231  0.00  0.00    -0.368 OA
BRANCH   7   8
ATOM      8  C   LIG d   1      -6.083  78.793 118.060  0.00  0.00     0.119 C 
BRANCH   8   9
ATOM      9  C   LIG d   1      -6.004  80.290 118.416  0.00  0.00     0.028 C 
ATOM     10  C   LIG d   1      -7.389  80.957 118.461  0.00  0.00     0.006 C 
ENDBRANCH   8   9
BRANCH   8  11
ATOM     11  C   LIG d   1      -7.075  78.191 119.059  0.00  0.00     0.028 C 
ATOM     12  C   LIG d   1      -8.014  77.158 118.417  0.00  0.00     0.006 C 
ENDBRANCH   8  11
ENDBRANCH   7   8
ENDBRANCH   1   7
BRANCH   6  13
ATOM     13  N   LIG d   1      -1.769  78.237 117.843  0.00  0.00    -0.311 N 
ATOM     14  C   LIG d   1      -0.895  78.026 118.826  0.00  0.00     0.210 C 
ATOM     15  C   LIG d   1      -0.026  79.234 119.189  0.00  0.00     0.109 C 
ATOM     16  O   LIG d   1      -0.735  76.944 119.410  0.00  0.00    -0.276 OA
ATOM     17  H   LIG d   1      -1.809  79.136 117.404  0.00  0.00     0.149 HD
ENDBRANCH   6  13
BRANCH   5  18
ATOM     18  N   LIG d   1      -0.952  75.642 116.454  0.00  0.00     0.381 N 
ATOM     19  H   LIG d   1      -1.166  74.665 116.440  0.00  0.00    -0.090 HD
ATOM     20  H   LIG d   1      -0.641  75.883 117.379  0.00  0.00    -0.090 HD
ATOM     21  H   LIG d   1      -0.234  75.841 115.793  0.00  0.00    -0.090 HD
ENDBRANCH   5  18
BRANCH   3  22
ATOM     22  C   LIG d   1      -5.301  75.516 114.453  0.00  0.00     0.382 C 
ATOM     23  O   LIG d   1      -6.197  76.225 113.935  0.00  0.00    -0.241 OA
ATOM     24  O   LIG d   1      -5.190  74.323 114.114  0.00  0.00    -0.241 OA
ENDBRANCH   3  22
TORSDOF 7
ENDMDL
MODEL 6
REMARK VINA RESULT:      -4.3      1.936      4.724
REMARK  7 active torsions:
REMARK  status: ('A' for Active; 'I' for Inactive)
REMARK    1  A    between atoms: C_2  and  C_3 
REMARK    2  A    between atoms: C_3  and  O_6 
REMARK    3  A    between atoms: C_3  and  C_4 
REMARK    4  A    between atoms: C_7  and  O_6 
REMARK    5  A    between atoms: C_9  and  C_10 
REMARK    6  A    between atoms: N_15  and  C_14 
REMARK    7  A    between atoms: N_20  and  C_19 
REMARK       I    between atoms: C_22  and  N_20 
ROOT
ATOM      1  C   LIG d   1      -2.549  78.748 115.424  0.00  0.00     0.161 C 
ATOM      2  C   LIG d   1      -2.552  78.625 114.025  0.00  0.00     0.016 C 
ATOM      3  C   LIG d   1      -1.688  77.756 113.318  0.00  0.00     0.038 C 
ATOM      4  C   LIG d   1      -0.862  76.834 113.977  0.00  0.00     0.028 C 
ATOM      5  C   LIG d   1      -0.460  77.276 115.380  0.00  0.00    -0.047 C 
ATOM      6  C   LIG d   1      -1.732  77.669 116.166  0.00  0.00     0.091 C 
ENDROOT
BRANCH   1   7
ATOM      7  O   LIG d   1      -3.904  78.776 115.915  0.00  0.00    -0.368 OA
BRANCH   7   8
ATOM      8  C   LIG d   1      -4.332  77.618 116.673  0.00  0.00     0.119 C 
BRANCH   8   9
ATOM      9  C   LIG d   1      -5.214  76.759 115.747  0.00  0.00     0.028 C 
ATOM     10  C   LIG d   1      -4.465  75.537 115.190  0.00  0.00     0.006 C 
ENDBRANCH   8   9
BRANCH   8  11
ATOM     11  C   LIG d   1      -5.239  78.020 117.840  0.00  0.00     0.028 C 
ATOM     12  C   LIG d   1      -4.762  79.295 118.553  0.00  0.00     0.006 C 
ENDBRANCH   8  11
ENDBRANCH   7   8
ENDBRANCH   1   7
BRANCH   6  13
ATOM     13  N   LIG d   1      -1.422  78.193 117.522  0.00  0.00    -0.311 N 
ATOM     14  C   LIG d   1      -1.412  77.434 118.616  0.00  0.00     0.210 C 
ATOM     15  C   LIG d   1      -1.086  78.178 119.915  0.00  0.00     0.109 C 
ATOM     16  O   LIG d   1      -1.610  76.210 118.631  0.00  0.00    -0.276 OA
ATOM     17  H   LIG d   1      -1.218  79.170 117.597  0.00  0.00     0.149 HD
ENDBRANCH   6  13
BRANCH   5  18
ATOM     18  N   LIG d   1       0.283  76.163 116.002  0.00  0.00     0.381 N 
ATOM     19  H   LIG d   1       1.238  76.186 115.705  0.00  0.00    -0.090 HD
ATOM     20  H   LIG d   1      -0.120  75.294 115.699  0.00  0.00    -0.090 HD
ATOM     21  H   LIG d   1       0.234  76.233 116.995  0.00  0.00    -0.090 HD
ENDBRANCH   5  18
BRANCH   3  22
ATOM     22  C   LIG d   1      -1.617  77.834 111.935  0.00  0.00     0.382 C 
ATOM     23  O   LIG d   1      -1.141  76.877 111.278  0.00  0.00    -0.241 OA
ATOM     24  O   LIG d   1      -1.982  78.865 111.340  0.00  0.00    -0.241 OA
ENDBRANCH   3  22
TORSDOF 7
ENDMDL
MODEL 7
REMARK VINA RESULT:      -4.2      2.545      4.649
REMARK  7 active torsions:
REMARK  status: ('A' for Active; 'I' for Inactive)
REMARK    1  A    between atoms: C_2  and  C_3 
REMARK    2  A    between atoms: C_3  and  O_6 
REMARK    3  A    between atoms: C_3  and  C_4 
REMARK    4  A    between atoms: C_7  and  O_6 
REMARK    5  A    between atoms: C_9  and  C_10 
REMARK    6  A    between atoms: N_15  and  C_14 
REMARK    7  A    between atoms: N_20  and  C_19 
REMARK       I    between atoms: C_22  and  N_20 
ROOT
ATOM      1  C   LIG d   1      -1.867  78.026 115.038  0.00  0.00     0.161 C 
ATOM      2  C   LIG d   1      -2.937  78.584 115.757  0.00  0.00     0.016 C 
ATOM      3  C   LIG d   1      -3.208  78.280 117.111  0.00  0.00     0.038 C 
ATOM      4  C   LIG d   1      -2.332  77.507 117.886  0.00  0.00     0.028 C 
ATOM      5  C   LIG d   1      -1.513  76.515 117.068  0.00  0.00    -0.047 C 
ATOM      6  C   LIG d   1      -0.836  77.266 115.899  0.00  0.00     0.091 C 
ENDROOT
BRANCH   1   7
ATOM      7  O   LIG d   1      -1.214  79.048 114.260  0.00  0.00    -0.368 OA
BRANCH   7   8
ATOM      8  C   LIG d   1      -1.766  79.297 112.944  0.00  0.00     0.119 C 
BRANCH   8   9
ATOM      9  C   LIG d   1      -2.129  77.932 112.328  0.00  0.00     0.028 C 
ATOM     10  C   LIG d   1      -1.431  77.693 110.978  0.00  0.00     0.006 C 
ENDBRANCH   8   9
BRANCH   8  11
ATOM     11  C   LIG d   1      -0.717  79.900 112.005  0.00  0.00     0.028 C 
ATOM     12  C   LIG d   1      -0.693  81.436 112.045  0.00  0.00     0.006 C 
ENDBRANCH   8  11
ENDBRANCH   7   8
ENDBRANCH   1   7
BRANCH   6  13
ATOM     13  N   LIG d   1      -0.083  76.355 114.999  0.00  0.00    -0.311 N 
ATOM     14  C   LIG d   1      -0.497  75.128 114.685  0.00  0.00     0.210 C 
ATOM     15  C   LIG d   1       0.440  74.348 113.757  0.00  0.00     0.109 C 
ATOM     16  O   LIG d   1      -1.566  74.625 115.060  0.00  0.00    -0.276 OA
ATOM     17  H   LIG d   1       0.781  76.695 114.624  0.00  0.00     0.149 HD
ENDBRANCH   6  13
BRANCH   5  18
ATOM     18  N   LIG d   1      -0.547  75.874 117.980  0.00  0.00     0.381 N 
ATOM     19  H   LIG d   1      -0.193  76.550 118.627  0.00  0.00    -0.090 HD
ATOM     20  H   LIG d   1       0.224  75.520 117.441  0.00  0.00    -0.090 HD
ATOM     21  H   LIG d   1      -0.986  75.129 118.474  0.00  0.00    -0.090 HD
ENDBRANCH   5  18
BRANCH   3  22
ATOM     22  C   LIG d   1      -4.388  78.720 117.691  0.00  0.00     0.382 C 
ATOM     23  O   LIG d   1      -5.491  78.432 117.164  0.00  0.00    -0.241 OA
ATOM     24  O   LIG d   1      -4.363  79.437 118.709  0.00  0.00    -0.241 OA
ENDBRANCH   3  22
TORSDOF 7
ENDMDL
MODEL 8
REMARK VINA RESULT:      -4.2      2.776      5.581
REMARK  7 active torsions:
REMARK  status: ('A' for Active; 'I' for Inactive)
REMARK    1  A    between atoms: C_2  and  C_3 
REMARK    2  A    between atoms: C_3  and  O_6 
REMARK    3  A    between atoms: C_3  and  C_4 
REMARK    4  A    between atoms: C_7  and  O_6 
REMARK    5  A    between atoms: C_9  and  C_10 
REMARK    6  A    between atoms: N_15  and  C_14 
REMARK    7  A    between atoms: N_20  and  C_19 
REMARK       I    between atoms: C_22  and  N_20 
ROOT
ATOM      1  C   LIG d   1      -2.771  77.765 117.403  0.00  0.00     0.161 C 
ATOM      2  C   LIG d   1      -3.851  78.446 117.989  0.00  0.00     0.016 C 
ATOM      3  C   LIG d   1      -5.198  78.237 117.614  0.00  0.00     0.038 C 
ATOM      4  C   LIG d   1      -5.571  77.216 116.726  0.00  0.00     0.028 C 
ATOM      5  C   LIG d   1      -4.473  76.845 115.735  0.00  0.00    -0.047 C 
ATOM      6  C   LIG d   1      -3.166  76.569 116.513  0.00  0.00     0.091 C 
ENDROOT
BRANCH   1   7
ATOM      7  O   LIG d   1      -1.846  77.345 118.426  0.00  0.00    -0.368 OA
BRANCH   7   8
ATOM      8  C   LIG d   1      -0.476  77.789 118.269  0.00  0.00     0.119 C 
BRANCH   8   9
ATOM      9  C   LIG d   1       0.440  76.609 118.646  0.00  0.00     0.028 C 
ATOM     10  C   LIG d   1      -0.301  75.524 119.446  0.00  0.00     0.006 C 
ENDBRANCH   8   9
BRANCH   8  11
ATOM     11  C   LIG d   1      -0.134  78.902 119.263  0.00  0.00     0.028 C 
ATOM     12  C   LIG d   1      -0.230  80.306 118.644  0.00  0.00     0.006 C 
ENDBRANCH   8  11
ENDBRANCH   7   8
ENDBRANCH   1   7
BRANCH   6  13
ATOM     13  N   LIG d   1      -2.020  76.281 115.612  0.00  0.00    -0.311 N 
ATOM     14  C   LIG d   1      -1.328  75.143 115.646  0.00  0.00     0.210 C 
ATOM     15  C   LIG d   1      -0.172  75.059 114.644  0.00  0.00     0.109 C 
ATOM     16  O   LIG d   1      -1.582  74.183 116.389  0.00  0.00    -0.276 OA
ATOM     17  H   LIG d   1      -1.765  76.993 114.956  0.00  0.00     0.149 HD
ENDBRANCH   6  13
BRANCH   5  18
ATOM     18  N   LIG d   1      -4.944  75.679 114.964  0.00  0.00     0.381 N 
ATOM     19  H   LIG d   1      -4.311  75.491 114.213  0.00  0.00    -0.090 HD
ATOM     20  H   LIG d   1      -5.845  75.891 114.572  0.00  0.00    -0.090 HD
ATOM     21  H   LIG d   1      -5.012  74.882 115.558  0.00  0.00    -0.090 HD
ENDBRANCH   5  18
BRANCH   3  22
ATOM     22  C   LIG d   1      -6.186  79.081 118.098  0.00  0.00     0.382 C 
ATOM     23  O   LIG d   1      -7.104  78.622 118.819  0.00  0.00    -0.241 OA
ATOM     24  O   LIG d   1      -6.195  80.287 117.787  0.00  0.00    -0.241 OA
ENDBRANCH   3  22
TORSDOF 7
ENDMDL
MODEL 9
REMARK VINA RESULT:      -4.2      2.377      4.352
REMARK  7 active torsions:
REMARK  status: ('A' for Active; 'I' for Inactive)
REMARK    1  A    between atoms: C_2  and  C_3 
REMARK    2  A    between atoms: C_3  and  O_6 
REMARK    3  A    between atoms: C_3  and  C_4 
REMARK    4  A    between atoms: C_7  and  O_6 
REMARK    5  A    between atoms: C_9  and  C_10 
REMARK    6  A    between atoms: N_15  and  C_14 
REMARK    7  A    between atoms: N_20  and  C_19 
REMARK       I    between atoms: C_22  and  N_20 
ROOT
ATOM      1  C   LIG d   1      -1.958  77.423 114.942  0.00  0.00     0.161 C 
ATOM      2  C   LIG d   1      -1.113  78.318 115.619  0.00  0.00     0.016 C 
ATOM      3  C   LIG d   1      -0.524  78.035 116.873  0.00  0.00     0.038 C 
ATOM      4  C   LIG d   1      -0.621  76.769 117.469  0.00  0.00     0.028 C 
ATOM      5  C   LIG d   1      -1.877  76.004 117.065  0.00  0.00    -0.047 C 
ATOM      6  C   LIG d   1      -1.985  75.994 115.523  0.00  0.00     0.091 C 
ENDROOT
BRANCH   1   7
ATOM      7  O   LIG d   1      -1.612  77.389 113.543  0.00  0.00    -0.368 OA
BRANCH   7   8
ATOM      8  C   LIG d   1      -2.400  78.236 112.671  0.00  0.00     0.119 C 
BRANCH   8   9
ATOM      9  C   LIG d   1      -2.203  77.728 111.230  0.00  0.00     0.028 C 
ATOM     10  C   LIG d   1      -1.070  78.465 110.497  0.00  0.00     0.006 C 
ENDBRANCH   8   9
BRANCH   8  11
ATOM     11  C   LIG d   1      -1.874  79.675 112.668  0.00  0.00     0.028 C 
ATOM     12  C   LIG d   1      -3.000  80.721 112.674  0.00  0.00     0.006 C 
ENDBRANCH   8  11
ENDBRANCH   7   8
ENDBRANCH   1   7
BRANCH   6  13
ATOM     13  N   LIG d   1      -3.231  75.339 115.046  0.00  0.00    -0.311 N 
ATOM     14  C   LIG d   1      -4.447  75.847 115.239  0.00  0.00     0.210 C 
ATOM     15  C   LIG d   1      -5.597  75.000 114.684  0.00  0.00     0.109 C 
ATOM     16  O   LIG d   1      -4.680  76.934 115.789  0.00  0.00    -0.276 OA
ATOM     17  H   LIG d   1      -3.131  74.468 114.563  0.00  0.00     0.149 HD
ENDBRANCH   6  13
BRANCH   5  18
ATOM     18  N   LIG d   1      -1.782  74.652 117.647  0.00  0.00     0.381 N 
ATOM     19  H   LIG d   1      -1.954  74.693 118.631  0.00  0.00    -0.090 HD
ATOM     20  H   LIG d   1      -0.851  74.301 117.504  0.00  0.00    -0.090 HD
ATOM     21  H   LIG d   1      -2.443  74.046 117.212  0.00  0.00    -0.090 HD
ENDBRANCH   5  18
BRANCH   3  22
ATOM     22  C   LIG d   1       0.137  79.039 117.564  0.00  0.00     0.382 C 
ATOM     23  O   LIG d   1       0.440  78.875 118.771  0.00  0.00    -0.241 OA
ATOM     24  O   LIG d   1       0.396  80.123 117.009  0.00  0.00    -0.241 OA
ENDBRANCH   3  22
TORSDOF 7
ENDMDL
