MODEL 1
REMARK VINA RESULT:      -5.4      0.000      0.000
REMARK  7 active torsions:
REMARK  status: ('A' for Active; 'I' for Inactive)
REMARK    1  A    between atoms: C_2  and  C_3 
REMARK    2  A    between atoms: C_3  and  O_6 
REMARK    3  A    between atoms: C_3  and  C_4 
REMARK    4  A    between atoms: C_7  and  O_6 
REMARK    5  A    between atoms: C_9  and  C_10 
REMARK    6  A    between atoms: N_15  and  C_14 
REMARK    7  A    between atoms: N_20  and  C_19 
REMARK       I    between atoms: C_22  and  N_20 
ROOT
ATOM      1  C   LIG d   1      -2.680  78.399 115.751  0.00  0.00     0.161 C 
ATOM      2  C   LIG d   1      -2.925  79.473 114.879  0.00  0.00     0.016 C 
ATOM      3  C   LIG d   1      -2.393  79.551 113.572  0.00  0.00     0.038 C 
ATOM      4  C   LIG d   1      -1.698  78.481 112.989  0.00  0.00     0.028 C 
ATOM      5  C   LIG d   1      -0.998  77.588 114.008  0.00  0.00    -0.047 C 
ATOM      6  C   LIG d   1      -2.016  77.171 115.094  0.00  0.00     0.091 C 
ENDROOT
BRANCH   1   7
ATOM      7  O   LIG d   1      -3.904  78.015 116.408  0.00  0.00    -0.368 OA
BRANCH   7   8
ATOM      8  C   LIG d   1      -4.085  78.510 117.758  0.00  0.00     0.119 C 
BRANCH   8   9
ATOM      9  C   LIG d   1      -4.236  77.287 118.683  0.00  0.00     0.028 C 
ATOM     10  C   LIG d   1      -3.107  77.197 119.724  0.00  0.00     0.006 C 
ENDBRANCH   8   9
BRANCH   8  11
ATOM     11  C   LIG d   1      -5.398  79.286 117.895  0.00  0.00     0.028 C 
ATOM     12  C   LIG d   1      -5.211  80.805 117.748  0.00  0.00     0.006 C 
ENDBRANCH   8  11
ENDBRANCH   7   8
ENDBRANCH   1   7
BRANCH   6  13
ATOM     13  N   LIG d   1      -1.393  76.364 116.175  0.00  0.00    -0.311 N 
ATOM     14  C   LIG d   1      -1.399  75.033 116.192  0.00  0.00     0.210 C 
ATOM     15  C   LIG d   1      -0.718  74.399 117.409  0.00  0.00     0.109 C 
ATOM     16  O   LIG d   1      -1.874  74.316 115.298  0.00  0.00    -0.276 OA
ATOM     17  H   LIG d   1      -0.957  76.865 116.925  0.00  0.00     0.149 HD
ENDBRANCH   6  13
BRANCH   5  18
ATOM     18  N   LIG d   1      -0.430  76.439 113.277  0.00  0.00     0.381 N 
ATOM     19  H   LIG d   1      -0.970  75.618 113.465  0.00  0.00    -0.090 HD
ATOM     20  H   LIG d   1       0.508  76.280 113.599  0.00  0.00    -0.090 HD
ATOM     21  H   LIG d   1      -0.426  76.626 112.298  0.00  0.00    -0.090 HD
ENDBRANCH   5  18
BRANCH   3  22
ATOM     22  C   LIG d   1      -2.520  80.726 112.847  0.00  0.00     0.382 C 
ATOM     23  O   LIG d   1      -1.511  81.245 112.312  0.00  0.00    -0.241 OA
ATOM     24  O   LIG d   1      -3.624  81.298 112.758  0.00  0.00    -0.241 OA
ENDBRANCH   3  22
TORSDOF 7
ENDMDL
MODEL 2
REMARK VINA RESULT:      -5.0      1.675      2.369
REMARK  7 active torsions:
REMARK  status: ('A' for Active; 'I' for Inactive)
REMARK    1  A    between atoms: C_2  and  C_3 
REMARK    2  A    between atoms: C_3  and  O_6 
REMARK    3  A    between atoms: C_3  and  C_4 
REMARK    4  A    between atoms: C_7  and  O_6 
REMARK    5  A    between atoms: C_9  and  C_10 
REMARK    6  A    between atoms: N_15  and  C_14 
REMARK    7  A    between atoms: N_20  and  C_19 
REMARK       I    between atoms: C_22  and  N_20 
ROOT
ATOM      1  C   LIG d   1      -2.279  77.767 116.142  0.00  0.00     0.161 C 
ATOM      2  C   LIG d   1      -2.699  78.636 115.122  0.00  0.00     0.016 C 
ATOM      3  C   LIG d   1      -2.240  78.549 113.787  0.00  0.00     0.038 C 
ATOM      4  C   LIG d   1      -1.440  77.484 113.347  0.00  0.00     0.028 C 
ATOM      5  C   LIG d   1      -0.586  76.871 114.452  0.00  0.00    -0.047 C 
ATOM      6  C   LIG d   1      -1.492  76.532 115.657  0.00  0.00     0.091 C 
ENDROOT
BRANCH   1   7
ATOM      7  O   LIG d   1      -3.413  77.360 116.934  0.00  0.00    -0.368 OA
BRANCH   7   8
ATOM      8  C   LIG d   1      -4.682  77.285 116.239  0.00  0.00     0.119 C 
BRANCH   8   9
ATOM      9  C   LIG d   1      -5.762  77.839 117.188  0.00  0.00     0.028 C 
ATOM     10  C   LIG d   1      -6.853  76.802 117.505  0.00  0.00     0.006 C 
ENDBRANCH   8   9
BRANCH   8  11
ATOM     11  C   LIG d   1      -5.085  75.832 115.970  0.00  0.00     0.028 C 
ATOM     12  C   LIG d   1      -4.885  75.420 114.503  0.00  0.00     0.006 C 
ENDBRANCH   8  11
ENDBRANCH   7   8
ENDBRANCH   1   7
BRANCH   6  13
ATOM     13  N   LIG d   1      -0.723  76.005 116.814  0.00  0.00    -0.311 N 
ATOM     14  C   LIG d   1      -1.069  74.909 117.487  0.00  0.00     0.210 C 
ATOM     15  C   LIG d   1      -0.150  74.552 118.659  0.00  0.00     0.109 C 
ATOM     16  O   LIG d   1      -2.032  74.180 117.204  0.00  0.00    -0.276 OA
ATOM     17  H   LIG d   1       0.091  76.518 117.093  0.00  0.00     0.149 HD
ENDBRANCH   6  13
BRANCH   5  18
ATOM     18  N   LIG d   1       0.092  75.689 113.887  0.00  0.00     0.381 N 
ATOM     19  H   LIG d   1       0.903  75.975 113.377  0.00  0.00    -0.090 HD
ATOM     20  H   LIG d   1      -0.534  75.228 113.251  0.00  0.00    -0.090 HD
ATOM     21  H   LIG d   1       0.354  75.064 114.618  0.00  0.00    -0.090 HD
ENDBRANCH   5  18
BRANCH   3  22
ATOM     22  C   LIG d   1      -2.550  79.556 112.886  0.00  0.00     0.382 C 
ATOM     23  O   LIG d   1      -3.305  80.496 113.233  0.00  0.00    -0.241 OA
ATOM     24  O   LIG d   1      -2.120  79.514 111.718  0.00  0.00    -0.241 OA
ENDBRANCH   3  22
TORSDOF 7
ENDMDL
MODEL 3
REMARK VINA RESULT:      -4.9      1.775      2.249
REMARK  7 active torsions:
REMARK  status: ('A' for Active; 'I' for Inactive)
REMARK    1  A    between atoms: C_2  and  C_3 
REMARK    2  A    between atoms: C_3  and  O_6 
REMARK    3  A    between atoms: C_3  and  C_4 
REMARK    4  A    between atoms: C_7  and  O_6 
REMARK    5  A    between atoms: C_9  and  C_10 
REMARK    6  A    between atoms: N_15  and  C_14 
REMARK    7  A    between atoms: N_20  and  C_19 
REMARK       I    between atoms: C_22  and  N_20 
ROOT
ATOM      1  C   LIG d   1      -2.840  77.877 114.763  0.00  0.00     0.161 C 
ATOM      2  C   LIG d   1      -3.085  79.166 114.262  0.00  0.00     0.016 C 
ATOM      3  C   LIG d   1      -2.556  79.640 113.040  0.00  0.00     0.038 C 
ATOM      4  C   LIG d   1      -1.865  78.799 112.156  0.00  0.00     0.028 C 
ATOM      5  C   LIG d   1      -1.163  77.636 112.850  0.00  0.00    -0.047 C 
ATOM      6  C   LIG d   1      -2.179  76.909 113.760  0.00  0.00     0.091 C 
ENDROOT
BRANCH   1   7
ATOM      7  O   LIG d   1      -4.062  77.311 115.276  0.00  0.00    -0.368 OA
BRANCH   7   8
ATOM      8  C   LIG d   1      -3.936  76.490 116.463  0.00  0.00     0.119 C 
BRANCH   8   9
ATOM      9  C   LIG d   1      -4.741  75.199 116.221  0.00  0.00     0.028 C 
ATOM     10  C   LIG d   1      -5.233  75.077 114.769  0.00  0.00     0.006 C 
ENDBRANCH   8   9
BRANCH   8  11
ATOM     11  C   LIG d   1      -4.594  77.158 117.674  0.00  0.00     0.028 C 
ATOM     12  C   LIG d   1      -5.510  78.329 117.284  0.00  0.00     0.006 C 
ENDBRANCH   8  11
ENDBRANCH   7   8
ENDBRANCH   1   7
BRANCH   6  13
ATOM     13  N   LIG d   1      -1.555  75.809 114.541  0.00  0.00    -0.311 N 
ATOM     14  C   LIG d   1      -0.481  75.975 115.311  0.00  0.00     0.210 C 
ATOM     15  C   LIG d   1       0.014  74.707 116.014  0.00  0.00     0.109 C 
ATOM     16  O   LIG d   1       0.090  77.059 115.504  0.00  0.00    -0.276 OA
ATOM     17  H   LIG d   1      -1.973  74.902 114.467  0.00  0.00     0.149 HD
ENDBRANCH   6  13
BRANCH   5  18
ATOM     18  N   LIG d   1      -0.599  76.766 111.801  0.00  0.00     0.381 N 
ATOM     19  H   LIG d   1       0.179  77.220 111.366  0.00  0.00    -0.090 HD
ATOM     20  H   LIG d   1      -1.302  76.603 111.101  0.00  0.00    -0.090 HD
ATOM     21  H   LIG d   1      -0.309  75.899 112.197  0.00  0.00    -0.090 HD
ENDBRANCH   5  18
BRANCH   3  22
ATOM     22  C   LIG d   1      -2.684  80.981 112.709  0.00  0.00     0.382 C 
ATOM     23  O   LIG d   1      -3.805  81.539 112.779  0.00  0.00    -0.241 OA
ATOM     24  O   LIG d   1      -1.701  81.627 112.300  0.00  0.00    -0.241 OA
ENDBRANCH   3  22
TORSDOF 7
ENDMDL
MODEL 4
REMARK VINA RESULT:      -4.8      2.791      4.232
REMARK  7 active torsions:
REMARK  status: ('A' for Active; 'I' for Inactive)
REMARK    1  A    between atoms: C_2  and  C_3 
REMARK    2  A    between atoms: C_3  and  O_6 
REMARK    3  A    between atoms: C_3  and  C_4 
REMARK    4  A    between atoms: C_7  and  O_6 
REMARK    5  A    between atoms: C_9  and  C_10 
REMARK    6  A    between atoms: N_15  and  C_14 
REMARK    7  A    between atoms: N_20  and  C_19 
REMARK       I    between atoms: C_22  and  N_20 
ROOT
ATOM      1  C   LIG d   1      -4.249  76.822 117.433  0.00  0.00     0.161 C 
ATOM      2  C   LIG d   1      -5.075  77.921 117.720  0.00  0.00     0.016 C 
ATOM      3  C   LIG d   1      -4.778  79.244 117.317  0.00  0.00     0.038 C 
ATOM      4  C   LIG d   1      -3.704  79.535 116.463  0.00  0.00     0.028 C 
ATOM      5  C   LIG d   1      -2.561  78.531 116.563  0.00  0.00    -0.047 C 
ATOM      6  C   LIG d   1      -3.131  77.103 116.407  0.00  0.00     0.091 C 
ENDROOT
BRANCH   1   7
ATOM      7  O   LIG d   1      -5.054  75.706 117.003  0.00  0.00    -0.368 OA
BRANCH   7   8
ATOM      8  C   LIG d   1      -6.329  76.035 116.397  0.00  0.00     0.119 C 
BRANCH   8   9
ATOM      9  C   LIG d   1      -7.378  75.061 116.968  0.00  0.00     0.028 C 
ATOM     10  C   LIG d   1      -8.768  75.706 117.098  0.00  0.00     0.006 C 
ENDBRANCH   8   9
BRANCH   8  11
ATOM     11  C   LIG d   1      -6.312  75.774 114.888  0.00  0.00     0.028 C 
ATOM     12  C   LIG d   1      -5.229  74.768 114.469  0.00  0.00     0.006 C 
ENDBRANCH   8  11
ENDBRANCH   7   8
ENDBRANCH   1   7
BRANCH   6  13
ATOM     13  N   LIG d   1      -2.091  76.055 116.577  0.00  0.00    -0.311 N 
ATOM     14  C   LIG d   1      -1.436  75.501 115.559  0.00  0.00     0.210 C 
ATOM     15  C   LIG d   1      -0.418  74.425 115.953  0.00  0.00     0.109 C 
ATOM     16  O   LIG d   1      -1.577  75.820 114.369  0.00  0.00    -0.276 OA
ATOM     17  H   LIG d   1      -1.891  75.758 117.512  0.00  0.00     0.149 HD
ENDBRANCH   6  13
BRANCH   5  18
ATOM     18  N   LIG d   1      -1.572  78.875 115.524  0.00  0.00     0.381 N 
ATOM     19  H   LIG d   1      -1.339  79.846 115.587  0.00  0.00    -0.090 HD
ATOM     20  H   LIG d   1      -1.978  78.707 114.621  0.00  0.00    -0.090 HD
ATOM     21  H   LIG d   1      -0.752  78.321 115.637  0.00  0.00    -0.090 HD
ENDBRANCH   5  18
BRANCH   3  22
ATOM     22  C   LIG d   1      -5.538  80.297 117.802  0.00  0.00     0.382 C 
ATOM     23  O   LIG d   1      -4.972  81.317 118.264  0.00  0.00    -0.241 OA
ATOM     24  O   LIG d   1      -6.781  80.222 117.824  0.00  0.00    -0.241 OA
ENDBRANCH   3  22
TORSDOF 7
ENDMDL
MODEL 5
REMARK VINA RESULT:      -4.8      2.537      5.207
REMARK  7 active torsions:
REMARK  status: ('A' for Active; 'I' for Inactive)
REMARK    1  A    between atoms: C_2  and  C_3 
REMARK    2  A    between atoms: C_3  and  O_6 
REMARK    3  A    between atoms: C_3  and  C_4 
REMARK    4  A    between atoms: C_7  and  O_6 
REMARK    5  A    between atoms: C_9  and  C_10 
REMARK    6  A    between atoms: N_15  and  C_14 
REMARK    7  A    between atoms: N_20  and  C_19 
REMARK       I    between atoms: C_22  and  N_20 
ROOT
ATOM      1  C   LIG d   1      -2.246  75.523 114.906  0.00  0.00     0.161 C 
ATOM      2  C   LIG d   1      -1.978  75.070 116.209  0.00  0.00     0.016 C 
ATOM      3  C   LIG d   1      -1.035  75.682 117.067  0.00  0.00     0.038 C 
ATOM      4  C   LIG d   1      -0.403  76.888 116.733  0.00  0.00     0.028 C 
ATOM      5  C   LIG d   1      -0.265  77.104 115.229  0.00  0.00    -0.047 C 
ATOM      6  C   LIG d   1      -1.646  76.903 114.565  0.00  0.00     0.091 C 
ENDROOT
BRANCH   1   7
ATOM      7  O   LIG d   1      -3.668  75.522 114.672  0.00  0.00    -0.368 OA
BRANCH   7   8
ATOM      8  C   LIG d   1      -4.508  75.435 115.849  0.00  0.00     0.119 C 
BRANCH   8   9
ATOM      9  C   LIG d   1      -5.604  74.391 115.559  0.00  0.00     0.028 C 
ATOM     10  C   LIG d   1      -6.748  74.441 116.586  0.00  0.00     0.006 C 
ENDBRANCH   8   9
BRANCH   8  11
ATOM     11  C   LIG d   1      -5.255  76.748 116.100  0.00  0.00     0.028 C 
ATOM     12  C   LIG d   1      -4.595  77.611 117.188  0.00  0.00     0.006 C 
ENDBRANCH   8  11
ENDBRANCH   7   8
ENDBRANCH   1   7
BRANCH   6  13
ATOM     13  N   LIG d   1      -1.585  77.013 113.084  0.00  0.00    -0.311 N 
ATOM     14  C   LIG d   1      -2.413  77.775 112.371  0.00  0.00     0.210 C 
ATOM     15  C   LIG d   1      -2.189  77.729 110.856  0.00  0.00     0.109 C 
ATOM     16  O   LIG d   1      -3.289  78.509 112.851  0.00  0.00    -0.276 OA
ATOM     17  H   LIG d   1      -0.882  76.475 112.616  0.00  0.00     0.149 HD
ENDBRANCH   6  13
BRANCH   5  18
ATOM     18  N   LIG d   1       0.284  78.457 115.022  0.00  0.00     0.381 N 
ATOM     19  H   LIG d   1       0.978  78.435 114.301  0.00  0.00    -0.090 HD
ATOM     20  H   LIG d   1       0.724  78.764 115.872  0.00  0.00    -0.090 HD
ATOM     21  H   LIG d   1      -0.446  79.087 114.771  0.00  0.00    -0.090 HD
ENDBRANCH   5  18
BRANCH   3  22
ATOM     22  C   LIG d   1      -0.688  75.064 118.259  0.00  0.00     0.382 C 
ATOM     23  O   LIG d   1      -1.497  75.054 119.218  0.00  0.00    -0.241 OA
ATOM     24  O   LIG d   1       0.440  74.556 118.402  0.00  0.00    -0.241 OA
ENDBRANCH   3  22
TORSDOF 7
ENDMDL
MODEL 6
REMARK VINA RESULT:      -4.6      4.445      7.747
REMARK  7 active torsions:
REMARK  status: ('A' for Active; 'I' for Inactive)
REMARK    1  A    between atoms: C_2  and  C_3 
REMARK    2  A    between atoms: C_3  and  O_6 
REMARK    3  A    between atoms: C_3  and  C_4 
REMARK    4  A    between atoms: C_7  and  O_6 
REMARK    5  A    between atoms: C_9  and  C_10 
REMARK    6  A    between atoms: N_15  and  C_14 
REMARK    7  A    between atoms: N_20  and  C_19 
REMARK       I    between atoms: C_22  and  N_20 
ROOT
ATOM      1  C   LIG d   1      -6.570  77.628 117.747  0.00  0.00     0.161 C 
ATOM      2  C   LIG d   1      -7.401  76.496 117.706  0.00  0.00     0.016 C 
ATOM      3  C   LIG d   1      -8.733  76.491 118.179  0.00  0.00     0.038 C 
ATOM      4  C   LIG d   1      -9.379  77.667 118.589  0.00  0.00     0.028 C 
ATOM      5  C   LIG d   1      -8.422  78.729 119.120  0.00  0.00    -0.047 C 
ATOM      6  C   LIG d   1      -7.292  78.948 118.088  0.00  0.00     0.091 C 
ENDROOT
BRANCH   1   7
ATOM      7  O   LIG d   1      -5.856  77.755 116.501  0.00  0.00    -0.368 OA
BRANCH   7   8
ATOM      8  C   LIG d   1      -4.846  76.749 116.240  0.00  0.00     0.119 C 
BRANCH   8   9
ATOM      9  C   LIG d   1      -3.486  77.469 116.163  0.00  0.00     0.028 C 
ATOM     10  C   LIG d   1      -3.625  78.998 116.241  0.00  0.00     0.006 C 
ENDBRANCH   8   9
BRANCH   8  11
ATOM     11  C   LIG d   1      -5.043  76.107 114.863  0.00  0.00     0.028 C 
ATOM     12  C   LIG d   1      -5.517  74.647 114.950  0.00  0.00     0.006 C 
ENDBRANCH   8  11
ENDBRANCH   7   8
ENDBRANCH   1   7
BRANCH   6  13
ATOM     13  N   LIG d   1      -6.266  79.911 118.566  0.00  0.00    -0.311 N 
ATOM     14  C   LIG d   1      -6.210  81.180 118.168  0.00  0.00     0.210 C 
ATOM     15  C   LIG d   1      -5.061  81.996 118.768  0.00  0.00     0.109 C 
ATOM     16  O   LIG d   1      -7.022  81.717 117.399  0.00  0.00    -0.276 OA
ATOM     17  H   LIG d   1      -5.587  79.568 119.217  0.00  0.00     0.149 HD
ENDBRANCH   6  13
BRANCH   5  18
ATOM     18  N   LIG d   1      -9.210  79.948 119.382  0.00  0.00     0.381 N 
ATOM     19  H   LIG d   1      -9.872  80.088 118.645  0.00  0.00    -0.090 HD
ATOM     20  H   LIG d   1      -8.590  80.738 119.403  0.00  0.00    -0.090 HD
ATOM     21  H   LIG d   1      -9.686  79.866 120.253  0.00  0.00    -0.090 HD
ENDBRANCH   5  18
BRANCH   3  22
ATOM     22  C   LIG d   1      -9.422  75.292 118.282  0.00  0.00     0.382 C 
ATOM     23  O   LIG d   1      -9.446  74.497 117.311  0.00  0.00    -0.241 OA
ATOM     24  O   LIG d   1     -10.055  75.014 119.318  0.00  0.00    -0.241 OA
ENDBRANCH   3  22
TORSDOF 7
ENDMDL
MODEL 7
REMARK VINA RESULT:      -4.5      3.128      4.574
REMARK  7 active torsions:
REMARK  status: ('A' for Active; 'I' for Inactive)
REMARK    1  A    between atoms: C_2  and  C_3 
REMARK    2  A    between atoms: C_3  and  O_6 
REMARK    3  A    between atoms: C_3  and  C_4 
REMARK    4  A    between atoms: C_7  and  O_6 
REMARK    5  A    between atoms: C_9  and  C_10 
REMARK    6  A    between atoms: N_15  and  C_14 
REMARK    7  A    between atoms: N_20  and  C_19 
REMARK       I    between atoms: C_22  and  N_20 
ROOT
ATOM      1  C   LIG d   1      -4.961  77.706 116.866  0.00  0.00     0.161 C 
ATOM      2  C   LIG d   1      -3.874  77.930 116.005  0.00  0.00     0.016 C 
ATOM      3  C   LIG d   1      -3.458  77.007 115.019  0.00  0.00     0.038 C 
ATOM      4  C   LIG d   1      -4.201  75.854 114.723  0.00  0.00     0.028 C 
ATOM      5  C   LIG d   1      -5.016  75.339 115.905  0.00  0.00    -0.047 C 
ATOM      6  C   LIG d   1      -5.851  76.504 116.484  0.00  0.00     0.091 C 
ENDROOT
BRANCH   1   7
ATOM      7  O   LIG d   1      -5.756  78.903 116.972  0.00  0.00    -0.368 OA
BRANCH   7   8
ATOM      8  C   LIG d   1      -5.524  79.720 118.146  0.00  0.00     0.119 C 
BRANCH   8   9
ATOM      9  C   LIG d   1      -6.638  79.400 119.161  0.00  0.00     0.028 C 
ATOM     10  C   LIG d   1      -8.033  79.379 118.514  0.00  0.00     0.006 C 
ENDBRANCH   8   9
BRANCH   8  11
ATOM     11  C   LIG d   1      -5.682  81.210 117.827  0.00  0.00     0.028 C 
ATOM     12  C   LIG d   1      -5.190  82.118 118.966  0.00  0.00     0.006 C 
ENDBRANCH   8  11
ENDBRANCH   7   8
ENDBRANCH   1   7
BRANCH   6  13
ATOM     13  N   LIG d   1      -6.614  76.106 117.696  0.00  0.00    -0.311 N 
ATOM     14  C   LIG d   1      -7.886  75.712 117.664  0.00  0.00     0.210 C 
ATOM     15  C   LIG d   1      -8.490  75.366 119.029  0.00  0.00     0.109 C 
ATOM     16  O   LIG d   1      -8.562  75.585 116.632  0.00  0.00    -0.276 OA
ATOM     17  H   LIG d   1      -6.133  76.150 118.573  0.00  0.00     0.149 HD
ENDBRANCH   6  13
BRANCH   5  18
ATOM     18  N   LIG d   1      -5.845  74.219 115.420  0.00  0.00     0.381 N 
ATOM     19  H   LIG d   1      -6.807  74.391 115.636  0.00  0.00    -0.090 HD
ATOM     20  H   LIG d   1      -5.562  73.377 115.890  0.00  0.00    -0.090 HD
ATOM     21  H   LIG d   1      -5.733  74.113 114.436  0.00  0.00    -0.090 HD
ENDBRANCH   5  18
BRANCH   3  22
ATOM     22  C   LIG d   1      -2.265  77.213 114.343  0.00  0.00     0.382 C 
ATOM     23  O   LIG d   1      -2.039  76.603 113.270  0.00  0.00    -0.241 OA
ATOM     24  O   LIG d   1      -1.394  77.967 114.816  0.00  0.00    -0.241 OA
ENDBRANCH   3  22
TORSDOF 7
ENDMDL
MODEL 8
REMARK VINA RESULT:      -4.5      4.192      7.470
REMARK  7 active torsions:
REMARK  status: ('A' for Active; 'I' for Inactive)
REMARK    1  A    between atoms: C_2  and  C_3 
REMARK    2  A    between atoms: C_3  and  O_6 
REMARK    3  A    between atoms: C_3  and  C_4 
REMARK    4  A    between atoms: C_7  and  O_6 
REMARK    5  A    between atoms: C_9  and  C_10 
REMARK    6  A    between atoms: N_15  and  C_14 
REMARK    7  A    between atoms: N_20  and  C_19 
REMARK       I    between atoms: C_22  and  N_20 
ROOT
ATOM      1  C   LIG d   1      -6.291  77.164 117.508  0.00  0.00     0.161 C 
ATOM      2  C   LIG d   1      -7.250  76.138 117.475  0.00  0.00     0.016 C 
ATOM      3  C   LIG d   1      -8.501  76.221 118.130  0.00  0.00     0.038 C 
ATOM      4  C   LIG d   1      -8.942  77.405 118.740  0.00  0.00     0.028 C 
ATOM      5  C   LIG d   1      -7.803  78.293 119.231  0.00  0.00    -0.047 C 
ATOM      6  C   LIG d   1      -6.799  78.506 118.075  0.00  0.00     0.091 C 
ENDROOT
BRANCH   1   7
ATOM      7  O   LIG d   1      -5.735  77.355 116.192  0.00  0.00    -0.368 OA
BRANCH   7   8
ATOM      8  C   LIG d   1      -4.326  77.051 116.046  0.00  0.00     0.119 C 
BRANCH   8   9
ATOM      9  C   LIG d   1      -4.193  75.993 114.933  0.00  0.00     0.028 C 
ATOM     10  C   LIG d   1      -5.549  75.631 114.303  0.00  0.00     0.006 C 
ENDBRANCH   8   9
BRANCH   8  11
ATOM     11  C   LIG d   1      -3.765  76.385 117.306  0.00  0.00     0.028 C 
ATOM     12  C   LIG d   1      -2.713  75.309 116.995  0.00  0.00     0.006 C 
ENDBRANCH   8  11
ENDBRANCH   7   8
ENDBRANCH   1   7
BRANCH   6  13
ATOM     13  N   LIG d   1      -5.611  79.295 118.495  0.00  0.00    -0.311 N 
ATOM     14  C   LIG d   1      -5.361  80.529 118.061  0.00  0.00     0.210 C 
ATOM     15  C   LIG d   1      -4.072  81.156 118.603  0.00  0.00     0.109 C 
ATOM     16  O   LIG d   1      -6.100  81.177 117.305  0.00  0.00    -0.276 OA
ATOM     17  H   LIG d   1      -4.975  78.857 119.131  0.00  0.00     0.149 HD
ENDBRANCH   6  13
BRANCH   5  18
ATOM     18  N   LIG d   1      -8.399  79.552 119.719  0.00  0.00     0.381 N 
ATOM     19  H   LIG d   1      -7.975  79.813 120.586  0.00  0.00    -0.090 HD
ATOM     20  H   LIG d   1      -9.380  79.406 119.878  0.00  0.00    -0.090 HD
ATOM     21  H   LIG d   1      -8.268  80.274 119.046  0.00  0.00    -0.090 HD
ENDBRANCH   5  18
BRANCH   3  22
ATOM     22  C   LIG d   1      -9.309  75.097 118.212  0.00  0.00     0.382 C 
ATOM     23  O   LIG d   1      -9.321  74.263 117.275  0.00  0.00    -0.241 OA
ATOM     24  O   LIG d   1     -10.060  74.930 119.192  0.00  0.00    -0.241 OA
ENDBRANCH   3  22
TORSDOF 7
ENDMDL
MODEL 9
REMARK VINA RESULT:      -4.3      3.210      5.569
REMARK  7 active torsions:
REMARK  status: ('A' for Active; 'I' for Inactive)
REMARK    1  A    between atoms: C_2  and  C_3 
REMARK    2  A    between atoms: C_3  and  O_6 
REMARK    3  A    between atoms: C_3  and  C_4 
REMARK    4  A    between atoms: C_7  and  O_6 
REMARK    5  A    between atoms: C_9  and  C_10 
REMARK    6  A    between atoms: N_15  and  C_14 
REMARK    7  A    between atoms: N_20  and  C_19 
REMARK       I    between atoms: C_22  and  N_20 
ROOT
ATOM      1  C   LIG d   1      -5.304  77.322 117.214  0.00  0.00     0.161 C 
ATOM      2  C   LIG d   1      -6.466  76.871 117.860  0.00  0.00     0.016 C 
ATOM      3  C   LIG d   1      -7.213  75.751 117.426  0.00  0.00     0.038 C 
ATOM      4  C   LIG d   1      -6.759  74.910 116.399  0.00  0.00     0.028 C 
ATOM      5  C   LIG d   1      -5.856  75.616 115.393  0.00  0.00    -0.047 C 
ATOM      6  C   LIG d   1      -4.732  76.352 116.158  0.00  0.00     0.091 C 
ENDROOT
BRANCH   1   7
ATOM      7  O   LIG d   1      -4.296  77.648 118.192  0.00  0.00    -0.368 OA
BRANCH   7   8
ATOM      8  C   LIG d   1      -4.215  79.041 118.583  0.00  0.00     0.119 C 
BRANCH   8   9
ATOM      9  C   LIG d   1      -4.764  79.883 117.415  0.00  0.00     0.028 C 
ATOM     10  C   LIG d   1      -5.383  81.209 117.887  0.00  0.00     0.006 C 
ENDBRANCH   8   9
BRANCH   8  11
ATOM     11  C   LIG d   1      -2.760  79.487 118.755  0.00  0.00     0.028 C 
ATOM     12  C   LIG d   1      -1.950  79.394 117.453  0.00  0.00     0.006 C 
ENDBRANCH   8  11
ENDBRANCH   7   8
ENDBRANCH   1   7
BRANCH   6  13
ATOM     13  N   LIG d   1      -3.852  77.138 115.255  0.00  0.00    -0.311 N 
ATOM     14  C   LIG d   1      -2.737  76.652 114.713  0.00  0.00     0.210 C 
ATOM     15  C   LIG d   1      -1.967  77.637 113.827  0.00  0.00     0.109 C 
ATOM     16  O   LIG d   1      -2.330  75.490 114.855  0.00  0.00    -0.276 OA
ATOM     17  H   LIG d   1      -4.125  78.082 115.060  0.00  0.00     0.149 HD
ENDBRANCH   6  13
BRANCH   5  18
ATOM     18  N   LIG d   1      -5.346  74.595 114.459  0.00  0.00     0.381 N 
ATOM     19  H   LIG d   1      -6.111  74.081 114.069  0.00  0.00    -0.090 HD
ATOM     20  H   LIG d   1      -4.761  73.954 114.965  0.00  0.00    -0.090 HD
ATOM     21  H   LIG d   1      -4.824  75.030 113.731  0.00  0.00    -0.090 HD
ENDBRANCH   5  18
BRANCH   3  22
ATOM     22  C   LIG d   1      -8.448  75.486 117.997  0.00  0.00     0.382 C 
ATOM     23  O   LIG d   1      -9.490  75.566 117.303  0.00  0.00    -0.241 OA
ATOM     24  O   LIG d   1      -8.538  75.210 119.209  0.00  0.00    -0.241 OA
ENDBRANCH   3  22
TORSDOF 7
ENDMDL
