MODEL 1
REMARK VINA RESULT:      -5.6      0.000      0.000
REMARK  7 active torsions:
REMARK  status: ('A' for Active; 'I' for Inactive)
REMARK    1  A    between atoms: C_2  and  C_3 
REMARK    2  A    between atoms: C_3  and  O_6 
REMARK    3  A    between atoms: C_3  and  C_4 
REMARK    4  A    between atoms: C_7  and  O_6 
REMARK    5  A    between atoms: C_9  and  C_10 
REMARK    6  A    between atoms: N_15  and  C_14 
REMARK    7  A    between atoms: N_20  and  C_19 
REMARK       I    between atoms: C_22  and  N_20 
ROOT
ATOM      1  C   LIG d   1      -3.443  77.969 115.433  0.00  0.00     0.161 C 
ATOM      2  C   LIG d   1      -3.526  79.077 114.574  0.00  0.00     0.016 C 
ATOM      3  C   LIG d   1      -2.502  79.438 113.668  0.00  0.00     0.038 C 
ATOM      4  C   LIG d   1      -1.382  78.622 113.451  0.00  0.00     0.028 C 
ATOM      5  C   LIG d   1      -1.017  77.762 114.657  0.00  0.00    -0.047 C 
ATOM      6  C   LIG d   1      -2.277  77.004 115.132  0.00  0.00     0.091 C 
ENDROOT
BRANCH   1   7
ATOM      7  O   LIG d   1      -4.696  77.257 115.434  0.00  0.00    -0.368 OA
BRANCH   7   8
ATOM      8  C   LIG d   1      -5.318  77.063 116.728  0.00  0.00     0.119 C 
BRANCH   8   9
ATOM      9  C   LIG d   1      -6.830  76.886 116.493  0.00  0.00     0.028 C 
ATOM     10  C   LIG d   1      -7.134  75.948 115.313  0.00  0.00     0.006 C 
ENDBRANCH   8   9
BRANCH   8  11
ATOM     11  C   LIG d   1      -5.187  78.315 117.602  0.00  0.00     0.028 C 
ATOM     12  C   LIG d   1      -6.483  79.139 117.659  0.00  0.00     0.006 C 
ENDBRANCH   8  11
ENDBRANCH   7   8
ENDBRANCH   1   7
BRANCH   6  13
ATOM     13  N   LIG d   1      -2.028  76.203 116.359  0.00  0.00    -0.311 N 
ATOM     14  C   LIG d   1      -1.650  74.926 116.338  0.00  0.00     0.210 C 
ATOM     15  C   LIG d   1      -1.467  74.283 117.716  0.00  0.00     0.109 C 
ATOM     16  O   LIG d   1      -1.418  74.275 115.308  0.00  0.00    -0.276 OA
ATOM     17  H   LIG d   1      -2.162  76.663 117.239  0.00  0.00     0.149 HD
ENDBRANCH   6  13
BRANCH   5  18
ATOM     18  N   LIG d   1       0.079  76.864 114.248  0.00  0.00     0.381 N 
ATOM     19  H   LIG d   1      -0.179  75.913 114.424  0.00  0.00    -0.090 HD
ATOM     20  H   LIG d   1       0.895  77.076 114.795  0.00  0.00    -0.090 HD
ATOM     21  H   LIG d   1       0.278  76.988 113.280  0.00  0.00    -0.090 HD
ENDBRANCH   5  18
BRANCH   3  22
ATOM     22  C   LIG d   1      -2.575  80.649 112.996  0.00  0.00     0.382 C 
ATOM     23  O   LIG d   1      -1.543  81.142 112.479  0.00  0.00    -0.241 OA
ATOM     24  O   LIG d   1      -3.649  81.276 112.938  0.00  0.00    -0.241 OA
ENDBRANCH   3  22
TORSDOF 7
ENDMDL
MODEL 2
REMARK VINA RESULT:      -5.4      1.270      1.994
REMARK  7 active torsions:
REMARK  status: ('A' for Active; 'I' for Inactive)
REMARK    1  A    between atoms: C_2  and  C_3 
REMARK    2  A    between atoms: C_3  and  O_6 
REMARK    3  A    between atoms: C_3  and  C_4 
REMARK    4  A    between atoms: C_7  and  O_6 
REMARK    5  A    between atoms: C_9  and  C_10 
REMARK    6  A    between atoms: N_15  and  C_14 
REMARK    7  A    between atoms: N_20  and  C_19 
REMARK       I    between atoms: C_22  and  N_20 
ROOT
ATOM      1  C   LIG d   1      -3.391  77.169 116.050  0.00  0.00     0.161 C 
ATOM      2  C   LIG d   1      -3.564  78.069 114.985  0.00  0.00     0.016 C 
ATOM      3  C   LIG d   1      -2.505  78.514 114.162  0.00  0.00     0.038 C 
ATOM      4  C   LIG d   1      -1.215  77.968 114.253  0.00  0.00     0.028 C 
ATOM      5  C   LIG d   1      -0.882  77.431 115.641  0.00  0.00    -0.047 C 
ATOM      6  C   LIG d   1      -2.012  76.478 116.095  0.00  0.00     0.091 C 
ENDROOT
BRANCH   1   7
ATOM      7  O   LIG d   1      -4.444  76.186 116.034  0.00  0.00    -0.368 OA
BRANCH   7   8
ATOM      8  C   LIG d   1      -5.745  76.651 115.599  0.00  0.00     0.119 C 
BRANCH   8   9
ATOM      9  C   LIG d   1      -6.552  77.017 116.860  0.00  0.00     0.028 C 
ATOM     10  C   LIG d   1      -8.019  76.563 116.770  0.00  0.00     0.006 C 
ENDBRANCH   8   9
BRANCH   8  11
ATOM     11  C   LIG d   1      -6.539  75.531 114.920  0.00  0.00     0.028 C 
ATOM     12  C   LIG d   1      -5.805  74.181 114.943  0.00  0.00     0.006 C 
ENDBRANCH   8  11
ENDBRANCH   7   8
ENDBRANCH   1   7
BRANCH   6  13
ATOM     13  N   LIG d   1      -1.807  75.974 117.477  0.00  0.00    -0.311 N 
ATOM     14  C   LIG d   1      -1.108  74.876 117.761  0.00  0.00     0.210 C 
ATOM     15  C   LIG d   1      -1.037  74.521 119.249  0.00  0.00     0.109 C 
ATOM     16  O   LIG d   1      -0.514  74.180 116.924  0.00  0.00    -0.276 OA
ATOM     17  H   LIG d   1      -2.229  76.495 118.221  0.00  0.00     0.149 HD
ENDBRANCH   6  13
BRANCH   5  18
ATOM     18  N   LIG d   1       0.433  76.769 115.559  0.00  0.00     0.381 N 
ATOM     19  H   LIG d   1       0.362  75.941 115.002  0.00  0.00    -0.090 HD
ATOM     20  H   LIG d   1       0.722  76.504 116.484  0.00  0.00    -0.090 HD
ATOM     21  H   LIG d   1       1.103  77.390 115.159  0.00  0.00    -0.090 HD
ENDBRANCH   5  18
BRANCH   3  22
ATOM     22  C   LIG d   1      -2.721  79.545 113.260  0.00  0.00     0.382 C 
ATOM     23  O   LIG d   1      -2.112  79.556 112.163  0.00  0.00    -0.241 OA
ATOM     24  O   LIG d   1      -3.483  80.487 113.548  0.00  0.00    -0.241 OA
ENDBRANCH   3  22
TORSDOF 7
ENDMDL
MODEL 3
REMARK VINA RESULT:      -4.9      2.165      4.789
REMARK  7 active torsions:
REMARK  status: ('A' for Active; 'I' for Inactive)
REMARK    1  A    between atoms: C_2  and  C_3 
REMARK    2  A    between atoms: C_3  and  O_6 
REMARK    3  A    between atoms: C_3  and  C_4 
REMARK    4  A    between atoms: C_7  and  O_6 
REMARK    5  A    between atoms: C_9  and  C_10 
REMARK    6  A    between atoms: N_15  and  C_14 
REMARK    7  A    between atoms: N_20  and  C_19 
REMARK       I    between atoms: C_22  and  N_20 
ROOT
ATOM      1  C   LIG d   1      -2.392  75.894 115.390  0.00  0.00     0.161 C 
ATOM      2  C   LIG d   1      -2.305  75.420 116.709  0.00  0.00     0.016 C 
ATOM      3  C   LIG d   1      -1.609  76.099 117.736  0.00  0.00     0.038 C 
ATOM      4  C   LIG d   1      -1.077  77.383 117.547  0.00  0.00     0.028 C 
ATOM      5  C   LIG d   1      -0.703  77.677 116.098  0.00  0.00    -0.047 C 
ATOM      6  C   LIG d   1      -1.911  77.347 115.192  0.00  0.00     0.091 C 
ENDROOT
BRANCH   1   7
ATOM      7  O   LIG d   1      -3.740  75.742 114.903  0.00  0.00    -0.368 OA
BRANCH   7   8
ATOM      8  C   LIG d   1      -4.783  75.733 115.908  0.00  0.00     0.119 C 
BRANCH   8   9
ATOM      9  C   LIG d   1      -5.849  74.715 115.461  0.00  0.00     0.028 C 
ATOM     10  C   LIG d   1      -7.175  74.880 116.222  0.00  0.00     0.006 C 
ENDBRANCH   8   9
BRANCH   8  11
ATOM     11  C   LIG d   1      -5.509  77.080 115.969  0.00  0.00     0.028 C 
ATOM     12  C   LIG d   1      -5.051  77.952 117.148  0.00  0.00     0.006 C 
ENDBRANCH   8  11
ENDBRANCH   7   8
ENDBRANCH   1   7
BRANCH   6  13
ATOM     13  N   LIG d   1      -1.603  77.526 113.749  0.00  0.00    -0.311 N 
ATOM     14  C   LIG d   1      -2.378  78.216 112.914  0.00  0.00     0.210 C 
ATOM     15  C   LIG d   1      -1.887  78.260 111.463  0.00  0.00     0.109 C 
ATOM     16  O   LIG d   1      -3.408  78.823 113.243  0.00  0.00    -0.276 OA
ATOM     17  H   LIG d   1      -0.769  77.093 113.404  0.00  0.00     0.149 HD
ENDBRANCH   6  13
BRANCH   5  18
ATOM     18  N   LIG d   1      -0.291  79.091 116.022  0.00  0.00     0.381 N 
ATOM     19  H   LIG d   1      -0.950  79.606 115.472  0.00  0.00    -0.090 HD
ATOM     20  H   LIG d   1       0.606  79.145 115.572  0.00  0.00    -0.090 HD
ATOM     21  H   LIG d   1      -0.236  79.480 116.937  0.00  0.00    -0.090 HD
ENDBRANCH   5  18
BRANCH   3  22
ATOM     22  C   LIG d   1      -1.407  75.475 118.958  0.00  0.00     0.382 C 
ATOM     23  O   LIG d   1      -1.710  74.267 119.102  0.00  0.00    -0.241 OA
ATOM     24  O   LIG d   1      -0.966  76.118 119.930  0.00  0.00    -0.241 OA
ENDBRANCH   3  22
TORSDOF 7
ENDMDL
MODEL 4
REMARK VINA RESULT:      -4.7      3.052      3.881
REMARK  7 active torsions:
REMARK  status: ('A' for Active; 'I' for Inactive)
REMARK    1  A    between atoms: C_2  and  C_3 
REMARK    2  A    between atoms: C_3  and  O_6 
REMARK    3  A    between atoms: C_3  and  C_4 
REMARK    4  A    between atoms: C_7  and  O_6 
REMARK    5  A    between atoms: C_9  and  C_10 
REMARK    6  A    between atoms: N_15  and  C_14 
REMARK    7  A    between atoms: N_20  and  C_19 
REMARK       I    between atoms: C_22  and  N_20 
ROOT
ATOM      1  C   LIG d   1      -4.886  77.958 117.533  0.00  0.00     0.161 C 
ATOM      2  C   LIG d   1      -4.195  79.003 118.169  0.00  0.00     0.016 C 
ATOM      3  C   LIG d   1      -2.817  79.255 117.977  0.00  0.00     0.038 C 
ATOM      4  C   LIG d   1      -2.064  78.566 117.013  0.00  0.00     0.028 C 
ATOM      5  C   LIG d   1      -2.598  77.170 116.713  0.00  0.00    -0.047 C 
ATOM      6  C   LIG d   1      -4.107  77.267 116.394  0.00  0.00     0.091 C 
ENDROOT
BRANCH   1   7
ATOM      7  O   LIG d   1      -6.158  78.435 117.052  0.00  0.00    -0.368 OA
BRANCH   7   8
ATOM      8  C   LIG d   1      -7.146  78.746 118.065  0.00  0.00     0.119 C 
BRANCH   8   9
ATOM      9  C   LIG d   1      -8.445  78.010 117.686  0.00  0.00     0.028 C 
ATOM     10  C   LIG d   1      -8.181  76.599 117.134  0.00  0.00     0.006 C 
ENDBRANCH   8   9
BRANCH   8  11
ATOM     11  C   LIG d   1      -7.506  80.235 118.055  0.00  0.00     0.028 C 
ATOM     12  C   LIG d   1      -7.112  80.952 119.355  0.00  0.00     0.006 C 
ENDBRANCH   8  11
ENDBRANCH   7   8
ENDBRANCH   1   7
BRANCH   6  13
ATOM     13  N   LIG d   1      -4.726  75.934 116.171  0.00  0.00    -0.311 N 
ATOM     14  C   LIG d   1      -5.352  75.596 115.045  0.00  0.00     0.210 C 
ATOM     15  C   LIG d   1      -5.936  74.180 115.030  0.00  0.00     0.109 C 
ATOM     16  O   LIG d   1      -5.450  76.323 114.045  0.00  0.00    -0.276 OA
ATOM     17  H   LIG d   1      -4.665  75.272 116.919  0.00  0.00     0.149 HD
ENDBRANCH   6  13
BRANCH   5  18
ATOM     18  N   LIG d   1      -1.805  76.621 115.596  0.00  0.00     0.381 N 
ATOM     19  H   LIG d   1      -0.919  77.084 115.550  0.00  0.00    -0.090 HD
ATOM     20  H   LIG d   1      -2.295  76.791 114.736  0.00  0.00    -0.090 HD
ATOM     21  H   LIG d   1      -1.670  75.642 115.723  0.00  0.00    -0.090 HD
ENDBRANCH   5  18
BRANCH   3  22
ATOM     22  C   LIG d   1      -2.168  80.178 118.783  0.00  0.00     0.382 C 
ATOM     23  O   LIG d   1      -1.045  80.625 118.446  0.00  0.00    -0.241 OA
ATOM     24  O   LIG d   1      -2.671  80.536 119.865  0.00  0.00    -0.241 OA
ENDBRANCH   3  22
TORSDOF 7
ENDMDL
MODEL 5
REMARK VINA RESULT:      -4.7      3.388      4.146
REMARK  7 active torsions:
REMARK  status: ('A' for Active; 'I' for Inactive)
REMARK    1  A    between atoms: C_2  and  C_3 
REMARK    2  A    between atoms: C_3  and  O_6 
REMARK    3  A    between atoms: C_3  and  C_4 
REMARK    4  A    between atoms: C_7  and  O_6 
REMARK    5  A    between atoms: C_9  and  C_10 
REMARK    6  A    between atoms: N_15  and  C_14 
REMARK    7  A    between atoms: N_20  and  C_19 
REMARK       I    between atoms: C_22  and  N_20 
ROOT
ATOM      1  C   LIG d   1      -4.029  77.544 117.136  0.00  0.00     0.161 C 
ATOM      2  C   LIG d   1      -5.090  77.328 116.241  0.00  0.00     0.016 C 
ATOM      3  C   LIG d   1      -5.217  76.163 115.450  0.00  0.00     0.038 C 
ATOM      4  C   LIG d   1      -4.365  75.061 115.613  0.00  0.00     0.028 C 
ATOM      5  C   LIG d   1      -2.984  75.434 116.142  0.00  0.00    -0.047 C 
ATOM      6  C   LIG d   1      -3.151  76.304 117.408  0.00  0.00     0.091 C 
ENDROOT
BRANCH   1   7
ATOM      7  O   LIG d   1      -4.535  78.081 118.374  0.00  0.00    -0.368 OA
BRANCH   7   8
ATOM      8  C   LIG d   1      -5.903  78.557 118.350  0.00  0.00     0.119 C 
BRANCH   8   9
ATOM      9  C   LIG d   1      -5.866  80.086 118.538  0.00  0.00     0.028 C 
ATOM     10  C   LIG d   1      -7.192  80.758 118.146  0.00  0.00     0.006 C 
ENDBRANCH   8   9
BRANCH   8  11
ATOM     11  C   LIG d   1      -6.701  78.021 119.543  0.00  0.00     0.028 C 
ATOM     12  C   LIG d   1      -7.785  77.013 119.131  0.00  0.00     0.006 C 
ENDBRANCH   8  11
ENDBRANCH   7   8
ENDBRANCH   1   7
BRANCH   6  13
ATOM     13  N   LIG d   1      -1.849  76.784 117.942  0.00  0.00    -0.311 N 
ATOM     14  C   LIG d   1      -1.373  76.433 119.135  0.00  0.00     0.210 C 
ATOM     15  C   LIG d   1      -0.022  77.057 119.500  0.00  0.00     0.109 C 
ATOM     16  O   LIG d   1      -1.925  75.640 119.913  0.00  0.00    -0.276 OA
ATOM     17  H   LIG d   1      -1.321  77.407 117.363  0.00  0.00     0.149 HD
ENDBRANCH   6  13
BRANCH   5  18
ATOM     18  N   LIG d   1      -2.249  74.181 116.394  0.00  0.00     0.381 N 
ATOM     19  H   LIG d   1      -2.042  74.100 117.369  0.00  0.00    -0.090 HD
ATOM     20  H   LIG d   1      -1.382  74.205 115.888  0.00  0.00    -0.090 HD
ATOM     21  H   LIG d   1      -2.793  73.401 116.097  0.00  0.00    -0.090 HD
ENDBRANCH   5  18
BRANCH   3  22
ATOM     22  C   LIG d   1      -6.181  76.110 114.455  0.00  0.00     0.382 C 
ATOM     23  O   LIG d   1      -5.879  76.401 113.273  0.00  0.00    -0.241 OA
ATOM     24  O   LIG d   1      -7.359  75.817 114.732  0.00  0.00    -0.241 OA
ENDBRANCH   3  22
TORSDOF 7
ENDMDL
MODEL 6
REMARK VINA RESULT:      -4.6      1.928      2.825
REMARK  7 active torsions:
REMARK  status: ('A' for Active; 'I' for Inactive)
REMARK    1  A    between atoms: C_2  and  C_3 
REMARK    2  A    between atoms: C_3  and  O_6 
REMARK    3  A    between atoms: C_3  and  C_4 
REMARK    4  A    between atoms: C_7  and  O_6 
REMARK    5  A    between atoms: C_9  and  C_10 
REMARK    6  A    between atoms: N_15  and  C_14 
REMARK    7  A    between atoms: N_20  and  C_19 
REMARK       I    between atoms: C_22  and  N_20 
ROOT
ATOM      1  C   LIG d   1      -3.408  77.352 115.417  0.00  0.00     0.161 C 
ATOM      2  C   LIG d   1      -3.366  77.641 114.043  0.00  0.00     0.016 C 
ATOM      3  C   LIG d   1      -2.163  77.816 113.321  0.00  0.00     0.038 C 
ATOM      4  C   LIG d   1      -0.909  77.562 113.896  0.00  0.00     0.028 C 
ATOM      5  C   LIG d   1      -0.885  77.761 115.408  0.00  0.00    -0.047 C 
ATOM      6  C   LIG d   1      -2.050  76.963 116.038  0.00  0.00     0.091 C 
ENDROOT
BRANCH   1   7
ATOM      7  O   LIG d   1      -4.387  76.326 115.671  0.00  0.00    -0.368 OA
BRANCH   7   8
ATOM      8  C   LIG d   1      -5.747  76.781 115.878  0.00  0.00     0.119 C 
BRANCH   8   9
ATOM      9  C   LIG d   1      -5.886  77.165 117.364  0.00  0.00     0.028 C 
ATOM     10  C   LIG d   1      -5.952  78.687 117.572  0.00  0.00     0.006 C 
ENDBRANCH   8   9
BRANCH   8  11
ATOM     11  C   LIG d   1      -6.753  75.647 115.657  0.00  0.00     0.028 C 
ATOM     12  C   LIG d   1      -8.141  75.960 116.238  0.00  0.00     0.006 C 
ENDBRANCH   8  11
ENDBRANCH   7   8
ENDBRANCH   1   7
BRANCH   6  13
ATOM     13  N   LIG d   1      -2.150  77.169 117.506  0.00  0.00    -0.311 N 
ATOM     14  C   LIG d   1      -2.243  78.371 118.072  0.00  0.00     0.210 C 
ATOM     15  C   LIG d   1      -2.317  78.361 119.603  0.00  0.00     0.109 C 
ATOM     16  O   LIG d   1      -2.305  79.443 117.451  0.00  0.00    -0.276 OA
ATOM     17  H   LIG d   1      -2.139  76.352 118.084  0.00  0.00     0.149 HD
ENDBRANCH   6  13
BRANCH   5  18
ATOM     18  N   LIG d   1       0.440  77.331 115.893  0.00  0.00     0.381 N 
ATOM     19  H   LIG d   1       1.118  78.039 115.697  0.00  0.00    -0.090 HD
ATOM     20  H   LIG d   1       0.708  76.494 115.407  0.00  0.00    -0.090 HD
ATOM     21  H   LIG d   1       0.404  77.158 116.874  0.00  0.00    -0.090 HD
ENDBRANCH   5  18
BRANCH   3  22
ATOM     22  C   LIG d   1      -2.206  78.287 112.018  0.00  0.00     0.382 C 
ATOM     23  O   LIG d   1      -2.729  77.590 111.115  0.00  0.00    -0.241 OA
ATOM     24  O   LIG d   1      -1.690  79.382 111.724  0.00  0.00    -0.241 OA
ENDBRANCH   3  22
TORSDOF 7
ENDMDL
MODEL 7
REMARK VINA RESULT:      -4.5      2.540      4.406
REMARK  7 active torsions:
REMARK  status: ('A' for Active; 'I' for Inactive)
REMARK    1  A    between atoms: C_2  and  C_3 
REMARK    2  A    between atoms: C_3  and  O_6 
REMARK    3  A    between atoms: C_3  and  C_4 
REMARK    4  A    between atoms: C_7  and  O_6 
REMARK    5  A    between atoms: C_9  and  C_10 
REMARK    6  A    between atoms: N_15  and  C_14 
REMARK    7  A    between atoms: N_20  and  C_19 
REMARK       I    between atoms: C_22  and  N_20 
ROOT
ATOM      1  C   LIG d   1      -1.882  77.328 114.374  0.00  0.00     0.161 C 
ATOM      2  C   LIG d   1      -1.074  77.077 113.253  0.00  0.00     0.016 C 
ATOM      3  C   LIG d   1      -0.931  77.984 112.178  0.00  0.00     0.038 C 
ATOM      4  C   LIG d   1      -1.473  79.277 112.222  0.00  0.00     0.028 C 
ATOM      5  C   LIG d   1      -2.711  79.386 113.106  0.00  0.00    -0.047 C 
ATOM      6  C   LIG d   1      -2.392  78.779 114.492  0.00  0.00     0.091 C 
ENDROOT
BRANCH   1   7
ATOM      7  O   LIG d   1      -1.185  76.943 115.575  0.00  0.00    -0.368 OA
BRANCH   7   8
ATOM      8  C   LIG d   1      -1.284  75.546 115.950  0.00  0.00     0.119 C 
BRANCH   8   9
ATOM      9  C   LIG d   1      -2.594  75.371 116.742  0.00  0.00     0.028 C 
ATOM     10  C   LIG d   1      -3.764  74.923 115.849  0.00  0.00     0.006 C 
ENDBRANCH   8   9
BRANCH   8  11
ATOM     11  C   LIG d   1      -0.167  75.149 116.920  0.00  0.00     0.028 C 
ATOM     12  C   LIG d   1      -0.702  74.553 118.232  0.00  0.00     0.006 C 
ENDBRANCH   8  11
ENDBRANCH   7   8
ENDBRANCH   1   7
BRANCH   6  13
ATOM     13  N   LIG d   1      -3.575  78.769 115.391  0.00  0.00    -0.311 N 
ATOM     14  C   LIG d   1      -3.506  79.023 116.697  0.00  0.00     0.210 C 
ATOM     15  C   LIG d   1      -4.841  78.940 117.443  0.00  0.00     0.109 C 
ATOM     16  O   LIG d   1      -2.471  79.342 117.301  0.00  0.00    -0.276 OA
ATOM     17  H   LIG d   1      -4.461  78.550 114.978  0.00  0.00     0.149 HD
ENDBRANCH   6  13
BRANCH   5  18
ATOM     18  N   LIG d   1      -3.088  80.810 113.171  0.00  0.00     0.381 N 
ATOM     19  H   LIG d   1      -2.454  81.354 112.621  0.00  0.00    -0.090 HD
ATOM     20  H   LIG d   1      -3.024  81.120 114.125  0.00  0.00    -0.090 HD
ATOM     21  H   LIG d   1      -4.019  80.932 112.837  0.00  0.00    -0.090 HD
ENDBRANCH   5  18
BRANCH   3  22
ATOM     22  C   LIG d   1      -0.273  77.585 111.025  0.00  0.00     0.382 C 
ATOM     23  O   LIG d   1      -0.055  76.367 110.817  0.00  0.00    -0.241 OA
ATOM     24  O   LIG d   1       0.145  78.430 110.211  0.00  0.00    -0.241 OA
ENDBRANCH   3  22
TORSDOF 7
ENDMDL
MODEL 8
REMARK VINA RESULT:      -4.5      2.523      5.322
REMARK  7 active torsions:
REMARK  status: ('A' for Active; 'I' for Inactive)
REMARK    1  A    between atoms: C_2  and  C_3 
REMARK    2  A    between atoms: C_3  and  O_6 
REMARK    3  A    between atoms: C_3  and  C_4 
REMARK    4  A    between atoms: C_7  and  O_6 
REMARK    5  A    between atoms: C_9  and  C_10 
REMARK    6  A    between atoms: N_15  and  C_14 
REMARK    7  A    between atoms: N_20  and  C_19 
REMARK       I    between atoms: C_22  and  N_20 
ROOT
ATOM      1  C   LIG d   1      -3.489  76.367 115.824  0.00  0.00     0.161 C 
ATOM      2  C   LIG d   1      -4.751  76.049 115.294  0.00  0.00     0.016 C 
ATOM      3  C   LIG d   1      -5.961  76.590 115.788  0.00  0.00     0.038 C 
ATOM      4  C   LIG d   1      -5.979  77.607 116.753  0.00  0.00     0.028 C 
ATOM      5  C   LIG d   1      -4.760  77.594 117.670  0.00  0.00    -0.047 C 
ATOM      6  C   LIG d   1      -3.480  77.560 116.803  0.00  0.00     0.091 C 
ENDROOT
BRANCH   1   7
ATOM      7  O   LIG d   1      -2.552  76.592 114.752  0.00  0.00    -0.368 OA
BRANCH   7   8
ATOM      8  C   LIG d   1      -2.420  77.962 114.298  0.00  0.00     0.119 C 
BRANCH   8   9
ATOM      9  C   LIG d   1      -3.002  78.035 112.873  0.00  0.00     0.028 C 
ATOM     10  C   LIG d   1      -1.927  78.335 111.815  0.00  0.00     0.006 C 
ENDBRANCH   8   9
BRANCH   8  11
ATOM     11  C   LIG d   1      -0.949  78.363 114.156  0.00  0.00     0.028 C 
ATOM     12  C   LIG d   1       0.005  77.385 114.860  0.00  0.00     0.006 C 
ENDBRANCH   8  11
ENDBRANCH   7   8
ENDBRANCH   1   7
BRANCH   6  13
ATOM     13  N   LIG d   1      -2.244  77.461 117.621  0.00  0.00    -0.311 N 
ATOM     14  C   LIG d   1      -1.516  78.516 117.980  0.00  0.00     0.210 C 
ATOM     15  C   LIG d   1      -0.268  78.191 118.807  0.00  0.00     0.109 C 
ATOM     16  O   LIG d   1      -1.802  79.695 117.720  0.00  0.00    -0.276 OA
ATOM     17  H   LIG d   1      -1.955  76.544 117.903  0.00  0.00     0.149 HD
ENDBRANCH   6  13
BRANCH   5  18
ATOM     18  N   LIG d   1      -4.840  78.787 118.535  0.00  0.00     0.381 N 
ATOM     19  H   LIG d   1      -4.922  79.609 117.971  0.00  0.00    -0.090 HD
ATOM     20  H   LIG d   1      -3.994  78.856 119.072  0.00  0.00    -0.090 HD
ATOM     21  H   LIG d   1      -5.624  78.713 119.145  0.00  0.00    -0.090 HD
ENDBRANCH   5  18
BRANCH   3  22
ATOM     22  C   LIG d   1      -7.172  76.082 115.343  0.00  0.00     0.382 C 
ATOM     23  O   LIG d   1      -7.420  76.039 114.114  0.00  0.00    -0.241 OA
ATOM     24  O   LIG d   1      -8.037  75.708 116.157  0.00  0.00    -0.241 OA
ENDBRANCH   3  22
TORSDOF 7
ENDMDL
MODEL 9
REMARK VINA RESULT:      -4.5      2.985      4.495
REMARK  7 active torsions:
REMARK  status: ('A' for Active; 'I' for Inactive)
REMARK    1  A    between atoms: C_2  and  C_3 
REMARK    2  A    between atoms: C_3  and  O_6 
REMARK    3  A    between atoms: C_3  and  C_4 
REMARK    4  A    between atoms: C_7  and  O_6 
REMARK    5  A    between atoms: C_9  and  C_10 
REMARK    6  A    between atoms: N_15  and  C_14 
REMARK    7  A    between atoms: N_20  and  C_19 
REMARK       I    between atoms: C_22  and  N_20 
ROOT
ATOM      1  C   LIG d   1      -4.308  77.632 116.359  0.00  0.00     0.161 C 
ATOM      2  C   LIG d   1      -3.220  77.174 115.599  0.00  0.00     0.016 C 
ATOM      3  C   LIG d   1      -1.877  77.522 115.874  0.00  0.00     0.038 C 
ATOM      4  C   LIG d   1      -1.517  78.235 117.027  0.00  0.00     0.028 C 
ATOM      5  C   LIG d   1      -2.626  79.143 117.548  0.00  0.00    -0.047 C 
ATOM      6  C   LIG d   1      -3.927  78.320 117.687  0.00  0.00     0.091 C 
ENDROOT
BRANCH   1   7
ATOM      7  O   LIG d   1      -5.225  76.547 116.602  0.00  0.00    -0.368 OA
BRANCH   7   8
ATOM      8  C   LIG d   1      -6.485  76.605 115.889  0.00  0.00     0.119 C 
BRANCH   8   9
ATOM      9  C   LIG d   1      -7.573  76.042 116.824  0.00  0.00     0.028 C 
ATOM     10  C   LIG d   1      -8.504  77.139 117.366  0.00  0.00     0.006 C 
ENDBRANCH   8   9
BRANCH   8  11
ATOM     11  C   LIG d   1      -6.478  75.676 114.670  0.00  0.00     0.028 C 
ATOM     12  C   LIG d   1      -5.672  74.389 114.907  0.00  0.00     0.006 C 
ENDBRANCH   8  11
ENDBRANCH   7   8
ENDBRANCH   1   7
BRANCH   6  13
ATOM     13  N   LIG d   1      -5.082  79.152 118.111  0.00  0.00    -0.311 N 
ATOM     14  C   LIG d   1      -5.847  78.864 119.162  0.00  0.00     0.210 C 
ATOM     15  C   LIG d   1      -6.999  79.843 119.412  0.00  0.00     0.109 C 
ATOM     16  O   LIG d   1      -5.663  77.908 119.930  0.00  0.00    -0.276 OA
ATOM     17  H   LIG d   1      -5.285  79.965 117.562  0.00  0.00     0.149 HD
ENDBRANCH   6  13
BRANCH   5  18
ATOM     18  N   LIG d   1      -2.167  79.718 118.827  0.00  0.00     0.381 N 
ATOM     19  H   LIG d   1      -2.258  79.039 119.556  0.00  0.00    -0.090 HD
ATOM     20  H   LIG d   1      -2.747  80.506 119.056  0.00  0.00    -0.090 HD
ATOM     21  H   LIG d   1      -1.217  80.008 118.749  0.00  0.00    -0.090 HD
ENDBRANCH   5  18
BRANCH   3  22
ATOM     22  C   LIG d   1      -0.881  77.189 114.968  0.00  0.00     0.382 C 
ATOM     23  O   LIG d   1      -1.187  76.817 113.809  0.00  0.00    -0.241 OA
ATOM     24  O   LIG d   1       0.316  77.214 115.309  0.00  0.00    -0.241 OA
ENDBRANCH   3  22
TORSDOF 7
ENDMDL
