MODEL 1
REMARK VINA RESULT:      -5.3      0.000      0.000
REMARK  7 active torsions:
REMARK  status: ('A' for Active; 'I' for Inactive)
REMARK    1  A    between atoms: C_2  and  C_3 
REMARK    2  A    between atoms: C_3  and  O_6 
REMARK    3  A    between atoms: C_3  and  C_4 
REMARK    4  A    between atoms: C_7  and  O_6 
REMARK    5  A    between atoms: C_9  and  C_10 
REMARK    6  A    between atoms: N_15  and  C_14 
REMARK    7  A    between atoms: N_20  and  C_19 
REMARK       I    between atoms: C_22  and  N_20 
ROOT
ATOM      1  C   LIG d   1      -1.866  75.301 115.056  0.00  0.00     0.161 C 
ATOM      2  C   LIG d   1      -1.730  74.720 116.328  0.00  0.00     0.016 C 
ATOM      3  C   LIG d   1      -1.013  75.324 117.386  0.00  0.00     0.038 C 
ATOM      4  C   LIG d   1      -0.506  76.629 117.289  0.00  0.00     0.028 C 
ATOM      5  C   LIG d   1      -0.184  77.048 115.859  0.00  0.00    -0.047 C 
ATOM      6  C   LIG d   1      -1.415  76.773 114.965  0.00  0.00     0.091 C 
ENDROOT
BRANCH   1   7
ATOM      7  O   LIG d   1      -3.226  75.164 114.599  0.00  0.00    -0.368 OA
BRANCH   7   8
ATOM      8  C   LIG d   1      -4.255  75.311 115.609  0.00  0.00     0.119 C 
BRANCH   8   9
ATOM      9  C   LIG d   1      -5.279  74.180 115.394  0.00  0.00     0.028 C 
ATOM     10  C   LIG d   1      -6.574  74.401 116.194  0.00  0.00     0.006 C 
ENDBRANCH   8   9
BRANCH   8  11
ATOM     11  C   LIG d   1      -5.041  76.612 115.418  0.00  0.00     0.028 C 
ATOM     12  C   LIG d   1      -4.682  77.683 116.460  0.00  0.00     0.006 C 
ENDBRANCH   8  11
ENDBRANCH   7   8
ENDBRANCH   1   7
BRANCH   6  13
ATOM     13  N   LIG d   1      -1.155  77.077 113.534  0.00  0.00    -0.311 N 
ATOM     14  C   LIG d   1      -1.910  77.903 112.811  0.00  0.00     0.210 C 
ATOM     15  C   LIG d   1      -1.479  78.061 111.350  0.00  0.00     0.109 C 
ATOM     16  O   LIG d   1      -2.876  78.545 113.250  0.00  0.00    -0.276 OA
ATOM     17  H   LIG d   1      -0.372  76.623 113.106  0.00  0.00     0.149 HD
ENDBRANCH   6  13
BRANCH   5  18
ATOM     18  N   LIG d   1       0.203  78.472 115.888  0.00  0.00     0.381 N 
ATOM     19  H   LIG d   1       0.880  78.653 115.174  0.00  0.00    -0.090 HD
ATOM     20  H   LIG d   1       0.621  78.677 116.779  0.00  0.00    -0.090 HD
ATOM     21  H   LIG d   1      -0.599  79.046 115.749  0.00  0.00    -0.090 HD
ENDBRANCH   5  18
BRANCH   3  22
ATOM     22  C   LIG d   1      -0.761  74.605 118.545  0.00  0.00     0.382 C 
ATOM     23  O   LIG d   1      -1.716  74.183 119.240  0.00  0.00    -0.241 OA
ATOM     24  O   LIG d   1       0.408  74.410 118.926  0.00  0.00    -0.241 OA
ENDBRANCH   3  22
TORSDOF 7
ENDMDL
MODEL 2
REMARK VINA RESULT:      -5.1      1.883      4.871
REMARK  7 active torsions:
REMARK  status: ('A' for Active; 'I' for Inactive)
REMARK    1  A    between atoms: C_2  and  C_3 
REMARK    2  A    between atoms: C_3  and  O_6 
REMARK    3  A    between atoms: C_3  and  C_4 
REMARK    4  A    between atoms: C_7  and  O_6 
REMARK    5  A    between atoms: C_9  and  C_10 
REMARK    6  A    between atoms: N_15  and  C_14 
REMARK    7  A    between atoms: N_20  and  C_19 
REMARK       I    between atoms: C_22  and  N_20 
ROOT
ATOM      1  C   LIG d   1      -2.831  76.691 115.674  0.00  0.00     0.161 C 
ATOM      2  C   LIG d   1      -3.105  77.684 114.719  0.00  0.00     0.016 C 
ATOM      3  C   LIG d   1      -2.336  77.869 113.546  0.00  0.00     0.038 C 
ATOM      4  C   LIG d   1      -1.326  76.971 113.173  0.00  0.00     0.028 C 
ATOM      5  C   LIG d   1      -0.686  76.252 114.356  0.00  0.00    -0.047 C 
ATOM      6  C   LIG d   1      -1.801  75.631 115.228  0.00  0.00     0.091 C 
ENDROOT
BRANCH   1   7
ATOM      7  O   LIG d   1      -4.058  76.055 116.083  0.00  0.00    -0.368 OA
BRANCH   7   8
ATOM      8  C   LIG d   1      -5.273  76.569 115.483  0.00  0.00     0.119 C 
BRANCH   8   9
ATOM      9  C   LIG d   1      -6.240  76.926 116.629  0.00  0.00     0.028 C 
ATOM     10  C   LIG d   1      -6.002  78.344 117.176  0.00  0.00     0.006 C 
ENDBRANCH   8   9
BRANCH   8  11
ATOM     11  C   LIG d   1      -5.991  75.489 114.668  0.00  0.00     0.028 C 
ATOM     12  C   LIG d   1      -5.076  74.310 114.304  0.00  0.00     0.006 C 
ENDBRANCH   8  11
ENDBRANCH   7   8
ENDBRANCH   1   7
BRANCH   6  13
ATOM     13  N   LIG d   1      -1.267  74.981 116.453  0.00  0.00    -0.311 N 
ATOM     14  C   LIG d   1      -0.543  75.623 117.368  0.00  0.00     0.210 C 
ATOM     15  C   LIG d   1      -0.075  74.760 118.544  0.00  0.00     0.109 C 
ATOM     16  O   LIG d   1      -0.273  76.833 117.334  0.00  0.00    -0.276 OA
ATOM     17  H   LIG d   1      -1.466  74.007 116.576  0.00  0.00     0.149 HD
ENDBRANCH   6  13
BRANCH   5  18
ATOM     18  N   LIG d   1       0.250  75.249 113.815  0.00  0.00     0.381 N 
ATOM     19  H   LIG d   1      -0.209  74.699 113.116  0.00  0.00    -0.090 HD
ATOM     20  H   LIG d   1       0.537  74.637 114.559  0.00  0.00    -0.090 HD
ATOM     21  H   LIG d   1       1.046  75.702 113.422  0.00  0.00    -0.090 HD
ENDBRANCH   5  18
BRANCH   3  22
ATOM     22  C   LIG d   1      -2.550  78.987 112.754  0.00  0.00     0.382 C 
ATOM     23  O   LIG d   1      -2.161  78.993 111.561  0.00  0.00    -0.241 OA
ATOM     24  O   LIG d   1      -3.086  80.005 113.230  0.00  0.00    -0.241 OA
ENDBRANCH   3  22
TORSDOF 7
ENDMDL
MODEL 3
REMARK VINA RESULT:      -4.6      1.621      2.322
REMARK  7 active torsions:
REMARK  status: ('A' for Active; 'I' for Inactive)
REMARK    1  A    between atoms: C_2  and  C_3 
REMARK    2  A    between atoms: C_3  and  O_6 
REMARK    3  A    between atoms: C_3  and  C_4 
REMARK    4  A    between atoms: C_7  and  O_6 
REMARK    5  A    between atoms: C_9  and  C_10 
REMARK    6  A    between atoms: N_15  and  C_14 
REMARK    7  A    between atoms: N_20  and  C_19 
REMARK       I    between atoms: C_22  and  N_20 
ROOT
ATOM      1  C   LIG d   1      -3.248  76.499 116.493  0.00  0.00     0.161 C 
ATOM      2  C   LIG d   1      -2.824  75.923 117.702  0.00  0.00     0.016 C 
ATOM      3  C   LIG d   1      -1.533  75.381 117.896  0.00  0.00     0.038 C 
ATOM      4  C   LIG d   1      -0.521  75.514 116.934  0.00  0.00     0.028 C 
ATOM      5  C   LIG d   1      -1.052  75.640 115.510  0.00  0.00    -0.047 C 
ATOM      6  C   LIG d   1      -2.122  76.754 115.469  0.00  0.00     0.091 C 
ENDROOT
BRANCH   1   7
ATOM      7  O   LIG d   1      -3.969  77.719 116.759  0.00  0.00    -0.368 OA
BRANCH   7   8
ATOM      8  C   LIG d   1      -5.386  77.700 116.460  0.00  0.00     0.119 C 
BRANCH   8   9
ATOM      9  C   LIG d   1      -6.106  78.474 117.581  0.00  0.00     0.028 C 
ATOM     10  C   LIG d   1      -5.938  77.807 118.957  0.00  0.00     0.006 C 
ENDBRANCH   8   9
BRANCH   8  11
ATOM     11  C   LIG d   1      -5.950  76.277 116.523  0.00  0.00     0.028 C 
ATOM     12  C   LIG d   1      -6.582  75.827 115.197  0.00  0.00     0.006 C 
ENDBRANCH   8  11
ENDBRANCH   7   8
ENDBRANCH   1   7
BRANCH   6  13
ATOM     13  N   LIG d   1      -2.753  76.886 114.130  0.00  0.00    -0.311 N 
ATOM     14  C   LIG d   1      -2.369  77.783 113.223  0.00  0.00     0.210 C 
ATOM     15  C   LIG d   1      -3.167  77.762 111.916  0.00  0.00     0.109 C 
ATOM     16  O   LIG d   1      -1.423  78.571 113.366  0.00  0.00    -0.276 OA
ATOM     17  H   LIG d   1      -3.509  76.264 113.919  0.00  0.00     0.149 HD
ENDBRANCH   6  13
BRANCH   5  18
ATOM     18  N   LIG d   1       0.099  75.911 114.627  0.00  0.00     0.381 N 
ATOM     19  H   LIG d   1       0.751  75.153 114.678  0.00  0.00    -0.090 HD
ATOM     20  H   LIG d   1       0.561  76.746 114.943  0.00  0.00    -0.090 HD
ATOM     21  H   LIG d   1      -0.212  76.028 113.688  0.00  0.00    -0.090 HD
ENDBRANCH   5  18
BRANCH   3  22
ATOM     22  C   LIG d   1      -1.256  74.660 119.047  0.00  0.00     0.382 C 
ATOM     23  O   LIG d   1      -2.138  74.525 119.930  0.00  0.00    -0.241 OA
ATOM     24  O   LIG d   1      -0.122  74.180 119.235  0.00  0.00    -0.241 OA
ENDBRANCH   3  22
TORSDOF 7
ENDMDL
MODEL 4
REMARK VINA RESULT:      -4.6      1.723      4.779
REMARK  7 active torsions:
REMARK  status: ('A' for Active; 'I' for Inactive)
REMARK    1  A    between atoms: C_2  and  C_3 
REMARK    2  A    between atoms: C_3  and  O_6 
REMARK    3  A    between atoms: C_3  and  C_4 
REMARK    4  A    between atoms: C_7  and  O_6 
REMARK    5  A    between atoms: C_9  and  C_10 
REMARK    6  A    between atoms: N_15  and  C_14 
REMARK    7  A    between atoms: N_20  and  C_19 
REMARK       I    between atoms: C_22  and  N_20 
ROOT
ATOM      1  C   LIG d   1      -3.430  76.435 115.681  0.00  0.00     0.161 C 
ATOM      2  C   LIG d   1      -3.516  76.824 114.334  0.00  0.00     0.016 C 
ATOM      3  C   LIG d   1      -2.387  77.115 113.535  0.00  0.00     0.038 C 
ATOM      4  C   LIG d   1      -1.079  76.888 113.988  0.00  0.00     0.028 C 
ATOM      5  C   LIG d   1      -0.940  76.977 115.504  0.00  0.00    -0.047 C 
ATOM      6  C   LIG d   1      -2.009  76.074 116.161  0.00  0.00     0.091 C 
ENDROOT
BRANCH   1   7
ATOM      7  O   LIG d   1      -4.336  75.342 115.932  0.00  0.00    -0.368 OA
BRANCH   7   8
ATOM      8  C   LIG d   1      -5.478  75.641 116.772  0.00  0.00     0.119 C 
BRANCH   8   9
ATOM      9  C   LIG d   1      -6.746  75.271 115.978  0.00  0.00     0.028 C 
ATOM     10  C   LIG d   1      -6.820  75.994 114.622  0.00  0.00     0.006 C 
ENDBRANCH   8   9
BRANCH   8  11
ATOM     11  C   LIG d   1      -5.593  77.144 117.043  0.00  0.00     0.028 C 
ATOM     12  C   LIG d   1      -5.443  77.494 118.532  0.00  0.00     0.006 C 
ENDBRANCH   8  11
ENDBRANCH   7   8
ENDBRANCH   1   7
BRANCH   6  13
ATOM     13  N   LIG d   1      -1.997  76.168 117.644  0.00  0.00    -0.311 N 
ATOM     14  C   LIG d   1      -1.337  75.317 118.427  0.00  0.00     0.210 C 
ATOM     15  C   LIG d   1      -1.473  75.582 119.930  0.00  0.00     0.109 C 
ATOM     16  O   LIG d   1      -0.625  74.387 118.019  0.00  0.00    -0.276 OA
ATOM     17  H   LIG d   1      -2.523  76.912 118.058  0.00  0.00     0.149 HD
ENDBRANCH   6  13
BRANCH   5  18
ATOM     18  N   LIG d   1       0.440  76.584 115.849  0.00  0.00     0.381 N 
ATOM     19  H   LIG d   1       0.702  75.773 115.325  0.00  0.00    -0.090 HD
ATOM     20  H   LIG d   1       0.478  76.355 116.826  0.00  0.00    -0.090 HD
ATOM     21  H   LIG d   1       1.067  77.333 115.651  0.00  0.00    -0.090 HD
ENDBRANCH   5  18
BRANCH   3  22
ATOM     22  C   LIG d   1      -2.560  77.677 112.279  0.00  0.00     0.382 C 
ATOM     23  O   LIG d   1      -2.964  78.860 112.172  0.00  0.00    -0.241 OA
ATOM     24  O   LIG d   1      -2.360  77.001 111.252  0.00  0.00    -0.241 OA
ENDBRANCH   3  22
TORSDOF 7
ENDMDL
MODEL 5
REMARK VINA RESULT:      -4.5      2.201      4.401
REMARK  7 active torsions:
REMARK  status: ('A' for Active; 'I' for Inactive)
REMARK    1  A    between atoms: C_2  and  C_3 
REMARK    2  A    between atoms: C_3  and  O_6 
REMARK    3  A    between atoms: C_3  and  C_4 
REMARK    4  A    between atoms: C_7  and  O_6 
REMARK    5  A    between atoms: C_9  and  C_10 
REMARK    6  A    between atoms: N_15  and  C_14 
REMARK    7  A    between atoms: N_20  and  C_19 
REMARK       I    between atoms: C_22  and  N_20 
ROOT
ATOM      1  C   LIG d   1      -2.077  77.282 114.593  0.00  0.00     0.161 C 
ATOM      2  C   LIG d   1      -1.019  77.334 115.516  0.00  0.00     0.016 C 
ATOM      3  C   LIG d   1      -0.982  76.564 116.701  0.00  0.00     0.038 C 
ATOM      4  C   LIG d   1      -1.936  75.571 116.970  0.00  0.00     0.028 C 
ATOM      5  C   LIG d   1      -3.288  75.838 116.318  0.00  0.00    -0.047 C 
ATOM      6  C   LIG d   1      -3.072  76.124 114.814  0.00  0.00     0.091 C 
ENDROOT
BRANCH   1   7
ATOM      7  O   LIG d   1      -1.553  77.243 113.251  0.00  0.00    -0.368 OA
BRANCH   7   8
ATOM      8  C   LIG d   1      -1.446  78.518 112.571  0.00  0.00     0.119 C 
BRANCH   8   9
ATOM      9  C   LIG d   1      -2.503  79.459 113.182  0.00  0.00     0.028 C 
ATOM     10  C   LIG d   1      -2.510  80.845 112.516  0.00  0.00     0.006 C 
ENDBRANCH   8   9
BRANCH   8  11
ATOM     11  C   LIG d   1      -1.822  78.393 111.091  0.00  0.00     0.028 C 
ATOM     12  C   LIG d   1      -3.144  77.641 110.873  0.00  0.00     0.006 C 
ENDBRANCH   8  11
ENDBRANCH   7   8
ENDBRANCH   1   7
BRANCH   6  13
ATOM     13  N   LIG d   1      -4.336  76.478 114.117  0.00  0.00    -0.311 N 
ATOM     14  C   LIG d   1      -5.139  75.578 113.553  0.00  0.00     0.210 C 
ATOM     15  C   LIG d   1      -6.381  76.158 112.869  0.00  0.00     0.109 C 
ATOM     16  O   LIG d   1      -4.958  74.351 113.583  0.00  0.00    -0.276 OA
ATOM     17  H   LIG d   1      -4.576  77.449 114.074  0.00  0.00     0.149 HD
ENDBRANCH   6  13
BRANCH   5  18
ATOM     18  N   LIG d   1      -4.142  74.661 116.565  0.00  0.00     0.381 N 
ATOM     19  H   LIG d   1      -3.591  73.827 116.522  0.00  0.00    -0.090 HD
ATOM     20  H   LIG d   1      -4.844  74.612 115.848  0.00  0.00    -0.090 HD
ATOM     21  H   LIG d   1      -4.576  74.736 117.459  0.00  0.00    -0.090 HD
ENDBRANCH   5  18
BRANCH   3  22
ATOM     22  C   LIG d   1      -0.003  76.811 117.652  0.00  0.00     0.382 C 
ATOM     23  O   LIG d   1       0.410  75.880 118.384  0.00  0.00    -0.241 OA
ATOM     24  O   LIG d   1       0.440  77.964 117.816  0.00  0.00    -0.241 OA
ENDBRANCH   3  22
TORSDOF 7
ENDMDL
MODEL 6
REMARK VINA RESULT:      -4.5      2.586      5.125
REMARK  7 active torsions:
REMARK  status: ('A' for Active; 'I' for Inactive)
REMARK    1  A    between atoms: C_2  and  C_3 
REMARK    2  A    between atoms: C_3  and  O_6 
REMARK    3  A    between atoms: C_3  and  C_4 
REMARK    4  A    between atoms: C_7  and  O_6 
REMARK    5  A    between atoms: C_9  and  C_10 
REMARK    6  A    between atoms: N_15  and  C_14 
REMARK    7  A    between atoms: N_20  and  C_19 
REMARK       I    between atoms: C_22  and  N_20 
ROOT
ATOM      1  C   LIG d   1      -3.388  77.523 115.526  0.00  0.00     0.161 C 
ATOM      2  C   LIG d   1      -2.282  76.669 115.381  0.00  0.00     0.016 C 
ATOM      3  C   LIG d   1      -2.365  75.262 115.499  0.00  0.00     0.038 C 
ATOM      4  C   LIG d   1      -3.595  74.599 115.619  0.00  0.00     0.028 C 
ATOM      5  C   LIG d   1      -4.680  75.449 116.274  0.00  0.00    -0.047 C 
ATOM      6  C   LIG d   1      -4.757  76.811 115.547  0.00  0.00     0.091 C 
ENDROOT
BRANCH   1   7
ATOM      7  O   LIG d   1      -3.364  78.532 114.496  0.00  0.00    -0.368 OA
BRANCH   7   8
ATOM      8  C   LIG d   1      -2.462  78.290 113.388  0.00  0.00     0.119 C 
BRANCH   8   9
ATOM      9  C   LIG d   1      -2.291  79.622 112.632  0.00  0.00     0.028 C 
ATOM     10  C   LIG d   1      -0.816  80.037 112.502  0.00  0.00     0.006 C 
ENDBRANCH   8   9
BRANCH   8  11
ATOM     11  C   LIG d   1      -3.075  77.322 112.372  0.00  0.00     0.028 C 
ATOM     12  C   LIG d   1      -2.933  77.812 110.922  0.00  0.00     0.006 C 
ENDBRANCH   8  11
ENDBRANCH   7   8
ENDBRANCH   1   7
BRANCH   6  13
ATOM     13  N   LIG d   1      -5.735  77.735 116.178  0.00  0.00    -0.311 N 
ATOM     14  C   LIG d   1      -5.681  78.097 117.458  0.00  0.00     0.210 C 
ATOM     15  C   LIG d   1      -6.798  79.043 117.911  0.00  0.00     0.109 C 
ATOM     16  O   LIG d   1      -4.796  77.750 118.255  0.00  0.00    -0.276 OA
ATOM     17  H   LIG d   1      -6.469  78.090 115.596  0.00  0.00     0.149 HD
ENDBRANCH   6  13
BRANCH   5  18
ATOM     18  N   LIG d   1      -5.941  74.688 116.211  0.00  0.00     0.381 N 
ATOM     19  H   LIG d   1      -5.884  73.996 115.490  0.00  0.00    -0.090 HD
ATOM     20  H   LIG d   1      -6.690  75.318 115.984  0.00  0.00    -0.090 HD
ATOM     21  H   LIG d   1      -6.120  74.250 117.088  0.00  0.00    -0.090 HD
ENDBRANCH   5  18
BRANCH   3  22
ATOM     22  C   LIG d   1      -1.203  74.506 115.536  0.00  0.00     0.382 C 
ATOM     23  O   LIG d   1      -0.700  74.183 116.639  0.00  0.00    -0.241 OA
ATOM     24  O   LIG d   1      -0.628  74.180 114.480  0.00  0.00    -0.241 OA
ENDBRANCH   3  22
TORSDOF 7
ENDMDL
MODEL 7
REMARK VINA RESULT:      -4.4      2.837      5.106
REMARK  7 active torsions:
REMARK  status: ('A' for Active; 'I' for Inactive)
REMARK    1  A    between atoms: C_2  and  C_3 
REMARK    2  A    between atoms: C_3  and  O_6 
REMARK    3  A    between atoms: C_3  and  C_4 
REMARK    4  A    between atoms: C_7  and  O_6 
REMARK    5  A    between atoms: C_9  and  C_10 
REMARK    6  A    between atoms: N_15  and  C_14 
REMARK    7  A    between atoms: N_20  and  C_19 
REMARK       I    between atoms: C_22  and  N_20 
ROOT
ATOM      1  C   LIG d   1      -2.011  78.408 114.121  0.00  0.00     0.161 C 
ATOM      2  C   LIG d   1      -3.061  77.476 114.074  0.00  0.00     0.016 C 
ATOM      3  C   LIG d   1      -3.611  76.983 112.869  0.00  0.00     0.038 C 
ATOM      4  C   LIG d   1      -3.042  77.275 111.620  0.00  0.00     0.028 C 
ATOM      5  C   LIG d   1      -2.300  78.606 111.590  0.00  0.00    -0.047 C 
ATOM      6  C   LIG d   1      -1.304  78.653 112.771  0.00  0.00     0.091 C 
ENDROOT
BRANCH   1   7
ATOM      7  O   LIG d   1      -1.053  78.014 115.123  0.00  0.00    -0.368 OA
BRANCH   7   8
ATOM      8  C   LIG d   1      -1.507  77.035 116.089  0.00  0.00     0.119 C 
BRANCH   8   9
ATOM      9  C   LIG d   1      -1.437  77.690 117.482  0.00  0.00     0.028 C 
ATOM     10  C   LIG d   1      -2.806  77.732 118.181  0.00  0.00     0.006 C 
ENDBRANCH   8   9
BRANCH   8  11
ATOM     11  C   LIG d   1      -0.556  75.836 116.157  0.00  0.00     0.028 C 
ATOM     12  C   LIG d   1      -1.262  74.499 115.880  0.00  0.00     0.006 C 
ENDBRANCH   8  11
ENDBRANCH   7   8
ENDBRANCH   1   7
BRANCH   6  13
ATOM     13  N   LIG d   1      -0.596  79.956 112.864  0.00  0.00    -0.311 N 
ATOM     14  C   LIG d   1      -1.137  81.113 112.487  0.00  0.00     0.210 C 
ATOM     15  C   LIG d   1      -0.228  82.336 112.649  0.00  0.00     0.109 C 
ATOM     16  O   LIG d   1      -2.295  81.248 112.064  0.00  0.00    -0.276 OA
ATOM     17  H   LIG d   1       0.338  79.943 113.226  0.00  0.00     0.149 HD
ENDBRANCH   6  13
BRANCH   5  18
ATOM     18  N   LIG d   1      -1.642  78.720 110.274  0.00  0.00     0.381 N 
ATOM     19  H   LIG d   1      -0.873  79.357 110.334  0.00  0.00    -0.090 HD
ATOM     20  H   LIG d   1      -2.303  79.083 109.610  0.00  0.00    -0.090 HD
ATOM     21  H   LIG d   1      -1.319  77.826 109.976  0.00  0.00    -0.090 HD
ENDBRANCH   5  18
BRANCH   3  22
ATOM     22  C   LIG d   1      -4.768  76.219 112.903  0.00  0.00     0.382 C 
ATOM     23  O   LIG d   1      -4.799  75.159 113.574  0.00  0.00    -0.241 OA
ATOM     24  O   LIG d   1      -5.766  76.553 112.237  0.00  0.00    -0.241 OA
ENDBRANCH   3  22
TORSDOF 7
ENDMDL
MODEL 8
REMARK VINA RESULT:      -4.2      1.807      2.070
REMARK  7 active torsions:
REMARK  status: ('A' for Active; 'I' for Inactive)
REMARK    1  A    between atoms: C_2  and  C_3 
REMARK    2  A    between atoms: C_3  and  O_6 
REMARK    3  A    between atoms: C_3  and  C_4 
REMARK    4  A    between atoms: C_7  and  O_6 
REMARK    5  A    between atoms: C_9  and  C_10 
REMARK    6  A    between atoms: N_15  and  C_14 
REMARK    7  A    between atoms: N_20  and  C_19 
REMARK       I    between atoms: C_22  and  N_20 
ROOT
ATOM      1  C   LIG d   1      -3.548  76.833 116.063  0.00  0.00     0.161 C 
ATOM      2  C   LIG d   1      -3.274  76.640 117.427  0.00  0.00     0.016 C 
ATOM      3  C   LIG d   1      -2.023  76.929 118.018  0.00  0.00     0.038 C 
ATOM      4  C   LIG d   1      -1.000  77.576 117.309  0.00  0.00     0.028 C 
ATOM      5  C   LIG d   1      -1.054  77.328 115.806  0.00  0.00    -0.047 C 
ATOM      6  C   LIG d   1      -2.480  77.641 115.297  0.00  0.00     0.091 C 
ENDROOT
BRANCH   1   7
ATOM      7  O   LIG d   1      -4.845  77.440 115.905  0.00  0.00    -0.368 OA
BRANCH   7   8
ATOM      8  C   LIG d   1      -5.876  76.988 116.817  0.00  0.00     0.119 C 
BRANCH   8   9
ATOM      9  C   LIG d   1      -6.843  76.095 116.016  0.00  0.00     0.028 C 
ATOM     10  C   LIG d   1      -6.524  74.599 116.168  0.00  0.00     0.006 C 
ENDBRANCH   8   9
BRANCH   8  11
ATOM     11  C   LIG d   1      -6.726  78.157 117.322  0.00  0.00     0.028 C 
ATOM     12  C   LIG d   1      -6.168  78.789 118.607  0.00  0.00     0.006 C 
ENDBRANCH   8  11
ENDBRANCH   7   8
ENDBRANCH   1   7
BRANCH   6  13
ATOM     13  N   LIG d   1      -2.643  77.345 113.850  0.00  0.00    -0.311 N 
ATOM     14  C   LIG d   1      -2.489  78.258 112.892  0.00  0.00     0.210 C 
ATOM     15  C   LIG d   1      -2.723  77.746 111.467  0.00  0.00     0.109 C 
ATOM     16  O   LIG d   1      -2.149  79.435 113.086  0.00  0.00    -0.276 OA
ATOM     17  H   LIG d   1      -2.888  76.406 113.601  0.00  0.00     0.149 HD
ENDBRANCH   6  13
BRANCH   5  18
ATOM     18  N   LIG d   1      -0.018  78.170 115.177  0.00  0.00     0.381 N 
ATOM     19  H   LIG d   1      -0.295  79.131 115.212  0.00  0.00    -0.090 HD
ATOM     20  H   LIG d   1       0.076  77.904 114.213  0.00  0.00    -0.090 HD
ATOM     21  H   LIG d   1       0.851  78.050 115.649  0.00  0.00    -0.090 HD
ENDBRANCH   5  18
BRANCH   3  22
ATOM     22  C   LIG d   1      -1.771  76.533 119.323  0.00  0.00     0.382 C 
ATOM     23  O   LIG d   1      -2.580  75.779 119.916  0.00  0.00    -0.241 OA
ATOM     24  O   LIG d   1      -0.768  76.955 119.929  0.00  0.00    -0.241 OA
ENDBRANCH   3  22
TORSDOF 7
ENDMDL
MODEL 9
REMARK VINA RESULT:      -4.2      2.879      4.963
REMARK  7 active torsions:
REMARK  status: ('A' for Active; 'I' for Inactive)
REMARK    1  A    between atoms: C_2  and  C_3 
REMARK    2  A    between atoms: C_3  and  O_6 
REMARK    3  A    between atoms: C_3  and  C_4 
REMARK    4  A    between atoms: C_7  and  O_6 
REMARK    5  A    between atoms: C_9  and  C_10 
REMARK    6  A    between atoms: N_15  and  C_14 
REMARK    7  A    between atoms: N_20  and  C_19 
REMARK       I    between atoms: C_22  and  N_20 
ROOT
ATOM      1  C   LIG d   1      -3.087  77.282 117.010  0.00  0.00     0.161 C 
ATOM      2  C   LIG d   1      -3.855  77.754 118.087  0.00  0.00     0.016 C 
ATOM      3  C   LIG d   1      -5.266  77.670 118.134  0.00  0.00     0.038 C 
ATOM      4  C   LIG d   1      -5.999  76.967 117.166  0.00  0.00     0.028 C 
ATOM      5  C   LIG d   1      -5.311  76.914 115.806  0.00  0.00    -0.047 C 
ATOM      6  C   LIG d   1      -3.861  76.413 115.996  0.00  0.00     0.091 C 
ENDROOT
BRANCH   1   7
ATOM      7  O   LIG d   1      -1.936  76.570 117.505  0.00  0.00    -0.368 OA
BRANCH   7   8
ATOM      8  C   LIG d   1      -2.191  75.587 118.539  0.00  0.00     0.119 C 
BRANCH   8   9
ATOM      9  C   LIG d   1      -1.255  75.907 119.721  0.00  0.00     0.028 C 
ATOM     10  C   LIG d   1      -0.215  76.985 119.371  0.00  0.00     0.006 C 
ENDBRANCH   8   9
BRANCH   8  11
ATOM     11  C   LIG d   1      -1.799  74.180 118.079  0.00  0.00     0.028 C 
ATOM     12  C   LIG d   1      -1.029  74.180 116.749  0.00  0.00     0.006 C 
ENDBRANCH   8  11
ENDBRANCH   7   8
ENDBRANCH   1   7
BRANCH   6  13
ATOM     13  N   LIG d   1      -3.091  76.411 114.725  0.00  0.00    -0.311 N 
ATOM     14  C   LIG d   1      -2.868  77.506 114.001  0.00  0.00     0.210 C 
ATOM     15  C   LIG d   1      -2.068  77.280 112.714  0.00  0.00     0.109 C 
ATOM     16  O   LIG d   1      -3.230  78.649 114.318  0.00  0.00    -0.276 OA
ATOM     17  H   LIG d   1      -2.733  75.530 114.410  0.00  0.00     0.149 HD
ENDBRANCH   6  13
BRANCH   5  18
ATOM     18  N   LIG d   1      -6.116  76.038 114.933  0.00  0.00     0.381 N 
ATOM     19  H   LIG d   1      -6.993  75.838 115.370  0.00  0.00    -0.090 HD
ATOM     20  H   LIG d   1      -5.625  75.171 114.802  0.00  0.00    -0.090 HD
ATOM     21  H   LIG d   1      -6.267  76.479 114.053  0.00  0.00    -0.090 HD
ENDBRANCH   5  18
BRANCH   3  22
ATOM     22  C   LIG d   1      -5.961  78.328 119.137  0.00  0.00     0.382 C 
ATOM     23  O   LIG d   1      -5.447  79.320 119.709  0.00  0.00    -0.241 OA
ATOM     24  O   LIG d   1      -7.076  77.916 119.507  0.00  0.00    -0.241 OA
ENDBRANCH   3  22
TORSDOF 7
ENDMDL
