MODEL 1
REMARK VINA RESULT:      -4.9      0.000      0.000
REMARK  7 active torsions:
REMARK  status: ('A' for Active; 'I' for Inactive)
REMARK    1  A    between atoms: C_2  and  C_3 
REMARK    2  A    between atoms: C_3  and  O_6 
REMARK    3  A    between atoms: C_3  and  C_4 
REMARK    4  A    between atoms: C_7  and  O_6 
REMARK    5  A    between atoms: C_9  and  C_10 
REMARK    6  A    between atoms: N_15  and  C_14 
REMARK    7  A    between atoms: N_20  and  C_19 
REMARK       I    between atoms: C_22  and  N_20 
ROOT
ATOM      1  C   LIG d   1      -4.644  77.862 116.820  0.00  0.00     0.161 C 
ATOM      2  C   LIG d   1      -5.989  78.245 116.955  0.00  0.00     0.016 C 
ATOM      3  C   LIG d   1      -6.402  79.400 117.657  0.00  0.00     0.038 C 
ATOM      4  C   LIG d   1      -5.482  80.339 118.147  0.00  0.00     0.028 C 
ATOM      5  C   LIG d   1      -4.119  79.738 118.474  0.00  0.00    -0.047 C 
ATOM      6  C   LIG d   1      -3.620  78.932 117.252  0.00  0.00     0.091 C 
ENDROOT
BRANCH   1   7
ATOM      7  O   LIG d   1      -4.389  77.443 115.465  0.00  0.00    -0.368 OA
BRANCH   7   8
ATOM      8  C   LIG d   1      -4.130  76.030 115.272  0.00  0.00     0.119 C 
BRANCH   8   9
ATOM      9  C   LIG d   1      -5.436  75.386 114.768  0.00  0.00     0.028 C 
ATOM     10  C   LIG d   1      -6.155  74.582 115.864  0.00  0.00     0.006 C 
ENDBRANCH   8   9
BRANCH   8  11
ATOM     11  C   LIG d   1      -3.821  75.334 116.601  0.00  0.00     0.028 C 
ATOM     12  C   LIG d   1      -2.455  74.630 116.600  0.00  0.00     0.006 C 
ENDBRANCH   8  11
ENDBRANCH   7   8
ENDBRANCH   1   7
BRANCH   6  13
ATOM     13  N   LIG d   1      -2.331  78.241 117.517  0.00  0.00    -0.311 N 
ATOM     14  C   LIG d   1      -1.277  78.319 116.707  0.00  0.00     0.210 C 
ATOM     15  C   LIG d   1      -0.054  77.513 117.156  0.00  0.00     0.109 C 
ATOM     16  O   LIG d   1      -1.228  79.006 115.675  0.00  0.00    -0.276 OA
ATOM     17  H   LIG d   1      -2.273  77.687 118.349  0.00  0.00     0.149 HD
ENDBRANCH   6  13
BRANCH   5  18
ATOM     18  N   LIG d   1      -3.219  80.847 118.841  0.00  0.00     0.381 N 
ATOM     19  H   LIG d   1      -2.479  80.505 119.421  0.00  0.00    -0.090 HD
ATOM     20  H   LIG d   1      -3.740  81.529 119.365  0.00  0.00    -0.090 HD
ATOM     21  H   LIG d   1      -2.840  81.266 118.020  0.00  0.00    -0.090 HD
ENDBRANCH   5  18
BRANCH   3  22
ATOM     22  C   LIG d   1      -7.750  79.606 117.910  0.00  0.00     0.382 C 
ATOM     23  O   LIG d   1      -8.362  78.846 118.699  0.00  0.00    -0.241 OA
ATOM     24  O   LIG d   1      -8.371  80.513 117.326  0.00  0.00    -0.241 OA
ENDBRANCH   3  22
TORSDOF 7
ENDMDL
MODEL 2
REMARK VINA RESULT:      -4.9      3.267      5.234
REMARK  7 active torsions:
REMARK  status: ('A' for Active; 'I' for Inactive)
REMARK    1  A    between atoms: C_2  and  C_3 
REMARK    2  A    between atoms: C_3  and  O_6 
REMARK    3  A    between atoms: C_3  and  C_4 
REMARK    4  A    between atoms: C_7  and  O_6 
REMARK    5  A    between atoms: C_9  and  C_10 
REMARK    6  A    between atoms: N_15  and  C_14 
REMARK    7  A    between atoms: N_20  and  C_19 
REMARK       I    between atoms: C_22  and  N_20 
ROOT
ATOM      1  C   LIG d   1      -1.964  75.343 115.552  0.00  0.00     0.161 C 
ATOM      2  C   LIG d   1      -1.625  74.905 116.843  0.00  0.00     0.016 C 
ATOM      3  C   LIG d   1      -1.006  75.732 117.808  0.00  0.00     0.038 C 
ATOM      4  C   LIG d   1      -0.820  77.106 117.596  0.00  0.00     0.028 C 
ATOM      5  C   LIG d   1      -0.685  77.480 116.124  0.00  0.00    -0.047 C 
ATOM      6  C   LIG d   1      -1.870  76.868 115.341  0.00  0.00     0.091 C 
ENDROOT
BRANCH   1   7
ATOM      7  O   LIG d   1      -3.281  74.869 115.205  0.00  0.00    -0.368 OA
BRANCH   7   8
ATOM      8  C   LIG d   1      -4.374  75.785 115.459  0.00  0.00     0.119 C 
BRANCH   8   9
ATOM      9  C   LIG d   1      -5.033  75.363 116.787  0.00  0.00     0.028 C 
ATOM     10  C   LIG d   1      -4.897  76.440 117.877  0.00  0.00     0.006 C 
ENDBRANCH   8   9
BRANCH   8  11
ATOM     11  C   LIG d   1      -5.473  75.648 114.400  0.00  0.00     0.028 C 
ATOM     12  C   LIG d   1      -6.846  76.121 114.902  0.00  0.00     0.006 C 
ENDBRANCH   8  11
ENDBRANCH   7   8
ENDBRANCH   1   7
BRANCH   6  13
ATOM     13  N   LIG d   1      -1.770  77.115 113.879  0.00  0.00    -0.311 N 
ATOM     14  C   LIG d   1      -2.370  78.133 113.264  0.00  0.00     0.210 C 
ATOM     15  C   LIG d   1      -2.154  78.192 111.749  0.00  0.00     0.109 C 
ATOM     16  O   LIG d   1      -3.035  79.011 113.835  0.00  0.00    -0.276 OA
ATOM     17  H   LIG d   1      -1.225  76.468 113.343  0.00  0.00     0.149 HD
ENDBRANCH   6  13
BRANCH   5  18
ATOM     18  N   LIG d   1      -0.635  78.952 116.040  0.00  0.00     0.381 N 
ATOM     19  H   LIG d   1      -0.443  79.336 116.943  0.00  0.00    -0.090 HD
ATOM     20  H   LIG d   1      -1.531  79.291 115.737  0.00  0.00    -0.090 HD
ATOM     21  H   LIG d   1       0.070  79.233 115.394  0.00  0.00    -0.090 HD
ENDBRANCH   5  18
BRANCH   3  22
ATOM     22  C   LIG d   1      -0.530  75.177 118.986  0.00  0.00     0.382 C 
ATOM     23  O   LIG d   1      -1.105  74.180 119.486  0.00  0.00    -0.241 OA
ATOM     24  O   LIG d   1       0.440  75.687 119.578  0.00  0.00    -0.241 OA
ENDBRANCH   3  22
TORSDOF 7
ENDMDL
MODEL 3
REMARK VINA RESULT:      -4.6      2.705      4.953
REMARK  7 active torsions:
REMARK  status: ('A' for Active; 'I' for Inactive)
REMARK    1  A    between atoms: C_2  and  C_3 
REMARK    2  A    between atoms: C_3  and  O_6 
REMARK    3  A    between atoms: C_3  and  C_4 
REMARK    4  A    between atoms: C_7  and  O_6 
REMARK    5  A    between atoms: C_9  and  C_10 
REMARK    6  A    between atoms: N_15  and  C_14 
REMARK    7  A    between atoms: N_20  and  C_19 
REMARK       I    between atoms: C_22  and  N_20 
ROOT
ATOM      1  C   LIG d   1      -2.689  78.115 116.509  0.00  0.00     0.161 C 
ATOM      2  C   LIG d   1      -2.969  78.768 115.297  0.00  0.00     0.016 C 
ATOM      3  C   LIG d   1      -2.428  78.367 114.054  0.00  0.00     0.038 C 
ATOM      4  C   LIG d   1      -1.683  77.186 113.916  0.00  0.00     0.028 C 
ATOM      5  C   LIG d   1      -0.957  76.775 115.192  0.00  0.00    -0.047 C 
ATOM      6  C   LIG d   1      -1.968  76.759 116.361  0.00  0.00     0.091 C 
ENDROOT
BRANCH   1   7
ATOM      7  O   LIG d   1      -3.902  77.957 117.271  0.00  0.00    -0.368 OA
BRANCH   7   8
ATOM      8  C   LIG d   1      -5.121  77.798 116.504  0.00  0.00     0.119 C 
BRANCH   8   9
ATOM      9  C   LIG d   1      -6.245  78.526 117.266  0.00  0.00     0.028 C 
ATOM     10  C   LIG d   1      -5.896  79.993 117.567  0.00  0.00     0.006 C 
ENDBRANCH   8   9
BRANCH   8  11
ATOM     11  C   LIG d   1      -5.554  76.331 116.445  0.00  0.00     0.028 C 
ATOM     12  C   LIG d   1      -5.422  75.726 115.038  0.00  0.00     0.006 C 
ENDBRANCH   8  11
ENDBRANCH   7   8
ENDBRANCH   1   7
BRANCH   6  13
ATOM     13  N   LIG d   1      -1.323  76.449 117.664  0.00  0.00    -0.311 N 
ATOM     14  C   LIG d   1      -1.170  75.210 118.130  0.00  0.00     0.210 C 
ATOM     15  C   LIG d   1      -0.497  75.114 119.503  0.00  0.00     0.109 C 
ATOM     16  O   LIG d   1      -1.499  74.180 117.522  0.00  0.00    -0.276 OA
ATOM     17  H   LIG d   1      -0.998  77.224 118.208  0.00  0.00     0.149 HD
ENDBRANCH   6  13
BRANCH   5  18
ATOM     18  N   LIG d   1      -0.335  75.460 114.947  0.00  0.00     0.381 N 
ATOM     19  H   LIG d   1      -0.782  75.013 114.172  0.00  0.00    -0.090 HD
ATOM     20  H   LIG d   1      -0.463  74.884 115.760  0.00  0.00    -0.090 HD
ATOM     21  H   LIG d   1       0.637  75.572 114.760  0.00  0.00    -0.090 HD
ENDBRANCH   5  18
BRANCH   3  22
ATOM     22  C   LIG d   1      -2.597  79.174 112.939  0.00  0.00     0.382 C 
ATOM     23  O   LIG d   1      -2.061  78.858 111.849  0.00  0.00    -0.241 OA
ATOM     24  O   LIG d   1      -3.241  80.236 113.019  0.00  0.00    -0.241 OA
ENDBRANCH   3  22
TORSDOF 7
ENDMDL
MODEL 4
REMARK VINA RESULT:      -4.5      2.018      5.142
REMARK  7 active torsions:
REMARK  status: ('A' for Active; 'I' for Inactive)
REMARK    1  A    between atoms: C_2  and  C_3 
REMARK    2  A    between atoms: C_3  and  O_6 
REMARK    3  A    between atoms: C_3  and  C_4 
REMARK    4  A    between atoms: C_7  and  O_6 
REMARK    5  A    between atoms: C_9  and  C_10 
REMARK    6  A    between atoms: N_15  and  C_14 
REMARK    7  A    between atoms: N_20  and  C_19 
REMARK       I    between atoms: C_22  and  N_20 
ROOT
ATOM      1  C   LIG d   1      -5.502  77.769 117.451  0.00  0.00     0.161 C 
ATOM      2  C   LIG d   1      -5.889  77.124 116.265  0.00  0.00     0.016 C 
ATOM      3  C   LIG d   1      -5.265  75.953 115.776  0.00  0.00     0.038 C 
ATOM      4  C   LIG d   1      -4.304  75.258 116.525  0.00  0.00     0.028 C 
ATOM      5  C   LIG d   1      -3.527  76.148 117.489  0.00  0.00    -0.047 C 
ATOM      6  C   LIG d   1      -4.530  76.963 118.338  0.00  0.00     0.091 C 
ENDROOT
BRANCH   1   7
ATOM      7  O   LIG d   1      -6.671  78.148 118.205  0.00  0.00    -0.368 OA
BRANCH   7   8
ATOM      8  C   LIG d   1      -7.391  79.309 117.724  0.00  0.00     0.119 C 
BRANCH   8   9
ATOM      9  C   LIG d   1      -6.390  80.479 117.654  0.00  0.00     0.028 C 
ATOM     10  C   LIG d   1      -6.090  81.077 119.039  0.00  0.00     0.006 C 
ENDBRANCH   8   9
BRANCH   8  11
ATOM     11  C   LIG d   1      -8.464  79.752 118.722  0.00  0.00     0.028 C 
ATOM     12  C   LIG d   1      -9.637  80.485 118.051  0.00  0.00     0.006 C 
ENDBRANCH   8  11
ENDBRANCH   7   8
ENDBRANCH   1   7
BRANCH   6  13
ATOM     13  N   LIG d   1      -3.853  77.922 119.249  0.00  0.00    -0.311 N 
ATOM     14  C   LIG d   1      -3.080  78.919 118.822  0.00  0.00     0.210 C 
ATOM     15  C   LIG d   1      -2.462  79.778 119.929  0.00  0.00     0.109 C 
ATOM     16  O   LIG d   1      -2.874  79.193 117.630  0.00  0.00    -0.276 OA
ATOM     17  H   LIG d   1      -3.991  77.792 120.232  0.00  0.00     0.149 HD
ENDBRANCH   6  13
BRANCH   5  18
ATOM     18  N   LIG d   1      -2.659  75.275 118.301  0.00  0.00     0.381 N 
ATOM     19  H   LIG d   1      -2.653  75.590 119.250  0.00  0.00    -0.090 HD
ATOM     20  H   LIG d   1      -1.721  75.328 117.945  0.00  0.00    -0.090 HD
ATOM     21  H   LIG d   1      -2.985  74.334 118.258  0.00  0.00    -0.090 HD
ENDBRANCH   5  18
BRANCH   3  22
ATOM     22  C   LIG d   1      -5.574  75.489 114.507  0.00  0.00     0.382 C 
ATOM     23  O   LIG d   1      -6.314  76.166 113.754  0.00  0.00    -0.241 OA
ATOM     24  O   LIG d   1      -5.157  74.380 114.121  0.00  0.00    -0.241 OA
ENDBRANCH   3  22
TORSDOF 7
ENDMDL
MODEL 5
REMARK VINA RESULT:      -4.5      3.126      5.994
REMARK  7 active torsions:
REMARK  status: ('A' for Active; 'I' for Inactive)
REMARK    1  A    between atoms: C_2  and  C_3 
REMARK    2  A    between atoms: C_3  and  O_6 
REMARK    3  A    between atoms: C_3  and  C_4 
REMARK    4  A    between atoms: C_7  and  O_6 
REMARK    5  A    between atoms: C_9  and  C_10 
REMARK    6  A    between atoms: N_15  and  C_14 
REMARK    7  A    between atoms: N_20  and  C_19 
REMARK       I    between atoms: C_22  and  N_20 
ROOT
ATOM      1  C   LIG d   1      -2.622  78.520 115.440  0.00  0.00     0.161 C 
ATOM      2  C   LIG d   1      -1.799  77.465 115.013  0.00  0.00     0.016 C 
ATOM      3  C   LIG d   1      -1.967  76.127 115.437  0.00  0.00     0.038 C 
ATOM      4  C   LIG d   1      -3.069  75.725 116.206  0.00  0.00     0.028 C 
ATOM      5  C   LIG d   1      -3.641  76.841 117.074  0.00  0.00    -0.047 C 
ATOM      6  C   LIG d   1      -3.897  78.083 116.191  0.00  0.00     0.091 C 
ENDROOT
BRANCH   1   7
ATOM      7  O   LIG d   1      -2.963  79.359 114.319  0.00  0.00    -0.368 OA
BRANCH   7   8
ATOM      8  C   LIG d   1      -2.237  79.107 113.091  0.00  0.00     0.119 C 
BRANCH   8   9
ATOM      9  C   LIG d   1      -1.963  80.471 112.427  0.00  0.00     0.028 C 
ATOM     10  C   LIG d   1      -0.500  80.622 111.978  0.00  0.00     0.006 C 
ENDBRANCH   8   9
BRANCH   8  11
ATOM     11  C   LIG d   1      -3.093  78.332 112.085  0.00  0.00     0.028 C 
ATOM     12  C   LIG d   1      -2.258  77.662 110.983  0.00  0.00     0.006 C 
ENDBRANCH   8  11
ENDBRANCH   7   8
ENDBRANCH   1   7
BRANCH   6  13
ATOM     13  N   LIG d   1      -4.378  79.249 116.977  0.00  0.00    -0.311 N 
ATOM     14  C   LIG d   1      -5.666  79.495 117.210  0.00  0.00     0.210 C 
ATOM     15  C   LIG d   1      -5.945  80.761 118.026  0.00  0.00     0.109 C 
ATOM     16  O   LIG d   1      -6.602  78.769 116.845  0.00  0.00    -0.276 OA
ATOM     17  H   LIG d   1      -3.684  79.873 117.338  0.00  0.00     0.149 HD
ENDBRANCH   6  13
BRANCH   5  18
ATOM     18  N   LIG d   1      -4.865  76.324 117.715  0.00  0.00     0.381 N 
ATOM     19  H   LIG d   1      -5.423  75.841 117.040  0.00  0.00    -0.090 HD
ATOM     20  H   LIG d   1      -5.399  77.099 118.068  0.00  0.00    -0.090 HD
ATOM     21  H   LIG d   1      -4.626  75.709 118.461  0.00  0.00    -0.090 HD
ENDBRANCH   5  18
BRANCH   3  22
ATOM     22  C   LIG d   1      -1.002  75.181 115.126  0.00  0.00     0.382 C 
ATOM     23  O   LIG d   1      -0.841  74.181 115.866  0.00  0.00    -0.241 OA
ATOM     24  O   LIG d   1      -0.260  75.337 114.137  0.00  0.00    -0.241 OA
ENDBRANCH   3  22
TORSDOF 7
ENDMDL
MODEL 6
REMARK VINA RESULT:      -4.5      2.686      4.662
REMARK  7 active torsions:
REMARK  status: ('A' for Active; 'I' for Inactive)
REMARK    1  A    between atoms: C_2  and  C_3 
REMARK    2  A    between atoms: C_3  and  O_6 
REMARK    3  A    between atoms: C_3  and  C_4 
REMARK    4  A    between atoms: C_7  and  O_6 
REMARK    5  A    between atoms: C_9  and  C_10 
REMARK    6  A    between atoms: N_15  and  C_14 
REMARK    7  A    between atoms: N_20  and  C_19 
REMARK       I    between atoms: C_22  and  N_20 
ROOT
ATOM      1  C   LIG d   1      -3.328  77.014 115.428  0.00  0.00     0.161 C 
ATOM      2  C   LIG d   1      -3.121  76.218 116.567  0.00  0.00     0.016 C 
ATOM      3  C   LIG d   1      -2.053  76.417 117.472  0.00  0.00     0.038 C 
ATOM      4  C   LIG d   1      -1.202  77.528 117.381  0.00  0.00     0.028 C 
ATOM      5  C   LIG d   1      -1.064  78.071 115.963  0.00  0.00    -0.047 C 
ATOM      6  C   LIG d   1      -2.475  78.299 115.374  0.00  0.00     0.091 C 
ENDROOT
BRANCH   1   7
ATOM      7  O   LIG d   1      -4.727  77.336 115.305  0.00  0.00    -0.368 OA
BRANCH   7   8
ATOM      8  C   LIG d   1      -5.583  76.884 116.384  0.00  0.00     0.119 C 
BRANCH   8   9
ATOM      9  C   LIG d   1      -6.615  75.912 115.779  0.00  0.00     0.028 C 
ATOM     10  C   LIG d   1      -6.404  74.464 116.253  0.00  0.00     0.006 C 
ENDBRANCH   8   9
BRANCH   8  11
ATOM     11  C   LIG d   1      -6.405  78.038 116.964  0.00  0.00     0.028 C 
ATOM     12  C   LIG d   1      -5.541  79.249 117.351  0.00  0.00     0.006 C 
ENDBRANCH   8  11
ENDBRANCH   7   8
ENDBRANCH   1   7
BRANCH   6  13
ATOM     13  N   LIG d   1      -2.432  78.750 113.958  0.00  0.00    -0.311 N 
ATOM     14  C   LIG d   1      -2.151  77.941 112.939  0.00  0.00     0.210 C 
ATOM     15  C   LIG d   1      -2.139  78.614 111.563  0.00  0.00     0.109 C 
ATOM     16  O   LIG d   1      -1.941  76.723 113.040  0.00  0.00    -0.276 OA
ATOM     17  H   LIG d   1      -2.620  79.718 113.783  0.00  0.00     0.149 HD
ENDBRANCH   6  13
BRANCH   5  18
ATOM     18  N   LIG d   1      -0.262  79.307 116.035  0.00  0.00     0.381 N 
ATOM     19  H   LIG d   1       0.171  79.482 115.151  0.00  0.00    -0.090 HD
ATOM     20  H   LIG d   1       0.462  79.185 116.722  0.00  0.00    -0.090 HD
ATOM     21  H   LIG d   1      -0.842  80.076 116.288  0.00  0.00    -0.090 HD
ENDBRANCH   5  18
BRANCH   3  22
ATOM     22  C   LIG d   1      -1.805  75.475 118.459  0.00  0.00     0.382 C 
ATOM     23  O   LIG d   1      -1.447  74.315 118.143  0.00  0.00    -0.241 OA
ATOM     24  O   LIG d   1      -1.977  75.758 119.660  0.00  0.00    -0.241 OA
ENDBRANCH   3  22
TORSDOF 7
ENDMDL
MODEL 7
REMARK VINA RESULT:      -4.5      2.735      5.373
REMARK  7 active torsions:
REMARK  status: ('A' for Active; 'I' for Inactive)
REMARK    1  A    between atoms: C_2  and  C_3 
REMARK    2  A    between atoms: C_3  and  O_6 
REMARK    3  A    between atoms: C_3  and  C_4 
REMARK    4  A    between atoms: C_7  and  O_6 
REMARK    5  A    between atoms: C_9  and  C_10 
REMARK    6  A    between atoms: N_15  and  C_14 
REMARK    7  A    between atoms: N_20  and  C_19 
REMARK       I    between atoms: C_22  and  N_20 
ROOT
ATOM      1  C   LIG d   1      -3.146  78.464 115.815  0.00  0.00     0.161 C 
ATOM      2  C   LIG d   1      -3.209  79.295 114.684  0.00  0.00     0.016 C 
ATOM      3  C   LIG d   1      -2.507  79.034 113.486  0.00  0.00     0.038 C 
ATOM      4  C   LIG d   1      -1.807  77.835 113.283  0.00  0.00     0.028 C 
ATOM      5  C   LIG d   1      -1.301  77.203 114.575  0.00  0.00    -0.047 C 
ATOM      6  C   LIG d   1      -2.476  77.095 115.574  0.00  0.00     0.091 C 
ENDROOT
BRANCH   1   7
ATOM      7  O   LIG d   1      -4.466  78.286 116.366  0.00  0.00    -0.368 OA
BRANCH   7   8
ATOM      8  C   LIG d   1      -4.710  78.911 117.650  0.00  0.00     0.119 C 
BRANCH   8   9
ATOM      9  C   LIG d   1      -5.742  80.034 117.429  0.00  0.00     0.028 C 
ATOM     10  C   LIG d   1      -7.177  79.585 117.754  0.00  0.00     0.006 C 
ENDBRANCH   8   9
BRANCH   8  11
ATOM     11  C   LIG d   1      -3.454  79.611 118.177  0.00  0.00     0.028 C 
ATOM     12  C   LIG d   1      -3.776  80.837 119.047  0.00  0.00     0.006 C 
ENDBRANCH   8  11
ENDBRANCH   7   8
ENDBRANCH   1   7
BRANCH   6  13
ATOM     13  N   LIG d   1      -2.049  76.564 116.895  0.00  0.00    -0.311 N 
ATOM     14  C   LIG d   1      -2.121  75.276 117.226  0.00  0.00     0.210 C 
ATOM     15  C   LIG d   1      -1.648  74.945 118.645  0.00  0.00     0.109 C 
ATOM     16  O   LIG d   1      -2.500  74.371 116.467  0.00  0.00    -0.276 OA
ATOM     17  H   LIG d   1      -1.699  77.225 117.561  0.00  0.00     0.149 HD
ENDBRANCH   6  13
BRANCH   5  18
ATOM     18  N   LIG d   1      -0.712  75.895 114.231  0.00  0.00     0.381 N 
ATOM     19  H   LIG d   1      -0.231  75.960 113.357  0.00  0.00    -0.090 HD
ATOM     20  H   LIG d   1      -1.451  75.221 114.135  0.00  0.00    -0.090 HD
ATOM     21  H   LIG d   1      -0.081  75.607 114.946  0.00  0.00    -0.090 HD
ENDBRANCH   5  18
BRANCH   3  22
ATOM     22  C   LIG d   1      -2.467  79.996 112.488  0.00  0.00     0.382 C 
ATOM     23  O   LIG d   1      -1.555  79.970 111.628  0.00  0.00    -0.241 OA
ATOM     24  O   LIG d   1      -3.307  80.916 112.464  0.00  0.00    -0.241 OA
ENDBRANCH   3  22
TORSDOF 7
ENDMDL
MODEL 8
REMARK VINA RESULT:      -4.3      2.020      5.101
REMARK  7 active torsions:
REMARK  status: ('A' for Active; 'I' for Inactive)
REMARK    1  A    between atoms: C_2  and  C_3 
REMARK    2  A    between atoms: C_3  and  O_6 
REMARK    3  A    between atoms: C_3  and  C_4 
REMARK    4  A    between atoms: C_7  and  O_6 
REMARK    5  A    between atoms: C_9  and  C_10 
REMARK    6  A    between atoms: N_15  and  C_14 
REMARK    7  A    between atoms: N_20  and  C_19 
REMARK       I    between atoms: C_22  and  N_20 
ROOT
ATOM      1  C   LIG d   1      -3.720  77.524 117.323  0.00  0.00     0.161 C 
ATOM      2  C   LIG d   1      -4.436  77.044 116.213  0.00  0.00     0.016 C 
ATOM      3  C   LIG d   1      -4.331  75.718 115.734  0.00  0.00     0.038 C 
ATOM      4  C   LIG d   1      -3.613  74.733 116.429  0.00  0.00     0.028 C 
ATOM      5  C   LIG d   1      -2.471  75.296 117.269  0.00  0.00    -0.047 C 
ATOM      6  C   LIG d   1      -3.017  76.435 118.159  0.00  0.00     0.091 C 
ENDROOT
BRANCH   1   7
ATOM      7  O   LIG d   1      -4.587  78.316 118.158  0.00  0.00    -0.368 OA
BRANCH   7   8
ATOM      8  C   LIG d   1      -4.418  79.752 118.073  0.00  0.00     0.119 C 
BRANCH   8   9
ATOM      9  C   LIG d   1      -3.730  80.215 119.372  0.00  0.00     0.028 C 
ATOM     10  C   LIG d   1      -2.691  81.322 119.123  0.00  0.00     0.006 C 
ENDBRANCH   8   9
BRANCH   8  11
ATOM     11  C   LIG d   1      -5.769  80.473 118.051  0.00  0.00     0.028 C 
ATOM     12  C   LIG d   1      -6.931  79.548 117.658  0.00  0.00     0.006 C 
ENDBRANCH   8  11
ENDBRANCH   7   8
ENDBRANCH   1   7
BRANCH   6  13
ATOM     13  N   LIG d   1      -1.948  77.097 118.952  0.00  0.00    -0.311 N 
ATOM     14  C   LIG d   1      -0.975  77.825 118.407  0.00  0.00     0.210 C 
ATOM     15  C   LIG d   1       0.037  78.402 119.402  0.00  0.00     0.109 C 
ATOM     16  O   LIG d   1      -0.872  78.074 117.196  0.00  0.00    -0.276 OA
ATOM     17  H   LIG d   1      -1.973  76.973 119.945  0.00  0.00     0.149 HD
ENDBRANCH   6  13
BRANCH   5  18
ATOM     18  N   LIG d   1      -1.896  74.180 118.044  0.00  0.00     0.381 N 
ATOM     19  H   LIG d   1      -1.587  73.460 117.423  0.00  0.00    -0.090 HD
ATOM     20  H   LIG d   1      -2.609  73.798 118.640  0.00  0.00    -0.090 HD
ATOM     21  H   LIG d   1      -1.132  74.506 118.594  0.00  0.00    -0.090 HD
ENDBRANCH   5  18
BRANCH   3  22
ATOM     22  C   LIG d   1      -4.918  75.376 114.526  0.00  0.00     0.382 C 
ATOM     23  O   LIG d   1      -5.306  76.274 113.740  0.00  0.00    -0.241 OA
ATOM     24  O   LIG d   1      -5.104  74.180 114.230  0.00  0.00    -0.241 OA
ENDBRANCH   3  22
TORSDOF 7
ENDMDL
MODEL 9
REMARK VINA RESULT:      -4.2      1.657      4.703
REMARK  7 active torsions:
REMARK  status: ('A' for Active; 'I' for Inactive)
REMARK    1  A    between atoms: C_2  and  C_3 
REMARK    2  A    between atoms: C_3  and  O_6 
REMARK    3  A    between atoms: C_3  and  C_4 
REMARK    4  A    between atoms: C_7  and  O_6 
REMARK    5  A    between atoms: C_9  and  C_10 
REMARK    6  A    between atoms: N_15  and  C_14 
REMARK    7  A    between atoms: N_20  and  C_19 
REMARK       I    between atoms: C_22  and  N_20 
ROOT
ATOM      1  C   LIG d   1      -4.163  78.860 116.416  0.00  0.00     0.161 C 
ATOM      2  C   LIG d   1      -2.762  78.755 116.401  0.00  0.00     0.016 C 
ATOM      3  C   LIG d   1      -1.938  79.184 117.467  0.00  0.00     0.038 C 
ATOM      4  C   LIG d   1      -2.473  79.612 118.691  0.00  0.00     0.028 C 
ATOM      5  C   LIG d   1      -3.871  80.208 118.566  0.00  0.00    -0.047 C 
ATOM      6  C   LIG d   1      -4.770  79.221 117.787  0.00  0.00     0.091 C 
ENDROOT
BRANCH   1   7
ATOM      7  O   LIG d   1      -4.749  77.643 115.913  0.00  0.00    -0.368 OA
BRANCH   7   8
ATOM      8  C   LIG d   1      -3.916  76.459 115.981  0.00  0.00     0.119 C 
BRANCH   8   9
ATOM      9  C   LIG d   1      -4.427  75.472 114.913  0.00  0.00     0.028 C 
ATOM     10  C   LIG d   1      -5.867  75.781 114.469  0.00  0.00     0.006 C 
ENDBRANCH   8   9
BRANCH   8  11
ATOM     11  C   LIG d   1      -4.087  75.733 117.319  0.00  0.00     0.028 C 
ATOM     12  C   LIG d   1      -2.753  75.499 118.044  0.00  0.00     0.006 C 
ENDBRANCH   8  11
ENDBRANCH   7   8
ENDBRANCH   1   7
BRANCH   6  13
ATOM     13  N   LIG d   1      -6.133  79.764 117.547  0.00  0.00    -0.311 N 
ATOM     14  C   LIG d   1      -7.192  79.438 118.285  0.00  0.00     0.210 C 
ATOM     15  C   LIG d   1      -8.507  80.095 117.855  0.00  0.00     0.109 C 
ATOM     16  O   LIG d   1      -7.162  78.691 119.275  0.00  0.00    -0.276 OA
ATOM     17  H   LIG d   1      -6.242  80.401 116.783  0.00  0.00     0.149 HD
ENDBRANCH   6  13
BRANCH   5  18
ATOM     18  N   LIG d   1      -4.362  80.484 119.930  0.00  0.00     0.381 N 
ATOM     19  H   LIG d   1      -4.120  79.726 120.537  0.00  0.00    -0.090 HD
ATOM     20  H   LIG d   1      -5.363  80.563 119.906  0.00  0.00    -0.090 HD
ATOM     21  H   LIG d   1      -3.963  81.332 120.271  0.00  0.00    -0.090 HD
ENDBRANCH   5  18
BRANCH   3  22
ATOM     22  C   LIG d   1      -0.563  79.226 117.299  0.00  0.00     0.382 C 
ATOM     23  O   LIG d   1       0.039  80.327 117.319  0.00  0.00    -0.241 OA
ATOM     24  O   LIG d   1       0.079  78.180 117.084  0.00  0.00    -0.241 OA
ENDBRANCH   3  22
TORSDOF 7
ENDMDL
