MODEL 1
REMARK VINA RESULT:      -5.0      0.000      0.000
REMARK  7 active torsions:
REMARK  status: ('A' for Active; 'I' for Inactive)
REMARK    1  A    between atoms: C_2  and  C_3 
REMARK    2  A    between atoms: C_3  and  O_6 
REMARK    3  A    between atoms: C_3  and  C_4 
REMARK    4  A    between atoms: C_7  and  O_6 
REMARK    5  A    between atoms: C_9  and  C_10 
REMARK    6  A    between atoms: N_15  and  C_14 
REMARK    7  A    between atoms: N_20  and  C_19 
REMARK       I    between atoms: C_22  and  N_20 
ROOT
ATOM      1  C   LIG d   1      -3.003  77.779 116.435  0.00  0.00     0.161 C 
ATOM      2  C   LIG d   1      -3.389  78.159 115.139  0.00  0.00     0.016 C 
ATOM      3  C   LIG d   1      -2.583  77.954 113.996  0.00  0.00     0.038 C 
ATOM      4  C   LIG d   1      -1.393  77.212 114.051  0.00  0.00     0.028 C 
ATOM      5  C   LIG d   1      -0.720  77.248 115.419  0.00  0.00    -0.047 C 
ATOM      6  C   LIG d   1      -1.759  76.869 116.499  0.00  0.00     0.091 C 
ENDROOT
BRANCH   1   7
ATOM      7  O   LIG d   1      -4.114  77.157 117.112  0.00  0.00    -0.368 OA
BRANCH   7   8
ATOM      8  C   LIG d   1      -5.277  76.871 116.298  0.00  0.00     0.119 C 
BRANCH   8   9
ATOM      9  C   LIG d   1      -6.517  77.356 117.075  0.00  0.00     0.028 C 
ATOM     10  C   LIG d   1      -7.651  76.317 117.076  0.00  0.00     0.006 C 
ENDBRANCH   8   9
BRANCH   8  11
ATOM     11  C   LIG d   1      -5.475  75.363 116.119  0.00  0.00     0.028 C 
ATOM     12  C   LIG d   1      -5.204  74.893 114.681  0.00  0.00     0.006 C 
ENDBRANCH   8  11
ENDBRANCH   7   8
ENDBRANCH   1   7
BRANCH   6  13
ATOM     13  N   LIG d   1      -1.205  76.961 117.875  0.00  0.00    -0.311 N 
ATOM     14  C   LIG d   1      -0.647  75.932 118.511  0.00  0.00     0.210 C 
ATOM     15  C   LIG d   1      -0.157  76.237 119.930  0.00  0.00     0.109 C 
ATOM     16  O   LIG d   1      -0.482  74.804 118.022  0.00  0.00    -0.276 OA
ATOM     17  H   LIG d   1      -1.269  77.848 118.334  0.00  0.00     0.149 HD
ENDBRANCH   6  13
BRANCH   5  18
ATOM     18  N   LIG d   1       0.430  76.325 115.373  0.00  0.00     0.381 N 
ATOM     19  H   LIG d   1       0.929  76.363 116.240  0.00  0.00    -0.090 HD
ATOM     20  H   LIG d   1       1.051  76.615 114.639  0.00  0.00    -0.090 HD
ATOM     21  H   LIG d   1       0.115  75.395 115.204  0.00  0.00    -0.090 HD
ENDBRANCH   5  18
BRANCH   3  22
ATOM     22  C   LIG d   1      -2.945  78.528 112.787  0.00  0.00     0.382 C 
ATOM     23  O   LIG d   1      -2.958  79.777 112.665  0.00  0.00    -0.241 OA
ATOM     24  O   LIG d   1      -3.303  77.815 111.831  0.00  0.00    -0.241 OA
ENDBRANCH   3  22
TORSDOF 7
ENDMDL
MODEL 2
REMARK VINA RESULT:      -4.8      3.863      5.410
REMARK  7 active torsions:
REMARK  status: ('A' for Active; 'I' for Inactive)
REMARK    1  A    between atoms: C_2  and  C_3 
REMARK    2  A    between atoms: C_3  and  O_6 
REMARK    3  A    between atoms: C_3  and  C_4 
REMARK    4  A    between atoms: C_7  and  O_6 
REMARK    5  A    between atoms: C_9  and  C_10 
REMARK    6  A    between atoms: N_15  and  C_14 
REMARK    7  A    between atoms: N_20  and  C_19 
REMARK       I    between atoms: C_22  and  N_20 
ROOT
ATOM      1  C   LIG d   1      -2.140  81.195 114.774  0.00  0.00     0.161 C 
ATOM      2  C   LIG d   1      -1.721  82.435 114.264  0.00  0.00     0.016 C 
ATOM      3  C   LIG d   1      -1.146  82.595 112.982  0.00  0.00     0.038 C 
ATOM      4  C   LIG d   1      -1.092  81.541 112.057  0.00  0.00     0.028 C 
ATOM      5  C   LIG d   1      -1.041  80.164 112.710  0.00  0.00    -0.047 C 
ATOM      6  C   LIG d   1      -2.191  80.053 113.737  0.00  0.00     0.091 C 
ENDROOT
BRANCH   1   7
ATOM      7  O   LIG d   1      -3.420  81.340 115.421  0.00  0.00    -0.368 OA
BRANCH   7   8
ATOM      8  C   LIG d   1      -3.434  81.141 116.856  0.00  0.00     0.119 C 
BRANCH   8   9
ATOM      9  C   LIG d   1      -4.784  80.493 117.220  0.00  0.00     0.028 C 
ATOM     10  C   LIG d   1      -4.799  78.979 116.952  0.00  0.00     0.006 C 
ENDBRANCH   8   9
BRANCH   8  11
ATOM     11  C   LIG d   1      -3.412  82.477 117.605  0.00  0.00     0.028 C 
ATOM     12  C   LIG d   1      -2.011  82.850 118.117  0.00  0.00     0.006 C 
ENDBRANCH   8  11
ENDBRANCH   7   8
ENDBRANCH   1   7
BRANCH   6  13
ATOM     13  N   LIG d   1      -2.163  78.767 114.482  0.00  0.00    -0.311 N 
ATOM     14  C   LIG d   1      -2.805  77.672 114.080  0.00  0.00     0.210 C 
ATOM     15  C   LIG d   1      -2.661  76.460 115.005  0.00  0.00     0.109 C 
ATOM     16  O   LIG d   1      -3.455  77.580 113.027  0.00  0.00    -0.276 OA
ATOM     17  H   LIG d   1      -1.634  78.744 115.332  0.00  0.00     0.149 HD
ENDBRANCH   6  13
BRANCH   5  18
ATOM     18  N   LIG d   1      -1.126  79.158 111.635  0.00  0.00     0.381 N 
ATOM     19  H   LIG d   1      -0.229  78.739 111.492  0.00  0.00    -0.090 HD
ATOM     20  H   LIG d   1      -1.400  79.615 110.783  0.00  0.00    -0.090 HD
ATOM     21  H   LIG d   1      -1.793  78.458 111.875  0.00  0.00    -0.090 HD
ENDBRANCH   5  18
BRANCH   3  22
ATOM     22  C   LIG d   1      -0.583  83.811 112.629  0.00  0.00     0.382 C 
ATOM     23  O   LIG d   1       0.276  84.344 113.372  0.00  0.00    -0.241 OA
ATOM     24  O   LIG d   1      -0.954  84.404 111.598  0.00  0.00    -0.241 OA
ENDBRANCH   3  22
TORSDOF 7
ENDMDL
MODEL 3
REMARK VINA RESULT:      -4.7      1.895      4.942
REMARK  7 active torsions:
REMARK  status: ('A' for Active; 'I' for Inactive)
REMARK    1  A    between atoms: C_2  and  C_3 
REMARK    2  A    between atoms: C_3  and  O_6 
REMARK    3  A    between atoms: C_3  and  C_4 
REMARK    4  A    between atoms: C_7  and  O_6 
REMARK    5  A    between atoms: C_9  and  C_10 
REMARK    6  A    between atoms: N_15  and  C_14 
REMARK    7  A    between atoms: N_20  and  C_19 
REMARK       I    between atoms: C_22  and  N_20 
ROOT
ATOM      1  C   LIG d   1      -1.849  76.516 115.025  0.00  0.00     0.161 C 
ATOM      2  C   LIG d   1      -1.762  75.729 116.186  0.00  0.00     0.016 C 
ATOM      3  C   LIG d   1      -1.069  76.134 117.350  0.00  0.00     0.038 C 
ATOM      4  C   LIG d   1      -0.539  77.426 117.486  0.00  0.00     0.028 C 
ATOM      5  C   LIG d   1      -0.166  78.071 116.155  0.00  0.00    -0.047 C 
ATOM      6  C   LIG d   1      -1.372  77.973 115.194  0.00  0.00     0.091 C 
ENDROOT
BRANCH   1   7
ATOM      7  O   LIG d   1      -3.196  76.485 114.514  0.00  0.00    -0.368 OA
BRANCH   7   8
ATOM      8  C   LIG d   1      -4.220  76.049 115.442  0.00  0.00     0.119 C 
BRANCH   8   9
ATOM      9  C   LIG d   1      -5.050  74.959 114.736  0.00  0.00     0.028 C 
ATOM     10  C   LIG d   1      -5.778  75.489 113.490  0.00  0.00     0.006 C 
ENDBRANCH   8   9
BRANCH   8  11
ATOM     11  C   LIG d   1      -5.210  77.176 115.749  0.00  0.00     0.028 C 
ATOM     12  C   LIG d   1      -4.650  78.207 116.742  0.00  0.00     0.006 C 
ENDBRANCH   8  11
ENDBRANCH   7   8
ENDBRANCH   1   7
BRANCH   6  13
ATOM     13  N   LIG d   1      -1.064  78.505 113.841  0.00  0.00    -0.311 N 
ATOM     14  C   LIG d   1      -1.896  79.283 113.151  0.00  0.00     0.210 C 
ATOM     15  C   LIG d   1      -1.391  79.705 111.768  0.00  0.00     0.109 C 
ATOM     16  O   LIG d   1      -2.991  79.690 113.567  0.00  0.00    -0.276 OA
ATOM     17  H   LIG d   1      -0.182  78.250 113.440  0.00  0.00     0.149 HD
ENDBRANCH   6  13
BRANCH   5  18
ATOM     18  N   LIG d   1       0.242  79.461 116.432  0.00  0.00     0.381 N 
ATOM     19  H   LIG d   1       1.191  79.479 116.750  0.00  0.00    -0.090 HD
ATOM     20  H   LIG d   1      -0.342  79.832 117.161  0.00  0.00    -0.090 HD
ATOM     21  H   LIG d   1       0.150  80.014 115.609  0.00  0.00    -0.090 HD
ENDBRANCH   5  18
BRANCH   3  22
ATOM     22  C   LIG d   1      -0.865  75.227 118.379  0.00  0.00     0.382 C 
ATOM     23  O   LIG d   1       0.231  75.206 118.988  0.00  0.00    -0.241 OA
ATOM     24  O   LIG d   1      -1.748  74.400 118.676  0.00  0.00    -0.241 OA
ENDBRANCH   3  22
TORSDOF 7
ENDMDL
MODEL 4
REMARK VINA RESULT:      -4.7      4.049      5.836
REMARK  7 active torsions:
REMARK  status: ('A' for Active; 'I' for Inactive)
REMARK    1  A    between atoms: C_2  and  C_3 
REMARK    2  A    between atoms: C_3  and  O_6 
REMARK    3  A    between atoms: C_3  and  C_4 
REMARK    4  A    between atoms: C_7  and  O_6 
REMARK    5  A    between atoms: C_9  and  C_10 
REMARK    6  A    between atoms: N_15  and  C_14 
REMARK    7  A    between atoms: N_20  and  C_19 
REMARK       I    between atoms: C_22  and  N_20 
ROOT
ATOM      1  C   LIG d   1      -2.034  81.580 114.366  0.00  0.00     0.161 C 
ATOM      2  C   LIG d   1      -1.583  82.795 113.824  0.00  0.00     0.016 C 
ATOM      3  C   LIG d   1      -0.998  82.905 112.542  0.00  0.00     0.038 C 
ATOM      4  C   LIG d   1      -0.961  81.825 111.648  0.00  0.00     0.028 C 
ATOM      5  C   LIG d   1      -0.945  80.466 112.341  0.00  0.00    -0.047 C 
ATOM      6  C   LIG d   1      -2.104  80.410 113.362  0.00  0.00     0.091 C 
ENDROOT
BRANCH   1   7
ATOM      7  O   LIG d   1      -3.314  81.773 115.000  0.00  0.00    -0.368 OA
BRANCH   7   8
ATOM      8  C   LIG d   1      -3.285  82.074 116.417  0.00  0.00     0.119 C 
BRANCH   8   9
ATOM      9  C   LIG d   1      -1.961  81.523 116.980  0.00  0.00     0.028 C 
ATOM     10  C   LIG d   1      -1.167  82.586 117.758  0.00  0.00     0.006 C 
ENDBRANCH   8   9
BRANCH   8  11
ATOM     11  C   LIG d   1      -4.389  81.324 117.169  0.00  0.00     0.028 C 
ATOM     12  C   LIG d   1      -4.272  79.798 117.033  0.00  0.00     0.006 C 
ENDBRANCH   8  11
ENDBRANCH   7   8
ENDBRANCH   1   7
BRANCH   6  13
ATOM     13  N   LIG d   1      -2.110  79.146 114.144  0.00  0.00    -0.311 N 
ATOM     14  C   LIG d   1      -2.722  78.035 113.736  0.00  0.00     0.210 C 
ATOM     15  C   LIG d   1      -2.622  76.851 114.703  0.00  0.00     0.109 C 
ATOM     16  O   LIG d   1      -3.310  77.909 112.652  0.00  0.00    -0.276 OA
ATOM     17  H   LIG d   1      -1.630  79.151 115.022  0.00  0.00     0.149 HD
ENDBRANCH   6  13
BRANCH   5  18
ATOM     18  N   LIG d   1      -1.046  79.431 111.294  0.00  0.00     0.381 N 
ATOM     19  H   LIG d   1      -1.799  79.651 110.672  0.00  0.00    -0.090 HD
ATOM     20  H   LIG d   1      -1.245  78.548 111.729  0.00  0.00    -0.090 HD
ATOM     21  H   LIG d   1      -0.191  79.375 110.786  0.00  0.00    -0.090 HD
ENDBRANCH   5  18
BRANCH   3  22
ATOM     22  C   LIG d   1      -0.404  84.098 112.158  0.00  0.00     0.382 C 
ATOM     23  O   LIG d   1      -0.683  84.608 111.046  0.00  0.00    -0.241 OA
ATOM     24  O   LIG d   1       0.440  84.649 112.891  0.00  0.00    -0.241 OA
ENDBRANCH   3  22
TORSDOF 7
ENDMDL
MODEL 5
REMARK VINA RESULT:      -4.7      3.356      5.679
REMARK  7 active torsions:
REMARK  status: ('A' for Active; 'I' for Inactive)
REMARK    1  A    between atoms: C_2  and  C_3 
REMARK    2  A    between atoms: C_3  and  O_6 
REMARK    3  A    between atoms: C_3  and  C_4 
REMARK    4  A    between atoms: C_7  and  O_6 
REMARK    5  A    between atoms: C_9  and  C_10 
REMARK    6  A    between atoms: N_15  and  C_14 
REMARK    7  A    between atoms: N_20  and  C_19 
REMARK       I    between atoms: C_22  and  N_20 
ROOT
ATOM      1  C   LIG d   1      -6.098  78.205 117.267  0.00  0.00     0.161 C 
ATOM      2  C   LIG d   1      -7.465  78.349 117.556  0.00  0.00     0.016 C 
ATOM      3  C   LIG d   1      -8.085  79.598 117.788  0.00  0.00     0.038 C 
ATOM      4  C   LIG d   1      -7.404  80.810 117.595  0.00  0.00     0.028 C 
ATOM      5  C   LIG d   1      -5.897  80.697 117.796  0.00  0.00    -0.047 C 
ATOM      6  C   LIG d   1      -5.364  79.523 116.944  0.00  0.00     0.091 C 
ENDROOT
BRANCH   1   7
ATOM      7  O   LIG d   1      -5.922  77.257 116.195  0.00  0.00    -0.368 OA
BRANCH   7   8
ATOM      8  C   LIG d   1      -5.840  75.864 116.583  0.00  0.00     0.119 C 
BRANCH   8   9
ATOM      9  C   LIG d   1      -4.774  75.754 117.691  0.00  0.00     0.028 C 
ATOM     10  C   LIG d   1      -3.375  75.452 117.131  0.00  0.00     0.006 C 
ENDBRANCH   8   9
BRANCH   8  11
ATOM     11  C   LIG d   1      -5.321  74.995 115.434  0.00  0.00     0.028 C 
ATOM     12  C   LIG d   1      -5.413  75.696 114.069  0.00  0.00     0.006 C 
ENDBRANCH   8  11
ENDBRANCH   7   8
ENDBRANCH   1   7
BRANCH   6  13
ATOM     13  N   LIG d   1      -3.910  79.289 117.147  0.00  0.00    -0.311 N 
ATOM     14  C   LIG d   1      -3.054  79.086 116.147  0.00  0.00     0.210 C 
ATOM     15  C   LIG d   1      -1.603  78.845 116.578  0.00  0.00     0.109 C 
ATOM     16  O   LIG d   1      -3.352  79.114 114.944  0.00  0.00    -0.276 OA
ATOM     17  H   LIG d   1      -3.577  79.281 118.091  0.00  0.00     0.149 HD
ENDBRANCH   6  13
BRANCH   5  18
ATOM     18  N   LIG d   1      -5.300  81.995 117.431  0.00  0.00     0.381 N 
ATOM     19  H   LIG d   1      -4.488  81.847 116.865  0.00  0.00    -0.090 HD
ATOM     20  H   LIG d   1      -5.017  82.471 118.270  0.00  0.00    -0.090 HD
ATOM     21  H   LIG d   1      -5.963  82.548 116.934  0.00  0.00    -0.090 HD
ENDBRANCH   5  18
BRANCH   3  22
ATOM     22  C   LIG d   1      -9.389  79.643 118.255  0.00  0.00     0.382 C 
ATOM     23  O   LIG d   1      -9.888  80.735 118.619  0.00  0.00    -0.241 OA
ATOM     24  O   LIG d   1     -10.059  78.597 118.360  0.00  0.00    -0.241 OA
ENDBRANCH   3  22
TORSDOF 7
ENDMDL
MODEL 6
REMARK VINA RESULT:      -4.6      3.901      6.359
REMARK  7 active torsions:
REMARK  status: ('A' for Active; 'I' for Inactive)
REMARK    1  A    between atoms: C_2  and  C_3 
REMARK    2  A    between atoms: C_3  and  O_6 
REMARK    3  A    between atoms: C_3  and  C_4 
REMARK    4  A    between atoms: C_7  and  O_6 
REMARK    5  A    between atoms: C_9  and  C_10 
REMARK    6  A    between atoms: N_15  and  C_14 
REMARK    7  A    between atoms: N_20  and  C_19 
REMARK       I    between atoms: C_22  and  N_20 
ROOT
ATOM      1  C   LIG d   1      -1.592  80.270 114.740  0.00  0.00     0.161 C 
ATOM      2  C   LIG d   1      -2.421  79.165 114.993  0.00  0.00     0.016 C 
ATOM      3  C   LIG d   1      -2.735  78.188 114.021  0.00  0.00     0.038 C 
ATOM      4  C   LIG d   1      -2.116  78.168 112.762  0.00  0.00     0.028 C 
ATOM      5  C   LIG d   1      -1.660  79.545 112.290  0.00  0.00    -0.047 C 
ATOM      6  C   LIG d   1      -0.819  80.205 113.406  0.00  0.00     0.091 C 
ENDROOT
BRANCH   1   7
ATOM      7  O   LIG d   1      -0.680  80.459 115.839  0.00  0.00    -0.368 OA
BRANCH   7   8
ATOM      8  C   LIG d   1      -0.892  81.644 116.647  0.00  0.00     0.119 C 
BRANCH   8   9
ATOM      9  C   LIG d   1      -2.182  82.321 116.145  0.00  0.00     0.028 C 
ATOM     10  C   LIG d   1      -3.296  82.321 117.205  0.00  0.00     0.006 C 
ENDBRANCH   8   9
BRANCH   8  11
ATOM     11  C   LIG d   1       0.219  82.674 116.427  0.00  0.00     0.028 C 
ATOM     12  C   LIG d   1      -0.307  84.009 115.875  0.00  0.00     0.006 C 
ENDBRANCH   8  11
ENDBRANCH   7   8
ENDBRANCH   1   7
BRANCH   6  13
ATOM     13  N   LIG d   1      -0.404  81.590 113.059  0.00  0.00    -0.311 N 
ATOM     14  C   LIG d   1      -1.169  82.433 112.369  0.00  0.00     0.210 C 
ATOM     15  C   LIG d   1      -0.542  83.805 112.103  0.00  0.00     0.109 C 
ATOM     16  O   LIG d   1      -2.320  82.187 111.980  0.00  0.00    -0.276 OA
ATOM     17  H   LIG d   1       0.504  81.883 113.363  0.00  0.00     0.149 HD
ENDBRANCH   6  13
BRANCH   5  18
ATOM     18  N   LIG d   1      -0.911  79.360 111.033  0.00  0.00     0.381 N 
ATOM     19  H   LIG d   1      -1.221  80.025 110.353  0.00  0.00    -0.090 HD
ATOM     20  H   LIG d   1      -1.093  78.437 110.679  0.00  0.00    -0.090 HD
ATOM     21  H   LIG d   1       0.065  79.473 111.199  0.00  0.00    -0.090 HD
ENDBRANCH   5  18
BRANCH   3  22
ATOM     22  C   LIG d   1      -3.710  77.238 114.290  0.00  0.00     0.382 C 
ATOM     23  O   LIG d   1      -3.979  76.935 115.477  0.00  0.00    -0.241 OA
ATOM     24  O   LIG d   1      -4.292  76.649 113.359  0.00  0.00    -0.241 OA
ENDBRANCH   3  22
TORSDOF 7
ENDMDL
MODEL 7
REMARK VINA RESULT:      -4.4      2.301      2.748
REMARK  7 active torsions:
REMARK  status: ('A' for Active; 'I' for Inactive)
REMARK    1  A    between atoms: C_2  and  C_3 
REMARK    2  A    between atoms: C_3  and  O_6 
REMARK    3  A    between atoms: C_3  and  C_4 
REMARK    4  A    between atoms: C_7  and  O_6 
REMARK    5  A    between atoms: C_9  and  C_10 
REMARK    6  A    between atoms: N_15  and  C_14 
REMARK    7  A    between atoms: N_20  and  C_19 
REMARK       I    between atoms: C_22  and  N_20 
ROOT
ATOM      1  C   LIG d   1      -2.431  78.477 114.768  0.00  0.00     0.161 C 
ATOM      2  C   LIG d   1      -2.635  79.256 113.617  0.00  0.00     0.016 C 
ATOM      3  C   LIG d   1      -1.885  80.418 113.321  0.00  0.00     0.038 C 
ATOM      4  C   LIG d   1      -0.772  80.797 114.086  0.00  0.00     0.028 C 
ATOM      5  C   LIG d   1      -0.845  80.328 115.535  0.00  0.00    -0.047 C 
ATOM      6  C   LIG d   1      -1.148  78.812 115.557  0.00  0.00     0.091 C 
ENDROOT
BRANCH   1   7
ATOM      7  O   LIG d   1      -2.456  77.078 114.422  0.00  0.00    -0.368 OA
BRANCH   7   8
ATOM      8  C   LIG d   1      -3.573  76.314 114.938  0.00  0.00     0.119 C 
BRANCH   8   9
ATOM      9  C   LIG d   1      -4.428  77.265 115.798  0.00  0.00     0.028 C 
ATOM     10  C   LIG d   1      -5.894  76.812 115.894  0.00  0.00     0.006 C 
ENDBRANCH   8   9
BRANCH   8  11
ATOM     11  C   LIG d   1      -3.101  75.216 115.896  0.00  0.00     0.028 C 
ATOM     12  C   LIG d   1      -1.740  74.623 115.499  0.00  0.00     0.006 C 
ENDBRANCH   8  11
ENDBRANCH   7   8
ENDBRANCH   1   7
BRANCH   6  13
ATOM     13  N   LIG d   1      -1.319  78.288 116.937  0.00  0.00    -0.311 N 
ATOM     14  C   LIG d   1      -0.539  77.348 117.466  0.00  0.00     0.210 C 
ATOM     15  C   LIG d   1      -0.900  76.937 118.897  0.00  0.00     0.109 C 
ATOM     16  O   LIG d   1       0.439  76.838 116.898  0.00  0.00    -0.276 OA
ATOM     17  H   LIG d   1      -2.069  78.669 117.480  0.00  0.00     0.149 HD
ENDBRANCH   6  13
BRANCH   5  18
ATOM     18  N   LIG d   1       0.437  80.670 116.179  0.00  0.00     0.381 N 
ATOM     19  H   LIG d   1       1.096  79.931 116.036  0.00  0.00    -0.090 HD
ATOM     20  H   LIG d   1       0.288  80.772 117.167  0.00  0.00    -0.090 HD
ATOM     21  H   LIG d   1       0.793  81.520 115.799  0.00  0.00    -0.090 HD
ENDBRANCH   5  18
BRANCH   3  22
ATOM     22  C   LIG d   1      -2.273  81.237 112.271  0.00  0.00     0.382 C 
ATOM     23  O   LIG d   1      -3.492  81.417 112.033  0.00  0.00    -0.241 OA
ATOM     24  O   LIG d   1      -1.419  81.762 111.531  0.00  0.00    -0.241 OA
ENDBRANCH   3  22
TORSDOF 7
ENDMDL
MODEL 8
REMARK VINA RESULT:      -4.4      3.880      6.379
REMARK  7 active torsions:
REMARK  status: ('A' for Active; 'I' for Inactive)
REMARK    1  A    between atoms: C_2  and  C_3 
REMARK    2  A    between atoms: C_3  and  O_6 
REMARK    3  A    between atoms: C_3  and  C_4 
REMARK    4  A    between atoms: C_7  and  O_6 
REMARK    5  A    between atoms: C_9  and  C_10 
REMARK    6  A    between atoms: N_15  and  C_14 
REMARK    7  A    between atoms: N_20  and  C_19 
REMARK       I    between atoms: C_22  and  N_20 
ROOT
ATOM      1  C   LIG d   1      -5.966  78.998 117.341  0.00  0.00     0.161 C 
ATOM      2  C   LIG d   1      -7.295  78.711 117.690  0.00  0.00     0.016 C 
ATOM      3  C   LIG d   1      -8.192  79.677 118.201  0.00  0.00     0.038 C 
ATOM      4  C   LIG d   1      -7.862  81.040 118.254  0.00  0.00     0.028 C 
ATOM      5  C   LIG d   1      -6.365  81.295 118.386  0.00  0.00    -0.047 C 
ATOM      6  C   LIG d   1      -5.621  80.501 117.288  0.00  0.00     0.091 C 
ENDROOT
BRANCH   1   7
ATOM      7  O   LIG d   1      -5.643  78.366 116.086  0.00  0.00    -0.368 OA
BRANCH   7   8
ATOM      8  C   LIG d   1      -5.147  77.007 116.167  0.00  0.00     0.119 C 
BRANCH   8   9
ATOM      9  C   LIG d   1      -3.952  77.007 117.140  0.00  0.00     0.028 C 
ATOM     10  C   LIG d   1      -3.907  75.743 118.014  0.00  0.00     0.006 C 
ENDBRANCH   8   9
BRANCH   8  11
ATOM     11  C   LIG d   1      -4.576  76.541 114.824  0.00  0.00     0.028 C 
ATOM     12  C   LIG d   1      -5.318  75.323 114.252  0.00  0.00     0.006 C 
ENDBRANCH   8  11
ENDBRANCH   7   8
ENDBRANCH   1   7
BRANCH   6  13
ATOM     13  N   LIG d   1      -4.145  80.629 117.397  0.00  0.00    -0.311 N 
ATOM     14  C   LIG d   1      -3.421  81.448 116.636  0.00  0.00     0.210 C 
ATOM     15  C   LIG d   1      -1.912  81.410 116.898  0.00  0.00     0.109 C 
ATOM     16  O   LIG d   1      -3.889  82.226 115.791  0.00  0.00    -0.276 OA
ATOM     17  H   LIG d   1      -3.687  80.057 118.079  0.00  0.00     0.149 HD
ENDBRANCH   6  13
BRANCH   5  18
ATOM     18  N   LIG d   1      -6.151  82.752 118.291  0.00  0.00     0.381 N 
ATOM     19  H   LIG d   1      -5.435  82.946 117.621  0.00  0.00    -0.090 HD
ATOM     20  H   LIG d   1      -5.847  83.095 119.186  0.00  0.00    -0.090 HD
ATOM     21  H   LIG d   1      -6.998  83.204 118.024  0.00  0.00    -0.090 HD
ENDBRANCH   5  18
BRANCH   3  22
ATOM     22  C   LIG d   1      -9.422  79.277 118.702  0.00  0.00     0.382 C 
ATOM     23  O   LIG d   1     -10.060  78.357 118.136  0.00  0.00    -0.241 OA
ATOM     24  O   LIG d   1      -9.921  79.855 119.686  0.00  0.00    -0.241 OA
ENDBRANCH   3  22
TORSDOF 7
ENDMDL
MODEL 9
REMARK VINA RESULT:      -4.4      3.117      4.376
REMARK  7 active torsions:
REMARK  status: ('A' for Active; 'I' for Inactive)
REMARK    1  A    between atoms: C_2  and  C_3 
REMARK    2  A    between atoms: C_3  and  O_6 
REMARK    3  A    between atoms: C_3  and  C_4 
REMARK    4  A    between atoms: C_7  and  O_6 
REMARK    5  A    between atoms: C_9  and  C_10 
REMARK    6  A    between atoms: N_15  and  C_14 
REMARK    7  A    between atoms: N_20  and  C_19 
REMARK       I    between atoms: C_22  and  N_20 
ROOT
ATOM      1  C   LIG d   1      -2.675  79.957 115.343  0.00  0.00     0.161 C 
ATOM      2  C   LIG d   1      -2.292  81.229 114.885  0.00  0.00     0.016 C 
ATOM      3  C   LIG d   1      -1.714  81.457 113.615  0.00  0.00     0.038 C 
ATOM      4  C   LIG d   1      -1.617  80.443 112.652  0.00  0.00     0.028 C 
ATOM      5  C   LIG d   1      -1.526  79.044 113.252  0.00  0.00    -0.047 C 
ATOM      6  C   LIG d   1      -2.680  78.855 114.263  0.00  0.00     0.091 C 
ENDROOT
BRANCH   1   7
ATOM      7  O   LIG d   1      -3.963  80.036 115.984  0.00  0.00    -0.368 OA
BRANCH   7   8
ATOM      8  C   LIG d   1      -3.968  79.891 117.426  0.00  0.00     0.119 C 
BRANCH   8   9
ATOM      9  C   LIG d   1      -4.621  78.534 117.752  0.00  0.00     0.028 C 
ATOM     10  C   LIG d   1      -4.709  78.274 119.266  0.00  0.00     0.006 C 
ENDBRANCH   8   9
BRANCH   8  11
ATOM     11  C   LIG d   1      -4.864  80.941 118.089  0.00  0.00     0.028 C 
ATOM     12  C   LIG d   1      -6.145  81.224 117.287  0.00  0.00     0.006 C 
ENDBRANCH   8  11
ENDBRANCH   7   8
ENDBRANCH   1   7
BRANCH   6  13
ATOM     13  N   LIG d   1      -2.615  77.543 114.959  0.00  0.00    -0.311 N 
ATOM     14  C   LIG d   1      -3.481  76.555 114.742  0.00  0.00     0.210 C 
ATOM     15  C   LIG d   1      -3.246  75.294 115.579  0.00  0.00     0.109 C 
ATOM     16  O   LIG d   1      -4.402  76.591 113.912  0.00  0.00    -0.276 OA
ATOM     17  H   LIG d   1      -1.880  77.417 115.626  0.00  0.00     0.149 HD
ENDBRANCH   6  13
BRANCH   5  18
ATOM     18  N   LIG d   1      -1.570  78.077 112.138  0.00  0.00     0.381 N 
ATOM     19  H   LIG d   1      -0.642  77.891 111.814  0.00  0.00    -0.090 HD
ATOM     20  H   LIG d   1      -2.094  78.478 111.380  0.00  0.00    -0.090 HD
ATOM     21  H   LIG d   1      -2.001  77.231 112.438  0.00  0.00    -0.090 HD
ENDBRANCH   5  18
BRANCH   3  22
ATOM     22  C   LIG d   1      -1.188  82.704 113.314  0.00  0.00     0.382 C 
ATOM     23  O   LIG d   1      -1.346  83.191 112.169  0.00  0.00    -0.241 OA
ATOM     24  O   LIG d   1      -0.520  83.329 114.159  0.00  0.00    -0.241 OA
ENDBRANCH   3  22
TORSDOF 7
ENDMDL
