MODEL 1
REMARK VINA RESULT:      -4.7      0.000      0.000
REMARK  7 active torsions:
REMARK  status: ('A' for Active; 'I' for Inactive)
REMARK    1  A    between atoms: C_2  and  C_3 
REMARK    2  A    between atoms: C_3  and  O_6 
REMARK    3  A    between atoms: C_3  and  C_4 
REMARK    4  A    between atoms: C_7  and  O_6 
REMARK    5  A    between atoms: C_9  and  C_10 
REMARK    6  A    between atoms: N_15  and  C_14 
REMARK    7  A    between atoms: N_20  and  C_19 
REMARK       I    between atoms: C_22  and  N_20 
ROOT
ATOM      1  C   LIG d   1      -3.034  76.900 115.254  0.00  0.00     0.161 C 
ATOM      2  C   LIG d   1      -3.167  77.586 114.035  0.00  0.00     0.016 C 
ATOM      3  C   LIG d   1      -2.189  78.473 113.530  0.00  0.00     0.038 C 
ATOM      4  C   LIG d   1      -0.935  78.619 114.141  0.00  0.00     0.028 C 
ATOM      5  C   LIG d   1      -0.953  78.333 115.639  0.00  0.00    -0.047 C 
ATOM      6  C   LIG d   1      -1.625  76.961 115.879  0.00  0.00     0.091 C 
ENDROOT
BRANCH   1   7
ATOM      7  O   LIG d   1      -3.451  75.530 115.091  0.00  0.00    -0.368 OA
BRANCH   7   8
ATOM      8  C   LIG d   1      -4.711  75.170 115.710  0.00  0.00     0.119 C 
BRANCH   8   9
ATOM      9  C   LIG d   1      -4.401  74.180 116.849  0.00  0.00     0.028 C 
ATOM     10  C   LIG d   1      -4.939  74.662 118.207  0.00  0.00     0.006 C 
ENDBRANCH   8   9
BRANCH   8  11
ATOM     11  C   LIG d   1      -5.609  74.400 114.737  0.00  0.00     0.028 C 
ATOM     12  C   LIG d   1      -6.676  75.290 114.079  0.00  0.00     0.006 C 
ENDBRANCH   8  11
ENDBRANCH   7   8
ENDBRANCH   1   7
BRANCH   6  13
ATOM     13  N   LIG d   1      -1.760  76.642 117.324  0.00  0.00    -0.311 N 
ATOM     14  C   LIG d   1      -1.098  75.652 117.922  0.00  0.00     0.210 C 
ATOM     15  C   LIG d   1      -1.399  75.482 119.414  0.00  0.00     0.109 C 
ATOM     16  O   LIG d   1      -0.267  74.920 117.364  0.00  0.00    -0.276 OA
ATOM     17  H   LIG d   1      -2.390  77.207 117.859  0.00  0.00     0.149 HD
ENDBRANCH   6  13
BRANCH   5  18
ATOM     18  N   LIG d   1       0.440  78.387 116.120  0.00  0.00     0.381 N 
ATOM     19  H   LIG d   1       0.537  79.119 116.795  0.00  0.00    -0.090 HD
ATOM     20  H   LIG d   1       1.044  78.591 115.344  0.00  0.00    -0.090 HD
ATOM     21  H   LIG d   1       0.694  77.514 116.528  0.00  0.00    -0.090 HD
ENDBRANCH   5  18
BRANCH   3  22
ATOM     22  C   LIG d   1      -2.477  79.256 112.422  0.00  0.00     0.382 C 
ATOM     23  O   LIG d   1      -3.337  80.165 112.504  0.00  0.00    -0.241 OA
ATOM     24  O   LIG d   1      -1.920  79.035 111.330  0.00  0.00    -0.241 OA
ENDBRANCH   3  22
TORSDOF 7
ENDMDL
MODEL 2
REMARK VINA RESULT:      -4.6      0.830      1.711
REMARK  7 active torsions:
REMARK  status: ('A' for Active; 'I' for Inactive)
REMARK    1  A    between atoms: C_2  and  C_3 
REMARK    2  A    between atoms: C_3  and  O_6 
REMARK    3  A    between atoms: C_3  and  C_4 
REMARK    4  A    between atoms: C_7  and  O_6 
REMARK    5  A    between atoms: C_9  and  C_10 
REMARK    6  A    between atoms: N_15  and  C_14 
REMARK    7  A    between atoms: N_20  and  C_19 
REMARK       I    between atoms: C_22  and  N_20 
ROOT
ATOM      1  C   LIG d   1      -3.130  76.293 115.488  0.00  0.00     0.161 C 
ATOM      2  C   LIG d   1      -3.272  77.216 114.439  0.00  0.00     0.016 C 
ATOM      3  C   LIG d   1      -2.287  78.175 114.107  0.00  0.00     0.038 C 
ATOM      4  C   LIG d   1      -1.020  78.176 114.710  0.00  0.00     0.028 C 
ATOM      5  C   LIG d   1      -1.020  77.590 116.118  0.00  0.00    -0.047 C 
ATOM      6  C   LIG d   1      -1.710  76.207 116.086  0.00  0.00     0.091 C 
ENDROOT
BRANCH   1   7
ATOM      7  O   LIG d   1      -3.572  74.991 115.058  0.00  0.00    -0.368 OA
BRANCH   7   8
ATOM      8  C   LIG d   1      -4.762  74.476 115.704  0.00  0.00     0.119 C 
BRANCH   8   9
ATOM      9  C   LIG d   1      -5.844  74.312 114.620  0.00  0.00     0.028 C 
ATOM     10  C   LIG d   1      -6.853  75.473 114.617  0.00  0.00     0.006 C 
ENDBRANCH   8   9
BRANCH   8  11
ATOM     11  C   LIG d   1      -5.337  75.487 116.701  0.00  0.00     0.028 C 
ATOM     12  C   LIG d   1      -5.524  74.897 118.107  0.00  0.00     0.006 C 
ENDBRANCH   8  11
ENDBRANCH   7   8
ENDBRANCH   1   7
BRANCH   6  13
ATOM     13  N   LIG d   1      -1.826  75.600 117.437  0.00  0.00    -0.311 N 
ATOM     14  C   LIG d   1      -0.941  74.737 117.933  0.00  0.00     0.210 C 
ATOM     15  C   LIG d   1      -1.261  74.217 119.338  0.00  0.00     0.109 C 
ATOM     16  O   LIG d   1       0.096  74.378 117.355  0.00  0.00    -0.276 OA
ATOM     17  H   LIG d   1      -2.622  75.860 117.987  0.00  0.00     0.149 HD
ENDBRANCH   6  13
BRANCH   5  18
ATOM     18  N   LIG d   1       0.382  77.526 116.573  0.00  0.00     0.381 N 
ATOM     19  H   LIG d   1       0.936  77.040 115.897  0.00  0.00    -0.090 HD
ATOM     20  H   LIG d   1       0.420  77.015 117.438  0.00  0.00    -0.090 HD
ATOM     21  H   LIG d   1       0.739  78.446 116.707  0.00  0.00    -0.090 HD
ENDBRANCH   5  18
BRANCH   3  22
ATOM     22  C   LIG d   1      -2.580  79.171 113.188  0.00  0.00     0.382 C 
ATOM     23  O   LIG d   1      -3.028  80.275 113.583  0.00  0.00    -0.241 OA
ATOM     24  O   LIG d   1      -2.444  78.965 111.968  0.00  0.00    -0.241 OA
ENDBRANCH   3  22
TORSDOF 7
ENDMDL
MODEL 3
REMARK VINA RESULT:      -4.4      1.992      2.238
REMARK  7 active torsions:
REMARK  status: ('A' for Active; 'I' for Inactive)
REMARK    1  A    between atoms: C_2  and  C_3 
REMARK    2  A    between atoms: C_3  and  O_6 
REMARK    3  A    between atoms: C_3  and  C_4 
REMARK    4  A    between atoms: C_7  and  O_6 
REMARK    5  A    between atoms: C_9  and  C_10 
REMARK    6  A    between atoms: N_15  and  C_14 
REMARK    7  A    between atoms: N_20  and  C_19 
REMARK       I    between atoms: C_22  and  N_20 
ROOT
ATOM      1  C   LIG d   1      -2.514  77.912 116.449  0.00  0.00     0.161 C 
ATOM      2  C   LIG d   1      -2.874  78.699 115.342  0.00  0.00     0.016 C 
ATOM      3  C   LIG d   1      -2.323  78.524 114.051  0.00  0.00     0.038 C 
ATOM      4  C   LIG d   1      -1.481  77.444 113.744  0.00  0.00     0.028 C 
ATOM      5  C   LIG d   1      -0.698  76.927 114.946  0.00  0.00    -0.047 C 
ATOM      6  C   LIG d   1      -1.681  76.659 116.108  0.00  0.00     0.091 C 
ENDROOT
BRANCH   1   7
ATOM      7  O   LIG d   1      -3.694  77.543 117.190  0.00  0.00    -0.368 OA
BRANCH   7   8
ATOM      8  C   LIG d   1      -4.951  77.639 116.475  0.00  0.00     0.119 C 
BRANCH   8   9
ATOM      9  C   LIG d   1      -5.966  78.320 117.414  0.00  0.00     0.028 C 
ATOM     10  C   LIG d   1      -5.712  79.830 117.556  0.00  0.00     0.006 C 
ENDBRANCH   8   9
BRANCH   8  11
ATOM     11  C   LIG d   1      -5.534  76.252 116.185  0.00  0.00     0.028 C 
ATOM     12  C   LIG d   1      -5.027  75.658 114.861  0.00  0.00     0.006 C 
ENDBRANCH   8  11
ENDBRANCH   7   8
ENDBRANCH   1   7
BRANCH   6  13
ATOM     13  N   LIG d   1      -0.986  76.229 117.350  0.00  0.00    -0.311 N 
ATOM     14  C   LIG d   1      -1.208  75.059 117.947  0.00  0.00     0.210 C 
ATOM     15  C   LIG d   1      -0.401  74.823 119.227  0.00  0.00     0.109 C 
ATOM     16  O   LIG d   1      -1.973  74.181 117.520  0.00  0.00    -0.276 OA
ATOM     17  H   LIG d   1      -0.326  76.868 117.748  0.00  0.00     0.149 HD
ENDBRANCH   6  13
BRANCH   5  18
ATOM     18  N   LIG d   1       0.032  75.719 114.515  0.00  0.00     0.381 N 
ATOM     19  H   LIG d   1      -0.549  75.169 113.914  0.00  0.00    -0.090 HD
ATOM     20  H   LIG d   1       0.256  75.169 115.325  0.00  0.00    -0.090 HD
ATOM     21  H   LIG d   1       0.867  75.977 114.037  0.00  0.00    -0.090 HD
ENDBRANCH   5  18
BRANCH   3  22
ATOM     22  C   LIG d   1      -2.583  79.459 113.061  0.00  0.00     0.382 C 
ATOM     23  O   LIG d   1      -3.158  80.535 113.351  0.00  0.00    -0.241 OA
ATOM     24  O   LIG d   1      -2.288  79.221 111.874  0.00  0.00    -0.241 OA
ENDBRANCH   3  22
TORSDOF 7
ENDMDL
MODEL 4
REMARK VINA RESULT:      -4.3      3.520      4.480
REMARK  7 active torsions:
REMARK  status: ('A' for Active; 'I' for Inactive)
REMARK    1  A    between atoms: C_2  and  C_3 
REMARK    2  A    between atoms: C_3  and  O_6 
REMARK    3  A    between atoms: C_3  and  C_4 
REMARK    4  A    between atoms: C_7  and  O_6 
REMARK    5  A    between atoms: C_9  and  C_10 
REMARK    6  A    between atoms: N_15  and  C_14 
REMARK    7  A    between atoms: N_20  and  C_19 
REMARK       I    between atoms: C_22  and  N_20 
ROOT
ATOM      1  C   LIG d   1      -5.536  76.474 117.780  0.00  0.00     0.161 C 
ATOM      2  C   LIG d   1      -6.371  77.574 118.039  0.00  0.00     0.016 C 
ATOM      3  C   LIG d   1      -6.022  78.907 117.723  0.00  0.00     0.038 C 
ATOM      4  C   LIG d   1      -4.870  79.216 116.984  0.00  0.00     0.028 C 
ATOM      5  C   LIG d   1      -3.753  78.191 117.144  0.00  0.00    -0.047 C 
ATOM      6  C   LIG d   1      -4.325  76.780 116.874  0.00  0.00     0.091 C 
ENDROOT
BRANCH   1   7
ATOM      7  O   LIG d   1      -6.312  75.390 117.231  0.00  0.00    -0.368 OA
BRANCH   7   8
ATOM      8  C   LIG d   1      -7.378  75.766 116.325  0.00  0.00     0.119 C 
BRANCH   8   9
ATOM      9  C   LIG d   1      -8.623  74.942 116.709  0.00  0.00     0.028 C 
ATOM     10  C   LIG d   1      -9.527  75.677 117.712  0.00  0.00     0.006 C 
ENDBRANCH   8   9
BRANCH   8  11
ATOM     11  C   LIG d   1      -7.053  75.362 114.884  0.00  0.00     0.028 C 
ATOM     12  C   LIG d   1      -5.951  74.294 114.798  0.00  0.00     0.006 C 
ENDBRANCH   8  11
ENDBRANCH   7   8
ENDBRANCH   1   7
BRANCH   6  13
ATOM     13  N   LIG d   1      -3.318  75.709 117.092  0.00  0.00    -0.311 N 
ATOM     14  C   LIG d   1      -2.455  75.313 116.159  0.00  0.00     0.210 C 
ATOM     15  C   LIG d   1      -1.515  74.181 116.585  0.00  0.00     0.109 C 
ATOM     16  O   LIG d   1      -2.356  75.815 115.029  0.00  0.00    -0.276 OA
ATOM     17  H   LIG d   1      -3.307  75.269 117.992  0.00  0.00     0.149 HD
ENDBRANCH   6  13
BRANCH   5  18
ATOM     18  N   LIG d   1      -2.669  78.563 116.215  0.00  0.00     0.381 N 
ATOM     19  H   LIG d   1      -1.801  78.187 116.541  0.00  0.00    -0.090 HD
ATOM     20  H   LIG d   1      -2.591  79.564 116.192  0.00  0.00    -0.090 HD
ATOM     21  H   LIG d   1      -2.869  78.216 115.303  0.00  0.00    -0.090 HD
ENDBRANCH   5  18
BRANCH   3  22
ATOM     22  C   LIG d   1      -6.810  79.951 118.182  0.00  0.00     0.382 C 
ATOM     23  O   LIG d   1      -7.150  79.995 119.389  0.00  0.00    -0.241 OA
ATOM     24  O   LIG d   1      -7.221  80.825 117.396  0.00  0.00    -0.241 OA
ENDBRANCH   3  22
TORSDOF 7
ENDMDL
MODEL 5
REMARK VINA RESULT:      -4.2      4.391      6.310
REMARK  7 active torsions:
REMARK  status: ('A' for Active; 'I' for Inactive)
REMARK    1  A    between atoms: C_2  and  C_3 
REMARK    2  A    between atoms: C_3  and  O_6 
REMARK    3  A    between atoms: C_3  and  C_4 
REMARK    4  A    between atoms: C_7  and  O_6 
REMARK    5  A    between atoms: C_9  and  C_10 
REMARK    6  A    between atoms: N_15  and  C_14 
REMARK    7  A    between atoms: N_20  and  C_19 
REMARK       I    between atoms: C_22  and  N_20 
ROOT
ATOM      1  C   LIG d   1      -5.786  76.499 117.933  0.00  0.00     0.161 C 
ATOM      2  C   LIG d   1      -4.803  76.690 116.947  0.00  0.00     0.016 C 
ATOM      3  C   LIG d   1      -4.921  76.200 115.626  0.00  0.00     0.038 C 
ATOM      4  C   LIG d   1      -6.105  75.612 115.156  0.00  0.00     0.028 C 
ATOM      5  C   LIG d   1      -6.929  74.949 116.254  0.00  0.00    -0.047 C 
ATOM      6  C   LIG d   1      -7.132  75.957 117.408  0.00  0.00     0.091 C 
ENDROOT
BRANCH   1   7
ATOM      7  O   LIG d   1      -5.990  77.725 118.663  0.00  0.00    -0.368 OA
BRANCH   7   8
ATOM      8  C   LIG d   1      -6.851  78.706 118.034  0.00  0.00     0.119 C 
BRANCH   8   9
ATOM      9  C   LIG d   1      -5.964  79.885 117.592  0.00  0.00     0.028 C 
ATOM     10  C   LIG d   1      -6.632  81.248 117.841  0.00  0.00     0.006 C 
ENDBRANCH   8   9
BRANCH   8  11
ATOM     11  C   LIG d   1      -7.845  79.300 119.037  0.00  0.00     0.028 C 
ATOM     12  C   LIG d   1      -9.308  78.995 118.679  0.00  0.00     0.006 C 
ENDBRANCH   8  11
ENDBRANCH   7   8
ENDBRANCH   1   7
BRANCH   6  13
ATOM     13  N   LIG d   1      -7.856  75.361 118.561  0.00  0.00    -0.311 N 
ATOM     14  C   LIG d   1      -9.185  75.316 118.648  0.00  0.00     0.210 C 
ATOM     15  C   LIG d   1      -9.728  74.676 119.929  0.00  0.00     0.109 C 
ATOM     16  O   LIG d   1      -9.965  75.716 117.770  0.00  0.00    -0.276 OA
ATOM     17  H   LIG d   1      -7.301  74.985 119.304  0.00  0.00     0.149 HD
ENDBRANCH   6  13
BRANCH   5  18
ATOM     18  N   LIG d   1      -8.197  74.499 115.650  0.00  0.00     0.381 N 
ATOM     19  H   LIG d   1      -8.307  73.514 115.787  0.00  0.00    -0.090 HD
ATOM     20  H   LIG d   1      -8.168  74.679 114.662  0.00  0.00    -0.090 HD
ATOM     21  H   LIG d   1      -8.963  74.987 116.061  0.00  0.00    -0.090 HD
ENDBRANCH   5  18
BRANCH   3  22
ATOM     22  C   LIG d   1      -3.831  76.261 114.771  0.00  0.00     0.382 C 
ATOM     23  O   LIG d   1      -3.975  76.693 113.602  0.00  0.00    -0.241 OA
ATOM     24  O   LIG d   1      -2.716  75.848 115.139  0.00  0.00    -0.241 OA
ENDBRANCH   3  22
TORSDOF 7
ENDMDL
MODEL 6
REMARK VINA RESULT:      -4.0      4.051      5.386
REMARK  7 active torsions:
REMARK  status: ('A' for Active; 'I' for Inactive)
REMARK    1  A    between atoms: C_2  and  C_3 
REMARK    2  A    between atoms: C_3  and  O_6 
REMARK    3  A    between atoms: C_3  and  C_4 
REMARK    4  A    between atoms: C_7  and  O_6 
REMARK    5  A    between atoms: C_9  and  C_10 
REMARK    6  A    between atoms: N_15  and  C_14 
REMARK    7  A    between atoms: N_20  and  C_19 
REMARK       I    between atoms: C_22  and  N_20 
ROOT
ATOM      1  C   LIG d   1      -4.996  78.129 116.978  0.00  0.00     0.161 C 
ATOM      2  C   LIG d   1      -3.798  78.596 116.412  0.00  0.00     0.016 C 
ATOM      3  C   LIG d   1      -3.007  77.832 115.523  0.00  0.00     0.038 C 
ATOM      4  C   LIG d   1      -3.441  76.597 115.019  0.00  0.00     0.028 C 
ATOM      5  C   LIG d   1      -4.401  75.866 115.951  0.00  0.00    -0.047 C 
ATOM      6  C   LIG d   1      -5.542  76.829 116.353  0.00  0.00     0.091 C 
ENDROOT
BRANCH   1   7
ATOM      7  O   LIG d   1      -5.995  79.166 116.930  0.00  0.00    -0.368 OA
BRANCH   7   8
ATOM      8  C   LIG d   1      -6.079  80.024 118.094  0.00  0.00     0.119 C 
BRANCH   8   9
ATOM      9  C   LIG d   1      -7.038  79.352 119.096  0.00  0.00     0.028 C 
ATOM     10  C   LIG d   1      -8.417  79.059 118.483  0.00  0.00     0.006 C 
ENDBRANCH   8   9
BRANCH   8  11
ATOM     11  C   LIG d   1      -6.729  81.368 117.751  0.00  0.00     0.028 C 
ATOM     12  C   LIG d   1      -6.619  82.392 118.891  0.00  0.00     0.006 C 
ENDBRANCH   8  11
ENDBRANCH   7   8
ENDBRANCH   1   7
BRANCH   6  13
ATOM     13  N   LIG d   1      -6.481  76.219 117.331  0.00  0.00    -0.311 N 
ATOM     14  C   LIG d   1      -7.608  75.603 116.979  0.00  0.00     0.210 C 
ATOM     15  C   LIG d   1      -8.441  75.063 118.147  0.00  0.00     0.109 C 
ATOM     16  O   LIG d   1      -7.982  75.425 115.810  0.00  0.00    -0.276 OA
ATOM     17  H   LIG d   1      -6.239  76.291 118.300  0.00  0.00     0.149 HD
ENDBRANCH   6  13
BRANCH   5  18
ATOM     18  N   LIG d   1      -4.881  74.664 115.244  0.00  0.00     0.381 N 
ATOM     19  H   LIG d   1      -5.717  74.880 114.737  0.00  0.00    -0.090 HD
ATOM     20  H   LIG d   1      -5.097  73.953 115.920  0.00  0.00    -0.090 HD
ATOM     21  H   LIG d   1      -4.180  74.334 114.617  0.00  0.00    -0.090 HD
ENDBRANCH   5  18
BRANCH   3  22
ATOM     22  C   LIG d   1      -1.747  78.284 115.162  0.00  0.00     0.382 C 
ATOM     23  O   LIG d   1      -1.573  79.494 114.878  0.00  0.00    -0.241 OA
ATOM     24  O   LIG d   1      -0.792  77.490 115.073  0.00  0.00    -0.241 OA
ENDBRANCH   3  22
TORSDOF 7
ENDMDL
MODEL 7
REMARK VINA RESULT:      -3.9      3.709      5.733
REMARK  7 active torsions:
REMARK  status: ('A' for Active; 'I' for Inactive)
REMARK    1  A    between atoms: C_2  and  C_3 
REMARK    2  A    between atoms: C_3  and  O_6 
REMARK    3  A    between atoms: C_3  and  C_4 
REMARK    4  A    between atoms: C_7  and  O_6 
REMARK    5  A    between atoms: C_9  and  C_10 
REMARK    6  A    between atoms: N_15  and  C_14 
REMARK    7  A    between atoms: N_20  and  C_19 
REMARK       I    between atoms: C_22  and  N_20 
ROOT
ATOM      1  C   LIG d   1      -5.470  77.227 116.844  0.00  0.00     0.161 C 
ATOM      2  C   LIG d   1      -6.774  76.977 117.303  0.00  0.00     0.016 C 
ATOM      3  C   LIG d   1      -7.499  77.878 118.116  0.00  0.00     0.038 C 
ATOM      4  C   LIG d   1      -7.023  79.166 118.402  0.00  0.00     0.028 C 
ATOM      5  C   LIG d   1      -5.502  79.268 118.381  0.00  0.00    -0.047 C 
ATOM      6  C   LIG d   1      -4.977  78.674 117.054  0.00  0.00     0.091 C 
ENDROOT
BRANCH   1   7
ATOM      7  O   LIG d   1      -5.361  76.857 115.455  0.00  0.00    -0.368 OA
BRANCH   7   8
ATOM      8  C   LIG d   1      -4.618  75.645 115.175  0.00  0.00     0.119 C 
BRANCH   8   9
ATOM      9  C   LIG d   1      -5.628  74.581 114.704  0.00  0.00     0.028 C 
ATOM     10  C   LIG d   1      -6.869  75.202 114.041  0.00  0.00     0.006 C 
ENDBRANCH   8   9
BRANCH   8  11
ATOM     11  C   LIG d   1      -3.988  75.071 116.447  0.00  0.00     0.028 C 
ATOM     12  C   LIG d   1      -2.512  74.685 116.260  0.00  0.00     0.006 C 
ENDBRANCH   8  11
ENDBRANCH   7   8
ENDBRANCH   1   7
BRANCH   6  13
ATOM     13  N   LIG d   1      -3.492  78.657 116.988  0.00  0.00    -0.311 N 
ATOM     14  C   LIG d   1      -2.802  79.032 115.912  0.00  0.00     0.210 C 
ATOM     15  C   LIG d   1      -1.281  78.919 116.049  0.00  0.00     0.109 C 
ATOM     16  O   LIG d   1      -3.304  79.478 114.870  0.00  0.00    -0.276 OA
ATOM     17  H   LIG d   1      -3.003  78.339 117.802  0.00  0.00     0.149 HD
ENDBRANCH   6  13
BRANCH   5  18
ATOM     18  N   LIG d   1      -5.148  80.689 118.558  0.00  0.00     0.381 N 
ATOM     19  H   LIG d   1      -4.507  80.786 119.320  0.00  0.00    -0.090 HD
ATOM     20  H   LIG d   1      -5.980  81.206 118.779  0.00  0.00    -0.090 HD
ATOM     21  H   LIG d   1      -4.739  81.045 117.723  0.00  0.00    -0.090 HD
ENDBRANCH   5  18
BRANCH   3  22
ATOM     22  C   LIG d   1      -8.699  77.478 118.684  0.00  0.00     0.382 C 
ATOM     23  O   LIG d   1      -9.387  76.586 118.133  0.00  0.00    -0.241 OA
ATOM     24  O   LIG d   1      -9.123  78.029 119.718  0.00  0.00    -0.241 OA
ENDBRANCH   3  22
TORSDOF 7
ENDMDL
MODEL 8
REMARK VINA RESULT:      -3.7      2.437      4.450
REMARK  7 active torsions:
REMARK  status: ('A' for Active; 'I' for Inactive)
REMARK    1  A    between atoms: C_2  and  C_3 
REMARK    2  A    between atoms: C_3  and  O_6 
REMARK    3  A    between atoms: C_3  and  C_4 
REMARK    4  A    between atoms: C_7  and  O_6 
REMARK    5  A    between atoms: C_9  and  C_10 
REMARK    6  A    between atoms: N_15  and  C_14 
REMARK    7  A    between atoms: N_20  and  C_19 
REMARK       I    between atoms: C_22  and  N_20 
ROOT
ATOM      1  C   LIG d   1      -0.464  78.012 116.205  0.00  0.00     0.161 C 
ATOM      2  C   LIG d   1      -0.991  78.828 115.191  0.00  0.00     0.016 C 
ATOM      3  C   LIG d   1      -2.148  78.499 114.448  0.00  0.00     0.038 C 
ATOM      4  C   LIG d   1      -2.949  77.394 114.775  0.00  0.00     0.028 C 
ATOM      5  C   LIG d   1      -2.180  76.270 115.461  0.00  0.00    -0.047 C 
ATOM      6  C   LIG d   1      -1.387  76.858 116.651  0.00  0.00     0.091 C 
ENDROOT
BRANCH   1   7
ATOM      7  O   LIG d   1      -0.090  78.820 117.338  0.00  0.00    -0.368 OA
BRANCH   7   8
ATOM      8  C   LIG d   1      -0.840  80.046 117.523  0.00  0.00     0.119 C 
BRANCH   8   9
ATOM      9  C   LIG d   1       0.163  81.148 117.915  0.00  0.00     0.028 C 
ATOM     10  C   LIG d   1      -0.489  82.266 118.746  0.00  0.00     0.006 C 
ENDBRANCH   8   9
BRANCH   8  11
ATOM     11  C   LIG d   1      -1.805  79.935 118.707  0.00  0.00     0.028 C 
ATOM     12  C   LIG d   1      -3.251  79.646 118.272  0.00  0.00     0.006 C 
ENDBRANCH   8  11
ENDBRANCH   7   8
ENDBRANCH   1   7
BRANCH   6  13
ATOM     13  N   LIG d   1      -0.540  75.840 117.326  0.00  0.00    -0.311 N 
ATOM     14  C   LIG d   1      -0.613  75.574 118.629  0.00  0.00     0.210 C 
ATOM     15  C   LIG d   1       0.363  74.503 119.126  0.00  0.00     0.109 C 
ATOM     16  O   LIG d   1      -1.414  76.101 119.415  0.00  0.00    -0.276 OA
ATOM     17  H   LIG d   1       0.117  75.343 116.757  0.00  0.00     0.149 HD
ENDBRANCH   6  13
BRANCH   5  18
ATOM     18  N   LIG d   1      -3.159  75.245 115.869  0.00  0.00     0.381 N 
ATOM     19  H   LIG d   1      -4.072  75.502 115.551  0.00  0.00    -0.090 HD
ATOM     20  H   LIG d   1      -3.178  75.194 116.872  0.00  0.00    -0.090 HD
ATOM     21  H   LIG d   1      -2.904  74.360 115.489  0.00  0.00    -0.090 HD
ENDBRANCH   5  18
BRANCH   3  22
ATOM     22  C   LIG d   1      -2.492  79.257 113.339  0.00  0.00     0.382 C 
ATOM     23  O   LIG d   1      -3.056  80.367 113.489  0.00  0.00    -0.241 OA
ATOM     24  O   LIG d   1      -2.285  78.824 112.190  0.00  0.00    -0.241 OA
ENDBRANCH   3  22
TORSDOF 7
ENDMDL
MODEL 9
REMARK VINA RESULT:      -3.7      4.462      5.701
REMARK  7 active torsions:
REMARK  status: ('A' for Active; 'I' for Inactive)
REMARK    1  A    between atoms: C_2  and  C_3 
REMARK    2  A    between atoms: C_3  and  O_6 
REMARK    3  A    between atoms: C_3  and  C_4 
REMARK    4  A    between atoms: C_7  and  O_6 
REMARK    5  A    between atoms: C_9  and  C_10 
REMARK    6  A    between atoms: N_15  and  C_14 
REMARK    7  A    between atoms: N_20  and  C_19 
REMARK       I    between atoms: C_22  and  N_20 
ROOT
ATOM      1  C   LIG d   1      -6.521  77.941 117.608  0.00  0.00     0.161 C 
ATOM      2  C   LIG d   1      -6.201  76.970 116.645  0.00  0.00     0.016 C 
ATOM      3  C   LIG d   1      -4.886  76.734 116.184  0.00  0.00     0.038 C 
ATOM      4  C   LIG d   1      -3.772  77.355 116.769  0.00  0.00     0.028 C 
ATOM      5  C   LIG d   1      -4.093  78.709 117.394  0.00  0.00    -0.047 C 
ATOM      6  C   LIG d   1      -5.306  78.551 118.339  0.00  0.00     0.091 C 
ENDROOT
BRANCH   1   7
ATOM      7  O   LIG d   1      -7.456  77.397 118.560  0.00  0.00    -0.368 OA
BRANCH   7   8
ATOM      8  C   LIG d   1      -8.854  77.692 118.320  0.00  0.00     0.119 C 
BRANCH   8   9
ATOM      9  C   LIG d   1      -9.290  78.743 119.359  0.00  0.00     0.028 C 
ATOM     10  C   LIG d   1      -9.681  80.082 118.711  0.00  0.00     0.006 C 
ENDBRANCH   8   9
BRANCH   8  11
ATOM     11  C   LIG d   1      -9.736  76.469 118.587  0.00  0.00     0.028 C 
ATOM     12  C   LIG d   1      -9.010  75.141 118.317  0.00  0.00     0.006 C 
ENDBRANCH   8  11
ENDBRANCH   7   8
ENDBRANCH   1   7
BRANCH   6  13
ATOM     13  N   LIG d   1      -5.738  79.846 118.927  0.00  0.00    -0.311 N 
ATOM     14  C   LIG d   1      -6.141  80.885 118.197  0.00  0.00     0.210 C 
ATOM     15  C   LIG d   1      -6.524  82.131 119.001  0.00  0.00     0.109 C 
ATOM     16  O   LIG d   1      -6.248  80.882 116.961  0.00  0.00    -0.276 OA
ATOM     17  H   LIG d   1      -5.713  79.925 119.925  0.00  0.00     0.149 HD
ENDBRANCH   6  13
BRANCH   5  18
ATOM     18  N   LIG d   1      -2.878  79.179 118.086  0.00  0.00     0.381 N 
ATOM     19  H   LIG d   1      -2.744  78.656 118.928  0.00  0.00    -0.090 HD
ATOM     20  H   LIG d   1      -2.997  80.146 118.331  0.00  0.00    -0.090 HD
ATOM     21  H   LIG d   1      -2.085  79.075 117.492  0.00  0.00    -0.090 HD
ENDBRANCH   5  18
BRANCH   3  22
ATOM     22  C   LIG d   1      -4.678  75.897 115.098  0.00  0.00     0.382 C 
ATOM     23  O   LIG d   1      -5.149  76.199 113.975  0.00  0.00    -0.241 OA
ATOM     24  O   LIG d   1      -4.063  74.823 115.237  0.00  0.00    -0.241 OA
ENDBRANCH   3  22
TORSDOF 7
ENDMDL
