MODEL 1
REMARK VINA RESULT:      -4.6      0.000      0.000
REMARK  7 active torsions:
REMARK  status: ('A' for Active; 'I' for Inactive)
REMARK    1  A    between atoms: C_2  and  C_3 
REMARK    2  A    between atoms: C_3  and  O_6 
REMARK    3  A    between atoms: C_3  and  C_4 
REMARK    4  A    between atoms: C_7  and  O_6 
REMARK    5  A    between atoms: C_9  and  C_10 
REMARK    6  A    between atoms: N_15  and  C_14 
REMARK    7  A    between atoms: N_20  and  C_19 
REMARK       I    between atoms: C_22  and  N_20 
ROOT
ATOM      1  C   LIG d   1      -2.530  79.663 115.277  0.00  0.00     0.161 C 
ATOM      2  C   LIG d   1      -2.388  80.887 114.602  0.00  0.00     0.016 C 
ATOM      3  C   LIG d   1      -1.820  81.003 113.313  0.00  0.00     0.038 C 
ATOM      4  C   LIG d   1      -1.491  79.877 112.544  0.00  0.00     0.028 C 
ATOM      5  C   LIG d   1      -1.148  78.650 113.382  0.00  0.00    -0.047 C 
ATOM      6  C   LIG d   1      -2.279  78.413 114.409  0.00  0.00     0.091 C 
ENDROOT
BRANCH   1   7
ATOM      7  O   LIG d   1      -3.832  79.593 115.893  0.00  0.00    -0.368 OA
BRANCH   7   8
ATOM      8  C   LIG d   1      -3.864  79.731 117.335  0.00  0.00     0.119 C 
BRANCH   8   9
ATOM      9  C   LIG d   1      -4.345  78.388 117.918  0.00  0.00     0.028 C 
ATOM     10  C   LIG d   1      -5.260  77.622 116.948  0.00  0.00     0.006 C 
ENDBRANCH   8   9
BRANCH   8  11
ATOM     11  C   LIG d   1      -4.908  80.762 117.773  0.00  0.00     0.028 C 
ATOM     12  C   LIG d   1      -4.502  82.204 117.431  0.00  0.00     0.006 C 
ENDBRANCH   8  11
ENDBRANCH   7   8
ENDBRANCH   1   7
BRANCH   6  13
ATOM     13  N   LIG d   1      -1.983  77.281 115.326  0.00  0.00    -0.311 N 
ATOM     14  C   LIG d   1      -2.405  76.035 115.113  0.00  0.00     0.210 C 
ATOM     15  C   LIG d   1      -2.007  75.024 116.192  0.00  0.00     0.109 C 
ATOM     16  O   LIG d   1      -3.045  75.666 114.116  0.00  0.00    -0.276 OA
ATOM     17  H   LIG d   1      -1.443  77.485 116.144  0.00  0.00     0.149 HD
ENDBRANCH   6  13
BRANCH   5  18
ATOM     18  N   LIG d   1      -0.961  77.516 112.457  0.00  0.00     0.381 N 
ATOM     19  H   LIG d   1      -0.965  77.846 111.512  0.00  0.00    -0.090 HD
ATOM     20  H   LIG d   1      -1.725  76.874 112.570  0.00  0.00    -0.090 HD
ATOM     21  H   LIG d   1      -0.099  77.057 112.651  0.00  0.00    -0.090 HD
ENDBRANCH   5  18
BRANCH   3  22
ATOM     22  C   LIG d   1      -1.539  82.259 112.796  0.00  0.00     0.382 C 
ATOM     23  O   LIG d   1      -1.712  83.281 113.503  0.00  0.00    -0.241 OA
ATOM     24  O   LIG d   1      -1.156  82.386 111.618  0.00  0.00    -0.241 OA
ENDBRANCH   3  22
TORSDOF 7
ENDMDL
MODEL 2
REMARK VINA RESULT:      -4.3      0.972      1.484
REMARK  7 active torsions:
REMARK  status: ('A' for Active; 'I' for Inactive)
REMARK    1  A    between atoms: C_2  and  C_3 
REMARK    2  A    between atoms: C_3  and  O_6 
REMARK    3  A    between atoms: C_3  and  C_4 
REMARK    4  A    between atoms: C_7  and  O_6 
REMARK    5  A    between atoms: C_9  and  C_10 
REMARK    6  A    between atoms: N_15  and  C_14 
REMARK    7  A    between atoms: N_20  and  C_19 
REMARK       I    between atoms: C_22  and  N_20 
ROOT
ATOM      1  C   LIG d   1      -2.395  80.076 115.201  0.00  0.00     0.161 C 
ATOM      2  C   LIG d   1      -2.214  81.262 114.471  0.00  0.00     0.016 C 
ATOM      3  C   LIG d   1      -1.659  81.299 113.171  0.00  0.00     0.038 C 
ATOM      4  C   LIG d   1      -1.385  80.128 112.449  0.00  0.00     0.028 C 
ATOM      5  C   LIG d   1      -1.081  78.926 113.336  0.00  0.00    -0.047 C 
ATOM      6  C   LIG d   1      -2.206  78.780 114.386  0.00  0.00     0.091 C 
ENDROOT
BRANCH   1   7
ATOM      7  O   LIG d   1      -3.690  80.085 115.834  0.00  0.00    -0.368 OA
BRANCH   7   8
ATOM      8  C   LIG d   1      -3.702  80.358 117.257  0.00  0.00     0.119 C 
BRANCH   8   9
ATOM      9  C   LIG d   1      -4.419  81.706 117.464  0.00  0.00     0.028 C 
ATOM     10  C   LIG d   1      -5.935  81.541 117.661  0.00  0.00     0.006 C 
ENDBRANCH   8   9
BRANCH   8  11
ATOM     11  C   LIG d   1      -2.284  80.566 117.796  0.00  0.00     0.028 C 
ATOM     12  C   LIG d   1      -2.083  81.953 118.427  0.00  0.00     0.006 C 
ENDBRANCH   8  11
ENDBRANCH   7   8
ENDBRANCH   1   7
BRANCH   6  13
ATOM     13  N   LIG d   1      -1.943  77.678 115.348  0.00  0.00    -0.311 N 
ATOM     14  C   LIG d   1      -2.318  76.417 115.138  0.00  0.00     0.210 C 
ATOM     15  C   LIG d   1      -1.967  75.442 116.266  0.00  0.00     0.109 C 
ATOM     16  O   LIG d   1      -2.879  76.007 114.111  0.00  0.00    -0.276 OA
ATOM     17  H   LIG d   1      -1.465  77.916 116.195  0.00  0.00     0.149 HD
ENDBRANCH   6  13
BRANCH   5  18
ATOM     18  N   LIG d   1      -0.951  77.747 112.459  0.00  0.00     0.381 N 
ATOM     19  H   LIG d   1      -1.622  77.053 112.723  0.00  0.00    -0.090 HD
ATOM     20  H   LIG d   1      -0.032  77.357 112.573  0.00  0.00    -0.090 HD
ATOM     21  H   LIG d   1      -1.092  78.011 111.509  0.00  0.00    -0.090 HD
ENDBRANCH   5  18
BRANCH   3  22
ATOM     22  C   LIG d   1      -1.335  82.519 112.597  0.00  0.00     0.382 C 
ATOM     23  O   LIG d   1      -1.441  83.575 113.265  0.00  0.00    -0.241 OA
ATOM     24  O   LIG d   1      -0.979  82.581 111.405  0.00  0.00    -0.241 OA
ENDBRANCH   3  22
TORSDOF 7
ENDMDL
MODEL 3
REMARK VINA RESULT:      -4.3      0.956      1.630
REMARK  7 active torsions:
REMARK  status: ('A' for Active; 'I' for Inactive)
REMARK    1  A    between atoms: C_2  and  C_3 
REMARK    2  A    between atoms: C_3  and  O_6 
REMARK    3  A    between atoms: C_3  and  C_4 
REMARK    4  A    between atoms: C_7  and  O_6 
REMARK    5  A    between atoms: C_9  and  C_10 
REMARK    6  A    between atoms: N_15  and  C_14 
REMARK    7  A    between atoms: N_20  and  C_19 
REMARK       I    between atoms: C_22  and  N_20 
ROOT
ATOM      1  C   LIG d   1      -2.551  79.126 115.701  0.00  0.00     0.161 C 
ATOM      2  C   LIG d   1      -2.631  80.383 115.079  0.00  0.00     0.016 C 
ATOM      3  C   LIG d   1      -2.211  80.621 113.750  0.00  0.00     0.038 C 
ATOM      4  C   LIG d   1      -1.820  79.578 112.897  0.00  0.00     0.028 C 
ATOM      5  C   LIG d   1      -1.246  78.374 113.637  0.00  0.00    -0.047 C 
ATOM      6  C   LIG d   1      -2.232  77.953 114.751  0.00  0.00     0.091 C 
ENDROOT
BRANCH   1   7
ATOM      7  O   LIG d   1      -3.767  78.864 116.429  0.00  0.00    -0.368 OA
BRANCH   7   8
ATOM      8  C   LIG d   1      -4.327  79.983 117.159  0.00  0.00     0.119 C 
BRANCH   8   9
ATOM      9  C   LIG d   1      -3.637  80.029 118.537  0.00  0.00     0.028 C 
ATOM     10  C   LIG d   1      -3.797  81.394 119.228  0.00  0.00     0.006 C 
ENDBRANCH   8   9
BRANCH   8  11
ATOM     11  C   LIG d   1      -5.814  79.767 117.457  0.00  0.00     0.028 C 
ATOM     12  C   LIG d   1      -6.274  78.327 117.178  0.00  0.00     0.006 C 
ENDBRANCH   8  11
ENDBRANCH   7   8
ENDBRANCH   1   7
BRANCH   6  13
ATOM     13  N   LIG d   1      -1.708  76.835 115.578  0.00  0.00    -0.311 N 
ATOM     14  C   LIG d   1      -1.984  75.554 115.337  0.00  0.00     0.210 C 
ATOM     15  C   LIG d   1      -1.359  74.562 116.323  0.00  0.00     0.109 C 
ATOM     16  O   LIG d   1      -2.660  75.143 114.382  0.00  0.00    -0.276 OA
ATOM     17  H   LIG d   1      -1.125  77.076 116.355  0.00  0.00     0.149 HD
ENDBRANCH   6  13
BRANCH   5  18
ATOM     18  N   LIG d   1      -1.010  77.311 112.642  0.00  0.00     0.381 N 
ATOM     19  H   LIG d   1      -1.882  76.911 112.360  0.00  0.00    -0.090 HD
ATOM     20  H   LIG d   1      -0.453  76.589 113.064  0.00  0.00    -0.090 HD
ATOM     21  H   LIG d   1      -0.536  77.685 111.850  0.00  0.00    -0.090 HD
ENDBRANCH   5  18
BRANCH   3  22
ATOM     22  C   LIG d   1      -2.141  81.922 113.274  0.00  0.00     0.382 C 
ATOM     23  O   LIG d   1      -2.337  82.886 114.052  0.00  0.00    -0.241 OA
ATOM     24  O   LIG d   1      -1.929  82.142 112.066  0.00  0.00    -0.241 OA
ENDBRANCH   3  22
TORSDOF 7
ENDMDL
MODEL 4
REMARK VINA RESULT:      -4.3      4.030      6.934
REMARK  7 active torsions:
REMARK  status: ('A' for Active; 'I' for Inactive)
REMARK    1  A    between atoms: C_2  and  C_3 
REMARK    2  A    between atoms: C_3  and  O_6 
REMARK    3  A    between atoms: C_3  and  C_4 
REMARK    4  A    between atoms: C_7  and  O_6 
REMARK    5  A    between atoms: C_9  and  C_10 
REMARK    6  A    between atoms: N_15  and  C_14 
REMARK    7  A    between atoms: N_20  and  C_19 
REMARK       I    between atoms: C_22  and  N_20 
ROOT
ATOM      1  C   LIG d   1      -7.271  77.407 117.910  0.00  0.00     0.161 C 
ATOM      2  C   LIG d   1      -8.411  78.155 118.245  0.00  0.00     0.016 C 
ATOM      3  C   LIG d   1      -8.430  79.568 118.288  0.00  0.00     0.038 C 
ATOM      4  C   LIG d   1      -7.343  80.338 117.849  0.00  0.00     0.028 C 
ATOM      5  C   LIG d   1      -6.002  79.624 117.982  0.00  0.00    -0.047 C 
ATOM      6  C   LIG d   1      -6.107  78.231 117.320  0.00  0.00     0.091 C 
ENDROOT
BRANCH   1   7
ATOM      7  O   LIG d   1      -7.634  76.339 117.012  0.00  0.00    -0.368 OA
BRANCH   7   8
ATOM      8  C   LIG d   1      -7.547  74.997 117.551  0.00  0.00     0.119 C 
BRANCH   8   9
ATOM      9  C   LIG d   1      -6.636  74.180 116.614  0.00  0.00     0.028 C 
ATOM     10  C   LIG d   1      -6.215  74.974 115.366  0.00  0.00     0.006 C 
ENDBRANCH   8   9
BRANCH   8  11
ATOM     11  C   LIG d   1      -8.906  74.291 117.511  0.00  0.00     0.028 C 
ATOM     12  C   LIG d   1     -10.046  75.219 117.063  0.00  0.00     0.006 C 
ENDBRANCH   8  11
ENDBRANCH   7   8
ENDBRANCH   1   7
BRANCH   6  13
ATOM     13  N   LIG d   1      -4.864  77.432 117.479  0.00  0.00    -0.311 N 
ATOM     14  C   LIG d   1      -3.878  77.425 116.584  0.00  0.00     0.210 C 
ATOM     15  C   LIG d   1      -2.695  76.516 116.933  0.00  0.00     0.109 C 
ATOM     16  O   LIG d   1      -3.856  78.109 115.550  0.00  0.00    -0.276 OA
ATOM     17  H   LIG d   1      -4.785  76.871 118.305  0.00  0.00     0.149 HD
ENDBRANCH   6  13
BRANCH   5  18
ATOM     18  N   LIG d   1      -4.976  80.483 117.362  0.00  0.00     0.381 N 
ATOM     19  H   LIG d   1      -5.319  80.850 116.497  0.00  0.00    -0.090 HD
ATOM     20  H   LIG d   1      -4.161  79.928 117.168  0.00  0.00    -0.090 HD
ATOM     21  H   LIG d   1      -4.739  81.230 117.977  0.00  0.00    -0.090 HD
ENDBRANCH   5  18
BRANCH   3  22
ATOM     22  C   LIG d   1      -9.533  80.225 118.813  0.00  0.00     0.382 C 
ATOM     23  O   LIG d   1      -9.978  81.253 118.248  0.00  0.00    -0.241 OA
ATOM     24  O   LIG d   1     -10.060  79.829 119.870  0.00  0.00    -0.241 OA
ENDBRANCH   3  22
TORSDOF 7
ENDMDL
MODEL 5
REMARK VINA RESULT:      -4.2      3.513      6.730
REMARK  7 active torsions:
REMARK  status: ('A' for Active; 'I' for Inactive)
REMARK    1  A    between atoms: C_2  and  C_3 
REMARK    2  A    between atoms: C_3  and  O_6 
REMARK    3  A    between atoms: C_3  and  C_4 
REMARK    4  A    between atoms: C_7  and  O_6 
REMARK    5  A    between atoms: C_9  and  C_10 
REMARK    6  A    between atoms: N_15  and  C_14 
REMARK    7  A    between atoms: N_20  and  C_19 
REMARK       I    between atoms: C_22  and  N_20 
ROOT
ATOM      1  C   LIG d   1      -6.039  78.467 117.441  0.00  0.00     0.161 C 
ATOM      2  C   LIG d   1      -7.402  78.502 117.778  0.00  0.00     0.016 C 
ATOM      3  C   LIG d   1      -8.073  79.678 118.186  0.00  0.00     0.038 C 
ATOM      4  C   LIG d   1      -7.457  80.937 118.138  0.00  0.00     0.028 C 
ATOM      5  C   LIG d   1      -5.940  80.876 118.289  0.00  0.00    -0.047 C 
ATOM      6  C   LIG d   1      -5.377  79.851 117.277  0.00  0.00     0.091 C 
ENDROOT
BRANCH   1   7
ATOM      7  O   LIG d   1      -5.849  77.677 116.251  0.00  0.00    -0.368 OA
BRANCH   7   8
ATOM      8  C   LIG d   1      -5.266  76.365 116.443  0.00  0.00     0.119 C 
BRANCH   8   9
ATOM      9  C   LIG d   1      -4.156  76.193 115.388  0.00  0.00     0.028 C 
ATOM     10  C   LIG d   1      -4.562  75.228 114.260  0.00  0.00     0.006 C 
ENDBRANCH   8   9
BRANCH   8  11
ATOM     11  C   LIG d   1      -6.280  75.255 116.149  0.00  0.00     0.028 C 
ATOM     12  C   LIG d   1      -6.979  74.737 117.416  0.00  0.00     0.006 C 
ENDBRANCH   8  11
ENDBRANCH   7   8
ENDBRANCH   1   7
BRANCH   6  13
ATOM     13  N   LIG d   1      -3.909  79.667 117.415  0.00  0.00    -0.311 N 
ATOM     14  C   LIG d   1      -3.054  79.817 116.405  0.00  0.00     0.210 C 
ATOM     15  C   LIG d   1      -1.585  79.561 116.758  0.00  0.00     0.109 C 
ATOM     16  O   LIG d   1      -3.368  80.169 115.258  0.00  0.00    -0.276 OA
ATOM     17  H   LIG d   1      -3.564  79.412 118.319  0.00  0.00     0.149 HD
ENDBRANCH   6  13
BRANCH   5  18
ATOM     18  N   LIG d   1      -5.416  82.239 118.083  0.00  0.00     0.381 N 
ATOM     19  H   LIG d   1      -5.474  82.756 118.938  0.00  0.00    -0.090 HD
ATOM     20  H   LIG d   1      -5.981  82.704 117.394  0.00  0.00    -0.090 HD
ATOM     21  H   LIG d   1      -4.470  82.198 117.775  0.00  0.00    -0.090 HD
ENDBRANCH   5  18
BRANCH   3  22
ATOM     22  C   LIG d   1      -9.364  79.595 118.685  0.00  0.00     0.382 C 
ATOM     23  O   LIG d   1      -9.823  80.523 119.393  0.00  0.00    -0.241 OA
ATOM     24  O   LIG d   1     -10.060  78.584 118.472  0.00  0.00    -0.241 OA
ENDBRANCH   3  22
TORSDOF 7
ENDMDL
MODEL 6
REMARK VINA RESULT:      -4.1      3.910      6.203
REMARK  7 active torsions:
REMARK  status: ('A' for Active; 'I' for Inactive)
REMARK    1  A    between atoms: C_2  and  C_3 
REMARK    2  A    between atoms: C_3  and  O_6 
REMARK    3  A    between atoms: C_3  and  C_4 
REMARK    4  A    between atoms: C_7  and  O_6 
REMARK    5  A    between atoms: C_9  and  C_10 
REMARK    6  A    between atoms: N_15  and  C_14 
REMARK    7  A    between atoms: N_20  and  C_19 
REMARK       I    between atoms: C_22  and  N_20 
ROOT
ATOM      1  C   LIG d   1      -5.584  76.680 116.813  0.00  0.00     0.161 C 
ATOM      2  C   LIG d   1      -4.629  77.708 116.753  0.00  0.00     0.016 C 
ATOM      3  C   LIG d   1      -4.879  79.029 117.192  0.00  0.00     0.038 C 
ATOM      4  C   LIG d   1      -6.061  79.376 117.864  0.00  0.00     0.028 C 
ATOM      5  C   LIG d   1      -7.249  78.495 117.493  0.00  0.00    -0.047 C 
ATOM      6  C   LIG d   1      -6.841  77.012 117.644  0.00  0.00     0.091 C 
ENDROOT
BRANCH   1   7
ATOM      7  O   LIG d   1      -4.969  75.469 117.295  0.00  0.00    -0.368 OA
BRANCH   7   8
ATOM      8  C   LIG d   1      -4.717  74.443 116.304  0.00  0.00     0.119 C 
BRANCH   8   9
ATOM      9  C   LIG d   1      -3.276  74.636 115.794  0.00  0.00     0.028 C 
ATOM     10  C   LIG d   1      -2.241  74.599 116.932  0.00  0.00     0.006 C 
ENDBRANCH   8   9
BRANCH   8  11
ATOM     11  C   LIG d   1      -5.610  74.626 115.073  0.00  0.00     0.028 C 
ATOM     12  C   LIG d   1      -4.810  74.927 113.796  0.00  0.00     0.006 C 
ENDBRANCH   8  11
ENDBRANCH   7   8
ENDBRANCH   1   7
BRANCH   6  13
ATOM     13  N   LIG d   1      -7.919  76.081 117.221  0.00  0.00    -0.311 N 
ATOM     14  C   LIG d   1      -8.294  75.020 117.934  0.00  0.00     0.210 C 
ATOM     15  C   LIG d   1      -9.412  74.181 117.306  0.00  0.00     0.109 C 
ATOM     16  O   LIG d   1      -7.830  74.713 119.042  0.00  0.00    -0.276 OA
ATOM     17  H   LIG d   1      -8.371  76.273 116.348  0.00  0.00     0.149 HD
ENDBRANCH   6  13
BRANCH   5  18
ATOM     18  N   LIG d   1      -8.376  78.876 118.366  0.00  0.00     0.381 N 
ATOM     19  H   LIG d   1      -8.042  79.052 119.292  0.00  0.00    -0.090 HD
ATOM     20  H   LIG d   1      -9.029  78.113 118.406  0.00  0.00    -0.090 HD
ATOM     21  H   LIG d   1      -8.826  79.689 118.006  0.00  0.00    -0.090 HD
ENDBRANCH   5  18
BRANCH   3  22
ATOM     22  C   LIG d   1      -3.957  80.029 116.924  0.00  0.00     0.382 C 
ATOM     23  O   LIG d   1      -3.595  80.810 117.837  0.00  0.00    -0.241 OA
ATOM     24  O   LIG d   1      -3.515  80.187 115.770  0.00  0.00    -0.241 OA
ENDBRANCH   3  22
TORSDOF 7
ENDMDL
MODEL 7
REMARK VINA RESULT:      -4.1      2.139      4.848
REMARK  7 active torsions:
REMARK  status: ('A' for Active; 'I' for Inactive)
REMARK    1  A    between atoms: C_2  and  C_3 
REMARK    2  A    between atoms: C_3  and  O_6 
REMARK    3  A    between atoms: C_3  and  C_4 
REMARK    4  A    between atoms: C_7  and  O_6 
REMARK    5  A    between atoms: C_9  and  C_10 
REMARK    6  A    between atoms: N_15  and  C_14 
REMARK    7  A    between atoms: N_20  and  C_19 
REMARK       I    between atoms: C_22  and  N_20 
ROOT
ATOM      1  C   LIG d   1      -1.248  80.233 114.864  0.00  0.00     0.161 C 
ATOM      2  C   LIG d   1      -1.945  79.044 115.137  0.00  0.00     0.016 C 
ATOM      3  C   LIG d   1      -2.141  78.020 114.183  0.00  0.00     0.038 C 
ATOM      4  C   LIG d   1      -1.518  78.049 112.926  0.00  0.00     0.028 C 
ATOM      5  C   LIG d   1      -1.223  79.459 112.429  0.00  0.00    -0.047 C 
ATOM      6  C   LIG d   1      -0.467  80.233 113.533  0.00  0.00     0.091 C 
ENDROOT
BRANCH   1   7
ATOM      7  O   LIG d   1      -0.368  80.547 115.961  0.00  0.00    -0.368 OA
BRANCH   7   8
ATOM      8  C   LIG d   1      -0.759  81.668 116.791  0.00  0.00     0.119 C 
BRANCH   8   9
ATOM      9  C   LIG d   1      -1.248  81.100 118.137  0.00  0.00     0.028 C 
ATOM     10  C   LIG d   1      -2.782  81.065 118.237  0.00  0.00     0.006 C 
ENDBRANCH   8   9
BRANCH   8  11
ATOM     11  C   LIG d   1      -1.965  82.405 116.200  0.00  0.00     0.028 C 
ATOM     12  C   LIG d   1      -1.682  83.892 115.932  0.00  0.00     0.006 C 
ENDBRANCH   8  11
ENDBRANCH   7   8
ENDBRANCH   1   7
BRANCH   6  13
ATOM     13  N   LIG d   1      -0.213  81.649 113.161  0.00  0.00    -0.311 N 
ATOM     14  C   LIG d   1      -1.106  82.414 112.536  0.00  0.00     0.210 C 
ATOM     15  C   LIG d   1      -0.634  83.839 112.227  0.00  0.00     0.109 C 
ATOM     16  O   LIG d   1      -2.256  82.059 112.236  0.00  0.00    -0.276 OA
ATOM     17  H   LIG d   1       0.684  82.028 113.394  0.00  0.00     0.149 HD
ENDBRANCH   6  13
BRANCH   5  18
ATOM     18  N   LIG d   1      -0.452  79.338 111.177  0.00  0.00     0.381 N 
ATOM     19  H   LIG d   1      -0.341  80.241 110.759  0.00  0.00    -0.090 HD
ATOM     20  H   LIG d   1      -0.961  78.755 110.537  0.00  0.00    -0.090 HD
ATOM     21  H   LIG d   1       0.441  78.939 111.364  0.00  0.00    -0.090 HD
ENDBRANCH   5  18
BRANCH   3  22
ATOM     22  C   LIG d   1      -3.000  76.970 114.468  0.00  0.00     0.382 C 
ATOM     23  O   LIG d   1      -4.085  77.190 115.059  0.00  0.00    -0.241 OA
ATOM     24  O   LIG d   1      -2.684  75.799 114.182  0.00  0.00    -0.241 OA
ENDBRANCH   3  22
TORSDOF 7
ENDMDL
MODEL 8
REMARK VINA RESULT:      -3.9      3.471      7.086
REMARK  7 active torsions:
REMARK  status: ('A' for Active; 'I' for Inactive)
REMARK    1  A    between atoms: C_2  and  C_3 
REMARK    2  A    between atoms: C_3  and  O_6 
REMARK    3  A    between atoms: C_3  and  C_4 
REMARK    4  A    between atoms: C_7  and  O_6 
REMARK    5  A    between atoms: C_9  and  C_10 
REMARK    6  A    between atoms: N_15  and  C_14 
REMARK    7  A    between atoms: N_20  and  C_19 
REMARK       I    between atoms: C_22  and  N_20 
ROOT
ATOM      1  C   LIG d   1      -5.739  77.152 116.996  0.00  0.00     0.161 C 
ATOM      2  C   LIG d   1      -7.074  76.732 117.119  0.00  0.00     0.016 C 
ATOM      3  C   LIG d   1      -8.090  77.528 117.697  0.00  0.00     0.038 C 
ATOM      4  C   LIG d   1      -7.869  78.866 118.058  0.00  0.00     0.028 C 
ATOM      5  C   LIG d   1      -6.417  79.164 118.417  0.00  0.00    -0.047 C 
ATOM      6  C   LIG d   1      -5.503  78.650 117.282  0.00  0.00     0.091 C 
ENDROOT
BRANCH   1   7
ATOM      7  O   LIG d   1      -5.236  76.806 115.690  0.00  0.00    -0.368 OA
BRANCH   7   8
ATOM      8  C   LIG d   1      -4.446  75.594 115.612  0.00  0.00     0.119 C 
BRANCH   8   9
ATOM      9  C   LIG d   1      -2.964  76.010 115.549  0.00  0.00     0.028 C 
ATOM     10  C   LIG d   1      -2.019  74.802 115.444  0.00  0.00     0.006 C 
ENDBRANCH   8   9
BRANCH   8  11
ATOM     11  C   LIG d   1      -4.712  74.839 114.306  0.00  0.00     0.028 C 
ATOM     12  C   LIG d   1      -5.306  75.737 113.209  0.00  0.00     0.006 C 
ENDBRANCH   8  11
ENDBRANCH   7   8
ENDBRANCH   1   7
BRANCH   6  13
ATOM     13  N   LIG d   1      -4.060  78.826 117.592  0.00  0.00    -0.311 N 
ATOM     14  C   LIG d   1      -3.232  79.548 116.840  0.00  0.00     0.210 C 
ATOM     15  C   LIG d   1      -1.780  79.584 117.328  0.00  0.00     0.109 C 
ATOM     16  O   LIG d   1      -3.568  80.190 115.833  0.00  0.00    -0.276 OA
ATOM     17  H   LIG d   1      -3.709  78.366 118.409  0.00  0.00     0.149 HD
ENDBRANCH   6  13
BRANCH   5  18
ATOM     18  N   LIG d   1      -6.303  80.618 118.638  0.00  0.00     0.381 N 
ATOM     19  H   LIG d   1      -5.862  81.047 117.849  0.00  0.00    -0.090 HD
ATOM     20  H   LIG d   1      -5.728  80.780 119.446  0.00  0.00    -0.090 HD
ATOM     21  H   LIG d   1      -7.206  81.014 118.779  0.00  0.00    -0.090 HD
ENDBRANCH   5  18
BRANCH   3  22
ATOM     22  C   LIG d   1      -9.333  76.973 117.958  0.00  0.00     0.382 C 
ATOM     23  O   LIG d   1      -9.755  76.022 117.256  0.00  0.00    -0.241 OA
ATOM     24  O   LIG d   1     -10.058  77.440 118.856  0.00  0.00    -0.241 OA
ENDBRANCH   3  22
TORSDOF 7
ENDMDL
MODEL 9
REMARK VINA RESULT:      -3.8      3.784      5.581
REMARK  7 active torsions:
REMARK  status: ('A' for Active; 'I' for Inactive)
REMARK    1  A    between atoms: C_2  and  C_3 
REMARK    2  A    between atoms: C_3  and  O_6 
REMARK    3  A    between atoms: C_3  and  C_4 
REMARK    4  A    between atoms: C_7  and  O_6 
REMARK    5  A    between atoms: C_9  and  C_10 
REMARK    6  A    between atoms: N_15  and  C_14 
REMARK    7  A    between atoms: N_20  and  C_19 
REMARK       I    between atoms: C_22  and  N_20 
ROOT
ATOM      1  C   LIG d   1      -5.826  77.326 117.030  0.00  0.00     0.161 C 
ATOM      2  C   LIG d   1      -6.746  78.358 117.278  0.00  0.00     0.016 C 
ATOM      3  C   LIG d   1      -6.365  79.686 117.575  0.00  0.00     0.038 C 
ATOM      4  C   LIG d   1      -5.030  80.110 117.495  0.00  0.00     0.028 C 
ATOM      5  C   LIG d   1      -4.024  78.991 117.742  0.00  0.00    -0.047 C 
ATOM      6  C   LIG d   1      -4.369  77.794 116.828  0.00  0.00     0.091 C 
ENDROOT
BRANCH   1   7
ATOM      7  O   LIG d   1      -6.262  76.544 115.901  0.00  0.00    -0.368 OA
BRANCH   7   8
ATOM      8  C   LIG d   1      -6.644  75.175 116.183  0.00  0.00     0.119 C 
BRANCH   8   9
ATOM      9  C   LIG d   1      -6.482  74.952 117.699  0.00  0.00     0.028 C 
ATOM     10  C   LIG d   1      -7.714  74.281 118.328  0.00  0.00     0.006 C 
ENDBRANCH   8   9
BRANCH   8  11
ATOM     11  C   LIG d   1      -5.683  74.181 115.523  0.00  0.00     0.028 C 
ATOM     12  C   LIG d   1      -4.982  74.763 114.285  0.00  0.00     0.006 C 
ENDBRANCH   8  11
ENDBRANCH   7   8
ENDBRANCH   1   7
BRANCH   6  13
ATOM     13  N   LIG d   1      -3.484  76.624 117.067  0.00  0.00    -0.311 N 
ATOM     14  C   LIG d   1      -2.397  76.367 116.342  0.00  0.00     0.210 C 
ATOM     15  C   LIG d   1      -1.637  75.099 116.743  0.00  0.00     0.109 C 
ATOM     16  O   LIG d   1      -1.972  77.086 115.426  0.00  0.00    -0.276 OA
ATOM     17  H   LIG d   1      -3.738  76.005 117.812  0.00  0.00     0.149 HD
ENDBRANCH   6  13
BRANCH   5  18
ATOM     18  N   LIG d   1      -2.677  79.540 117.492  0.00  0.00     0.381 N 
ATOM     19  H   LIG d   1      -2.208  79.696 118.362  0.00  0.00    -0.090 HD
ATOM     20  H   LIG d   1      -2.768  80.422 117.020  0.00  0.00    -0.090 HD
ATOM     21  H   LIG d   1      -2.150  78.907 116.931  0.00  0.00    -0.090 HD
ENDBRANCH   5  18
BRANCH   3  22
ATOM     22  C   LIG d   1      -7.321  80.598 117.997  0.00  0.00     0.382 C 
ATOM     23  O   LIG d   1      -7.662  80.635 119.203  0.00  0.00    -0.241 OA
ATOM     24  O   LIG d   1      -7.878  81.353 117.178  0.00  0.00    -0.241 OA
ENDBRANCH   3  22
TORSDOF 7
ENDMDL
