MODEL 1
REMARK VINA RESULT:      -5.6      0.000      0.000
REMARK  7 active torsions:
REMARK  status: ('A' for Active; 'I' for Inactive)
REMARK    1  A    between atoms: C_2  and  C_3 
REMARK    2  A    between atoms: C_3  and  O_6 
REMARK    3  A    between atoms: C_3  and  C_4 
REMARK    4  A    between atoms: C_7  and  O_6 
REMARK    5  A    between atoms: C_9  and  C_10 
REMARK    6  A    between atoms: N_15  and  C_14 
REMARK    7  A    between atoms: N_20  and  C_19 
REMARK       I    between atoms: C_22  and  N_20 
ROOT
ATOM      1  C   LIG d   1      -2.455  79.788 114.525  0.00  0.00     0.161 C 
ATOM      2  C   LIG d   1      -1.895  80.957 113.982  0.00  0.00     0.016 C 
ATOM      3  C   LIG d   1      -1.333  81.021 112.686  0.00  0.00     0.038 C 
ATOM      4  C   LIG d   1      -1.431  79.952 111.782  0.00  0.00     0.028 C 
ATOM      5  C   LIG d   1      -1.538  78.592 112.462  0.00  0.00    -0.047 C 
ATOM      6  C   LIG d   1      -2.670  78.644 113.513  0.00  0.00     0.091 C 
ENDROOT
BRANCH   1   7
ATOM      7  O   LIG d   1      -3.691  80.105 115.194  0.00  0.00    -0.368 OA
BRANCH   7   8
ATOM      8  C   LIG d   1      -3.790  79.693 116.580  0.00  0.00     0.119 C 
BRANCH   8   9
ATOM      9  C   LIG d   1      -5.031  78.788 116.707  0.00  0.00     0.028 C 
ATOM     10  C   LIG d   1      -4.790  77.591 117.642  0.00  0.00     0.006 C 
ENDBRANCH   8   9
BRANCH   8  11
ATOM     11  C   LIG d   1      -4.064  80.888 117.498  0.00  0.00     0.028 C 
ATOM     12  C   LIG d   1      -5.537  81.327 117.481  0.00  0.00     0.006 C 
ENDBRANCH   8  11
ENDBRANCH   7   8
ENDBRANCH   1   7
BRANCH   6  13
ATOM     13  N   LIG d   1      -2.786  77.378 114.284  0.00  0.00    -0.311 N 
ATOM     14  C   LIG d   1      -3.693  76.439 114.019  0.00  0.00     0.210 C 
ATOM     15  C   LIG d   1      -3.653  75.221 114.947  0.00  0.00     0.109 C 
ATOM     16  O   LIG d   1      -4.505  76.484 113.082  0.00  0.00    -0.276 OA
ATOM     17  H   LIG d   1      -2.146  77.245 115.042  0.00  0.00     0.149 HD
ENDBRANCH   6  13
BRANCH   5  18
ATOM     18  N   LIG d   1      -1.771  77.585 111.410  0.00  0.00     0.381 N 
ATOM     19  H   LIG d   1      -2.697  77.685 111.045  0.00  0.00    -0.090 HD
ATOM     20  H   LIG d   1      -1.688  76.668 111.813  0.00  0.00    -0.090 HD
ATOM     21  H   LIG d   1      -1.104  77.695 110.678  0.00  0.00    -0.090 HD
ENDBRANCH   5  18
BRANCH   3  22
ATOM     22  C   LIG d   1      -0.630  82.151 112.297  0.00  0.00     0.382 C 
ATOM     23  O   LIG d   1      -1.048  82.852 111.343  0.00  0.00    -0.241 OA
ATOM     24  O   LIG d   1       0.440  82.454 112.858  0.00  0.00    -0.241 OA
ENDBRANCH   3  22
TORSDOF 7
ENDMDL
MODEL 2
REMARK VINA RESULT:      -5.2      1.994      2.423
REMARK  7 active torsions:
REMARK  status: ('A' for Active; 'I' for Inactive)
REMARK    1  A    between atoms: C_2  and  C_3 
REMARK    2  A    between atoms: C_3  and  O_6 
REMARK    3  A    between atoms: C_3  and  C_4 
REMARK    4  A    between atoms: C_7  and  O_6 
REMARK    5  A    between atoms: C_9  and  C_10 
REMARK    6  A    between atoms: N_15  and  C_14 
REMARK    7  A    between atoms: N_20  and  C_19 
REMARK       I    between atoms: C_22  and  N_20 
ROOT
ATOM      1  C   LIG d   1      -2.783  78.820 115.808  0.00  0.00     0.161 C 
ATOM      2  C   LIG d   1      -2.924  79.935 114.965  0.00  0.00     0.016 C 
ATOM      3  C   LIG d   1      -2.375  80.002 113.664  0.00  0.00     0.038 C 
ATOM      4  C   LIG d   1      -1.771  78.891 113.056  0.00  0.00     0.028 C 
ATOM      5  C   LIG d   1      -1.162  77.912 114.054  0.00  0.00    -0.047 C 
ATOM      6  C   LIG d   1      -2.223  77.557 115.120  0.00  0.00     0.091 C 
ENDROOT
BRANCH   1   7
ATOM      7  O   LIG d   1      -4.042  78.526 116.445  0.00  0.00    -0.368 OA
BRANCH   7   8
ATOM      8  C   LIG d   1      -4.767  79.662 116.977  0.00  0.00     0.119 C 
BRANCH   8   9
ATOM      9  C   LIG d   1      -4.281  79.885 118.423  0.00  0.00     0.028 C 
ATOM     10  C   LIG d   1      -3.476  81.186 118.577  0.00  0.00     0.006 C 
ENDBRANCH   8   9
BRANCH   8  11
ATOM     11  C   LIG d   1      -6.264  79.362 117.094  0.00  0.00     0.028 C 
ATOM     12  C   LIG d   1      -7.080  80.576 117.566  0.00  0.00     0.006 C 
ENDBRANCH   8  11
ENDBRANCH   7   8
ENDBRANCH   1   7
BRANCH   6  13
ATOM     13  N   LIG d   1      -1.683  76.668 116.183  0.00  0.00    -0.311 N 
ATOM     14  C   LIG d   1      -1.677  75.340 116.094  0.00  0.00     0.210 C 
ATOM     15  C   LIG d   1      -1.093  74.613 117.309  0.00  0.00     0.109 C 
ATOM     16  O   LIG d   1      -2.070  74.695 115.110  0.00  0.00    -0.276 OA
ATOM     17  H   LIG d   1      -1.316  77.109 117.003  0.00  0.00     0.149 HD
ENDBRANCH   6  13
BRANCH   5  18
ATOM     18  N   LIG d   1      -0.690  76.738 113.294  0.00  0.00     0.381 N 
ATOM     19  H   LIG d   1      -1.381  76.469 112.623  0.00  0.00    -0.090 HD
ATOM     20  H   LIG d   1      -0.553  75.973 113.931  0.00  0.00    -0.090 HD
ATOM     21  H   LIG d   1       0.166  76.953 112.833  0.00  0.00    -0.090 HD
ENDBRANCH   5  18
BRANCH   3  22
ATOM     22  C   LIG d   1      -2.392  81.204 112.972  0.00  0.00     0.382 C 
ATOM     23  O   LIG d   1      -3.474  81.655 112.527  0.00  0.00    -0.241 OA
ATOM     24  O   LIG d   1      -1.332  81.819 112.749  0.00  0.00    -0.241 OA
ENDBRANCH   3  22
TORSDOF 7
ENDMDL
MODEL 3
REMARK VINA RESULT:      -5.0      1.269      1.969
REMARK  7 active torsions:
REMARK  status: ('A' for Active; 'I' for Inactive)
REMARK    1  A    between atoms: C_2  and  C_3 
REMARK    2  A    between atoms: C_3  and  O_6 
REMARK    3  A    between atoms: C_3  and  C_4 
REMARK    4  A    between atoms: C_7  and  O_6 
REMARK    5  A    between atoms: C_9  and  C_10 
REMARK    6  A    between atoms: N_15  and  C_14 
REMARK    7  A    between atoms: N_20  and  C_19 
REMARK       I    between atoms: C_22  and  N_20 
ROOT
ATOM      1  C   LIG d   1      -2.010  78.392 115.309  0.00  0.00     0.161 C 
ATOM      2  C   LIG d   1      -1.183  79.492 115.031  0.00  0.00     0.016 C 
ATOM      3  C   LIG d   1      -1.003  80.022 113.733  0.00  0.00     0.038 C 
ATOM      4  C   LIG d   1      -1.761  79.579 112.639  0.00  0.00     0.028 C 
ATOM      5  C   LIG d   1      -2.236  78.136 112.777  0.00  0.00    -0.047 C 
ATOM      6  C   LIG d   1      -2.931  77.965 114.147  0.00  0.00     0.091 C 
ENDROOT
BRANCH   1   7
ATOM      7  O   LIG d   1      -2.788  78.652 116.495  0.00  0.00    -0.368 OA
BRANCH   7   8
ATOM      8  C   LIG d   1      -4.021  79.386 116.300  0.00  0.00     0.119 C 
BRANCH   8   9
ATOM      9  C   LIG d   1      -3.916  80.692 117.111  0.00  0.00     0.028 C 
ATOM     10  C   LIG d   1      -5.293  81.239 117.525  0.00  0.00     0.006 C 
ENDBRANCH   8   9
BRANCH   8  11
ATOM     11  C   LIG d   1      -5.217  78.635 116.894  0.00  0.00     0.028 C 
ATOM     12  C   LIG d   1      -4.804  77.368 117.659  0.00  0.00     0.006 C 
ENDBRANCH   8  11
ENDBRANCH   7   8
ENDBRANCH   1   7
BRANCH   6  13
ATOM     13  N   LIG d   1      -3.352  76.562 114.398  0.00  0.00    -0.311 N 
ATOM     14  C   LIG d   1      -4.580  76.110 114.151  0.00  0.00     0.210 C 
ATOM     15  C   LIG d   1      -4.809  74.636 114.500  0.00  0.00     0.109 C 
ATOM     16  O   LIG d   1      -5.493  76.781 113.645  0.00  0.00    -0.276 OA
ATOM     17  H   LIG d   1      -2.665  75.941 114.778  0.00  0.00     0.149 HD
ENDBRANCH   6  13
BRANCH   5  18
ATOM     18  N   LIG d   1      -3.128  77.850 111.637  0.00  0.00     0.381 N 
ATOM     19  H   LIG d   1      -2.757  78.264 110.805  0.00  0.00    -0.090 HD
ATOM     20  H   LIG d   1      -4.028  78.258 111.818  0.00  0.00    -0.090 HD
ATOM     21  H   LIG d   1      -3.219  76.866 111.514  0.00  0.00    -0.090 HD
ENDBRANCH   5  18
BRANCH   3  22
ATOM     22  C   LIG d   1      -0.026  80.981 113.511  0.00  0.00     0.382 C 
ATOM     23  O   LIG d   1       0.429  81.157 112.355  0.00  0.00    -0.241 OA
ATOM     24  O   LIG d   1       0.439  81.641 114.460  0.00  0.00    -0.241 OA
ENDBRANCH   3  22
TORSDOF 7
ENDMDL
MODEL 4
REMARK VINA RESULT:      -5.0      2.254      5.266
REMARK  7 active torsions:
REMARK  status: ('A' for Active; 'I' for Inactive)
REMARK    1  A    between atoms: C_2  and  C_3 
REMARK    2  A    between atoms: C_3  and  O_6 
REMARK    3  A    between atoms: C_3  and  C_4 
REMARK    4  A    between atoms: C_7  and  O_6 
REMARK    5  A    between atoms: C_9  and  C_10 
REMARK    6  A    between atoms: N_15  and  C_14 
REMARK    7  A    between atoms: N_20  and  C_19 
REMARK       I    between atoms: C_22  and  N_20 
ROOT
ATOM      1  C   LIG d   1      -3.248  78.330 114.634  0.00  0.00     0.161 C 
ATOM      2  C   LIG d   1      -4.062  77.212 114.881  0.00  0.00     0.016 C 
ATOM      3  C   LIG d   1      -3.555  75.905 115.063  0.00  0.00     0.038 C 
ATOM      4  C   LIG d   1      -2.179  75.651 115.161  0.00  0.00     0.028 C 
ATOM      5  C   LIG d   1      -1.321  76.667 114.415  0.00  0.00    -0.047 C 
ATOM      6  C   LIG d   1      -1.739  78.091 114.848  0.00  0.00     0.091 C 
ENDROOT
BRANCH   1   7
ATOM      7  O   LIG d   1      -3.697  79.446 115.428  0.00  0.00    -0.368 OA
BRANCH   7   8
ATOM      8  C   LIG d   1      -4.272  79.120 116.718  0.00  0.00     0.119 C 
BRANCH   8   9
ATOM      9  C   LIG d   1      -5.330  80.193 117.037  0.00  0.00     0.028 C 
ATOM     10  C   LIG d   1      -4.844  81.203 118.090  0.00  0.00     0.006 C 
ENDBRANCH   8   9
BRANCH   8  11
ATOM     11  C   LIG d   1      -3.231  79.231 117.836  0.00  0.00     0.028 C 
ATOM     12  C   LIG d   1      -2.819  77.864 118.405  0.00  0.00     0.006 C 
ENDBRANCH   8  11
ENDBRANCH   7   8
ENDBRANCH   1   7
BRANCH   6  13
ATOM     13  N   LIG d   1      -1.006  79.148 114.103  0.00  0.00    -0.311 N 
ATOM     14  C   LIG d   1      -0.488  80.229 114.684  0.00  0.00     0.210 C 
ATOM     15  C   LIG d   1       0.210  81.204 113.731  0.00  0.00     0.109 C 
ATOM     16  O   LIG d   1      -0.512  80.457 115.903  0.00  0.00    -0.276 OA
ATOM     17  H   LIG d   1      -0.913  79.028 113.114  0.00  0.00     0.149 HD
ENDBRANCH   6  13
BRANCH   5  18
ATOM     18  N   LIG d   1       0.091  76.364 114.715  0.00  0.00     0.381 N 
ATOM     19  H   LIG d   1       0.547  76.024 113.892  0.00  0.00    -0.090 HD
ATOM     20  H   LIG d   1       0.127  75.644 115.415  0.00  0.00    -0.090 HD
ATOM     21  H   LIG d   1       0.553  77.182 115.046  0.00  0.00    -0.090 HD
ENDBRANCH   5  18
BRANCH   3  22
ATOM     22  C   LIG d   1      -4.428  74.829 115.109  0.00  0.00     0.382 C 
ATOM     23  O   LIG d   1      -4.679  74.180 114.064  0.00  0.00    -0.241 OA
ATOM     24  O   LIG d   1      -5.002  74.527 116.172  0.00  0.00    -0.241 OA
ENDBRANCH   3  22
TORSDOF 7
ENDMDL
MODEL 5
REMARK VINA RESULT:      -4.9      2.764      4.308
REMARK  7 active torsions:
REMARK  status: ('A' for Active; 'I' for Inactive)
REMARK    1  A    between atoms: C_2  and  C_3 
REMARK    2  A    between atoms: C_3  and  O_6 
REMARK    3  A    between atoms: C_3  and  C_4 
REMARK    4  A    between atoms: C_7  and  O_6 
REMARK    5  A    between atoms: C_9  and  C_10 
REMARK    6  A    between atoms: N_15  and  C_14 
REMARK    7  A    between atoms: N_20  and  C_19 
REMARK       I    between atoms: C_22  and  N_20 
ROOT
ATOM      1  C   LIG d   1      -2.487  78.378 115.195  0.00  0.00     0.161 C 
ATOM      2  C   LIG d   1      -2.635  79.129 114.017  0.00  0.00     0.016 C 
ATOM      3  C   LIG d   1      -1.833  80.251 113.704  0.00  0.00     0.038 C 
ATOM      4  C   LIG d   1      -0.722  80.609 114.482  0.00  0.00     0.028 C 
ATOM      5  C   LIG d   1      -0.844  80.186 115.942  0.00  0.00    -0.047 C 
ATOM      6  C   LIG d   1      -1.208  78.685 116.002  0.00  0.00     0.091 C 
ENDROOT
BRANCH   1   7
ATOM      7  O   LIG d   1      -2.560  76.971 114.889  0.00  0.00    -0.368 OA
BRANCH   7   8
ATOM      8  C   LIG d   1      -3.619  76.231 115.546  0.00  0.00     0.119 C 
BRANCH   8   9
ATOM      9  C   LIG d   1      -2.967  75.039 116.274  0.00  0.00     0.028 C 
ATOM     10  C   LIG d   1      -1.584  74.686 115.700  0.00  0.00     0.006 C 
ENDBRANCH   8   9
BRANCH   8  11
ATOM     11  C   LIG d   1      -4.578  75.608 114.527  0.00  0.00     0.028 C 
ATOM     12  C   LIG d   1      -5.291  74.358 115.067  0.00  0.00     0.006 C 
ENDBRANCH   8  11
ENDBRANCH   7   8
ENDBRANCH   1   7
BRANCH   6  13
ATOM     13  N   LIG d   1      -1.429  78.210 117.393  0.00  0.00    -0.311 N 
ATOM     14  C   LIG d   1      -0.616  77.359 118.015  0.00  0.00     0.210 C 
ATOM     15  C   LIG d   1      -1.038  76.984 119.438  0.00  0.00     0.109 C 
ATOM     16  O   LIG d   1       0.433  76.904 117.534  0.00  0.00    -0.276 OA
ATOM     17  H   LIG d   1      -2.241  78.554 117.868  0.00  0.00     0.149 HD
ENDBRANCH   6  13
BRANCH   5  18
ATOM     18  N   LIG d   1       0.437  80.497 116.605  0.00  0.00     0.381 N 
ATOM     19  H   LIG d   1       0.491  81.478 116.794  0.00  0.00    -0.090 HD
ATOM     20  H   LIG d   1       1.190  80.253 115.986  0.00  0.00    -0.090 HD
ATOM     21  H   LIG d   1       0.515  79.982 117.454  0.00  0.00    -0.090 HD
ENDBRANCH   5  18
BRANCH   3  22
ATOM     22  C   LIG d   1      -2.165  81.053 112.622  0.00  0.00     0.382 C 
ATOM     23  O   LIG d   1      -1.277  81.410 111.811  0.00  0.00    -0.241 OA
ATOM     24  O   LIG d   1      -3.332  81.460 112.472  0.00  0.00    -0.241 OA
ENDBRANCH   3  22
TORSDOF 7
ENDMDL
MODEL 6
REMARK VINA RESULT:      -4.8      2.889      5.405
REMARK  7 active torsions:
REMARK  status: ('A' for Active; 'I' for Inactive)
REMARK    1  A    between atoms: C_2  and  C_3 
REMARK    2  A    between atoms: C_3  and  O_6 
REMARK    3  A    between atoms: C_3  and  C_4 
REMARK    4  A    between atoms: C_7  and  O_6 
REMARK    5  A    between atoms: C_9  and  C_10 
REMARK    6  A    between atoms: N_15  and  C_14 
REMARK    7  A    between atoms: N_20  and  C_19 
REMARK       I    between atoms: C_22  and  N_20 
ROOT
ATOM      1  C   LIG d   1      -2.606  76.375 114.574  0.00  0.00     0.161 C 
ATOM      2  C   LIG d   1      -3.565  76.816 113.647  0.00  0.00     0.016 C 
ATOM      3  C   LIG d   1      -4.923  76.424 113.685  0.00  0.00     0.038 C 
ATOM      4  C   LIG d   1      -5.450  75.680 114.751  0.00  0.00     0.028 C 
ATOM      5  C   LIG d   1      -4.417  74.794 115.440  0.00  0.00    -0.047 C 
ATOM      6  C   LIG d   1      -3.185  75.652 115.808  0.00  0.00     0.091 C 
ENDROOT
BRANCH   1   7
ATOM      7  O   LIG d   1      -1.779  77.482 114.984  0.00  0.00    -0.368 OA
BRANCH   7   8
ATOM      8  C   LIG d   1      -2.228  78.798 114.579  0.00  0.00     0.119 C 
BRANCH   8   9
ATOM      9  C   LIG d   1      -1.118  79.418 113.707  0.00  0.00     0.028 C 
ATOM     10  C   LIG d   1      -1.612  80.633 112.904  0.00  0.00     0.006 C 
ENDBRANCH   8   9
BRANCH   8  11
ATOM     11  C   LIG d   1      -2.368  79.735 115.782  0.00  0.00     0.028 C 
ATOM     12  C   LIG d   1      -3.688  79.532 116.544  0.00  0.00     0.006 C 
ENDBRANCH   8  11
ENDBRANCH   7   8
ENDBRANCH   1   7
BRANCH   6  13
ATOM     13  N   LIG d   1      -2.092  74.845 116.410  0.00  0.00    -0.311 N 
ATOM     14  C   LIG d   1      -1.389  75.239 117.470  0.00  0.00     0.210 C 
ATOM     15  C   LIG d   1      -0.293  74.266 117.918  0.00  0.00     0.109 C 
ATOM     16  O   LIG d   1      -1.589  76.287 118.102  0.00  0.00    -0.276 OA
ATOM     17  H   LIG d   1      -1.883  73.966 115.979  0.00  0.00     0.149 HD
ENDBRANCH   6  13
BRANCH   5  18
ATOM     18  N   LIG d   1      -5.067  74.181 116.614  0.00  0.00     0.381 N 
ATOM     19  H   LIG d   1      -4.802  73.219 116.685  0.00  0.00    -0.090 HD
ATOM     20  H   LIG d   1      -6.064  74.225 116.494  0.00  0.00    -0.090 HD
ATOM     21  H   LIG d   1      -4.803  74.668 117.442  0.00  0.00    -0.090 HD
ENDBRANCH   5  18
BRANCH   3  22
ATOM     22  C   LIG d   1      -5.761  76.745 112.628  0.00  0.00     0.382 C 
ATOM     23  O   LIG d   1      -5.275  77.120 111.534  0.00  0.00    -0.241 OA
ATOM     24  O   LIG d   1      -6.998  76.706 112.769  0.00  0.00    -0.241 OA
ENDBRANCH   3  22
TORSDOF 7
ENDMDL
MODEL 7
REMARK VINA RESULT:      -4.7      2.299      5.242
REMARK  7 active torsions:
REMARK  status: ('A' for Active; 'I' for Inactive)
REMARK    1  A    between atoms: C_2  and  C_3 
REMARK    2  A    between atoms: C_3  and  O_6 
REMARK    3  A    between atoms: C_3  and  C_4 
REMARK    4  A    between atoms: C_7  and  O_6 
REMARK    5  A    between atoms: C_9  and  C_10 
REMARK    6  A    between atoms: N_15  and  C_14 
REMARK    7  A    between atoms: N_20  and  C_19 
REMARK       I    between atoms: C_22  and  N_20 
ROOT
ATOM      1  C   LIG d   1      -2.217  80.133 114.552  0.00  0.00     0.161 C 
ATOM      2  C   LIG d   1      -2.851  78.938 114.931  0.00  0.00     0.016 C 
ATOM      3  C   LIG d   1      -3.103  77.873 114.036  0.00  0.00     0.038 C 
ATOM      4  C   LIG d   1      -2.599  77.870 112.727  0.00  0.00     0.028 C 
ATOM      5  C   LIG d   1      -2.392  79.269 112.154  0.00  0.00    -0.047 C 
ATOM      6  C   LIG d   1      -1.562  80.103 113.156  0.00  0.00     0.091 C 
ENDROOT
BRANCH   1   7
ATOM      7  O   LIG d   1      -1.250  80.511 115.552  0.00  0.00    -0.368 OA
BRANCH   7   8
ATOM      8  C   LIG d   1      -1.172  79.657 116.719  0.00  0.00     0.119 C 
BRANCH   8   9
ATOM      9  C   LIG d   1      -1.278  80.561 117.963  0.00  0.00     0.028 C 
ATOM     10  C   LIG d   1      -0.199  81.657 117.985  0.00  0.00     0.006 C 
ENDBRANCH   8   9
BRANCH   8  11
ATOM     11  C   LIG d   1       0.198  78.980 116.825  0.00  0.00     0.028 C 
ATOM     12  C   LIG d   1       0.133  77.463 116.591  0.00  0.00     0.006 C 
ENDBRANCH   8  11
ENDBRANCH   7   8
ENDBRANCH   1   7
BRANCH   6  13
ATOM     13  N   LIG d   1      -1.385  81.510 112.712  0.00  0.00    -0.311 N 
ATOM     14  C   LIG d   1      -0.404  81.906 111.902  0.00  0.00     0.210 C 
ATOM     15  C   LIG d   1      -0.393  83.404 111.584  0.00  0.00     0.109 C 
ATOM     16  O   LIG d   1       0.437  81.152 111.390  0.00  0.00    -0.276 OA
ATOM     17  H   LIG d   1      -2.043  82.183 113.055  0.00  0.00     0.149 HD
ENDBRANCH   6  13
BRANCH   5  18
ATOM     18  N   LIG d   1      -1.736  79.120 110.841  0.00  0.00     0.381 N 
ATOM     19  H   LIG d   1      -2.060  78.287 110.393  0.00  0.00    -0.090 HD
ATOM     20  H   LIG d   1      -0.744  79.038 110.981  0.00  0.00    -0.090 HD
ATOM     21  H   LIG d   1      -1.933  79.912 110.270  0.00  0.00    -0.090 HD
ENDBRANCH   5  18
BRANCH   3  22
ATOM     22  C   LIG d   1      -3.901  76.812 114.437  0.00  0.00     0.382 C 
ATOM     23  O   LIG d   1      -5.062  77.027 114.860  0.00  0.00    -0.241 OA
ATOM     24  O   LIG d   1      -3.458  75.648 114.422  0.00  0.00    -0.241 OA
ENDBRANCH   3  22
TORSDOF 7
ENDMDL
MODEL 8
REMARK VINA RESULT:      -4.6      2.751      4.296
REMARK  7 active torsions:
REMARK  status: ('A' for Active; 'I' for Inactive)
REMARK    1  A    between atoms: C_2  and  C_3 
REMARK    2  A    between atoms: C_3  and  O_6 
REMARK    3  A    between atoms: C_3  and  C_4 
REMARK    4  A    between atoms: C_7  and  O_6 
REMARK    5  A    between atoms: C_9  and  C_10 
REMARK    6  A    between atoms: N_15  and  C_14 
REMARK    7  A    between atoms: N_20  and  C_19 
REMARK       I    between atoms: C_22  and  N_20 
ROOT
ATOM      1  C   LIG d   1      -2.120  77.977 114.656  0.00  0.00     0.161 C 
ATOM      2  C   LIG d   1      -2.024  78.634 113.418  0.00  0.00     0.016 C 
ATOM      3  C   LIG d   1      -1.333  79.853 113.236  0.00  0.00     0.038 C 
ATOM      4  C   LIG d   1      -0.557  80.425 114.256  0.00  0.00     0.028 C 
ATOM      5  C   LIG d   1      -1.036  80.063 115.657  0.00  0.00    -0.047 C 
ATOM      6  C   LIG d   1      -1.187  78.527 115.755  0.00  0.00     0.091 C 
ENDROOT
BRANCH   1   7
ATOM      7  O   LIG d   1      -1.903  76.563 114.477  0.00  0.00    -0.368 OA
BRANCH   7   8
ATOM      8  C   LIG d   1      -3.029  75.702 114.779  0.00  0.00     0.119 C 
BRANCH   8   9
ATOM      9  C   LIG d   1      -4.254  76.607 115.013  0.00  0.00     0.028 C 
ATOM     10  C   LIG d   1      -5.519  76.072 114.322  0.00  0.00     0.006 C 
ENDBRANCH   8   9
BRANCH   8  11
ATOM     11  C   LIG d   1      -2.819  74.953 116.098  0.00  0.00     0.028 C 
ATOM     12  C   LIG d   1      -1.359  74.522 116.313  0.00  0.00     0.006 C 
ENDBRANCH   8  11
ENDBRANCH   7   8
ENDBRANCH   1   7
BRANCH   6  13
ATOM     13  N   LIG d   1      -1.733  78.094 117.067  0.00  0.00    -0.311 N 
ATOM     14  C   LIG d   1      -0.968  77.724 118.093  0.00  0.00     0.210 C 
ATOM     15  C   LIG d   1      -1.734  77.294 119.348  0.00  0.00     0.109 C 
ATOM     16  O   LIG d   1       0.272  77.741 118.093  0.00  0.00    -0.276 OA
ATOM     17  H   LIG d   1      -2.730  78.079 117.165  0.00  0.00     0.149 HD
ENDBRANCH   6  13
BRANCH   5  18
ATOM     18  N   LIG d   1      -0.060  80.610 116.618  0.00  0.00     0.381 N 
ATOM     19  H   LIG d   1      -0.018  80.025 117.429  0.00  0.00    -0.090 HD
ATOM     20  H   LIG d   1      -0.362  81.524 116.904  0.00  0.00    -0.090 HD
ATOM     21  H   LIG d   1       0.840  80.667 116.194  0.00  0.00    -0.090 HD
ENDBRANCH   5  18
BRANCH   3  22
ATOM     22  C   LIG d   1      -1.446  80.535 112.034  0.00  0.00     0.382 C 
ATOM     23  O   LIG d   1      -1.815  81.734 112.026  0.00  0.00    -0.241 OA
ATOM     24  O   LIG d   1      -1.227  79.953 110.955  0.00  0.00    -0.241 OA
ENDBRANCH   3  22
TORSDOF 7
ENDMDL
MODEL 9
REMARK VINA RESULT:      -4.5      2.514      4.531
REMARK  7 active torsions:
REMARK  status: ('A' for Active; 'I' for Inactive)
REMARK    1  A    between atoms: C_2  and  C_3 
REMARK    2  A    between atoms: C_3  and  O_6 
REMARK    3  A    between atoms: C_3  and  C_4 
REMARK    4  A    between atoms: C_7  and  O_6 
REMARK    5  A    between atoms: C_9  and  C_10 
REMARK    6  A    between atoms: N_15  and  C_14 
REMARK    7  A    between atoms: N_20  and  C_19 
REMARK       I    between atoms: C_22  and  N_20 
ROOT
ATOM      1  C   LIG d   1      -3.308  78.408 115.393  0.00  0.00     0.161 C 
ATOM      2  C   LIG d   1      -3.116  78.173 114.022  0.00  0.00     0.016 C 
ATOM      3  C   LIG d   1      -2.039  78.715 113.283  0.00  0.00     0.038 C 
ATOM      4  C   LIG d   1      -0.990  79.410 113.903  0.00  0.00     0.028 C 
ATOM      5  C   LIG d   1      -1.403  80.100 115.198  0.00  0.00    -0.047 C 
ATOM      6  C   LIG d   1      -2.114  79.073 116.109  0.00  0.00     0.091 C 
ENDROOT
BRANCH   1   7
ATOM      7  O   LIG d   1      -3.668  77.179 116.054  0.00  0.00    -0.368 OA
BRANCH   7   8
ATOM      8  C   LIG d   1      -3.636  75.983 115.236  0.00  0.00     0.119 C 
BRANCH   8   9
ATOM      9  C   LIG d   1      -5.044  75.357 115.277  0.00  0.00     0.028 C 
ATOM     10  C   LIG d   1      -6.001  75.998 114.258  0.00  0.00     0.006 C 
ENDBRANCH   8   9
BRANCH   8  11
ATOM     11  C   LIG d   1      -2.704  74.924 115.833  0.00  0.00     0.028 C 
ATOM     12  C   LIG d   1      -1.234  75.135 115.440  0.00  0.00     0.006 C 
ENDBRANCH   8  11
ENDBRANCH   7   8
ENDBRANCH   1   7
BRANCH   6  13
ATOM     13  N   LIG d   1      -2.626  79.685 117.363  0.00  0.00    -0.311 N 
ATOM     14  C   LIG d   1      -3.651  80.535 117.399  0.00  0.00     0.210 C 
ATOM     15  C   LIG d   1      -4.003  81.064 118.792  0.00  0.00     0.109 C 
ATOM     16  O   LIG d   1      -4.322  80.875 116.413  0.00  0.00    -0.276 OA
ATOM     17  H   LIG d   1      -2.159  79.439 118.214  0.00  0.00     0.149 HD
ENDBRANCH   6  13
BRANCH   5  18
ATOM     18  N   LIG d   1      -0.187  80.669 115.808  0.00  0.00     0.381 N 
ATOM     19  H   LIG d   1       0.484  79.943 115.966  0.00  0.00    -0.090 HD
ATOM     20  H   LIG d   1      -0.427  81.074 116.696  0.00  0.00    -0.090 HD
ATOM     21  H   LIG d   1       0.201  81.365 115.210  0.00  0.00    -0.090 HD
ENDBRANCH   5  18
BRANCH   3  22
ATOM     22  C   LIG d   1      -2.025  78.597 111.901  0.00  0.00     0.382 C 
ATOM     23  O   LIG d   1      -1.613  79.548 111.195  0.00  0.00    -0.241 OA
ATOM     24  O   LIG d   1      -2.461  77.568 111.351  0.00  0.00    -0.241 OA
ENDBRANCH   3  22
TORSDOF 7
ENDMDL
