MODEL 1
REMARK VINA RESULT:      -5.6      0.000      0.000
REMARK  7 active torsions:
REMARK  status: ('A' for Active; 'I' for Inactive)
REMARK    1  A    between atoms: C_2  and  C_3 
REMARK    2  A    between atoms: C_3  and  O_6 
REMARK    3  A    between atoms: C_3  and  C_4 
REMARK    4  A    between atoms: C_7  and  O_6 
REMARK    5  A    between atoms: C_9  and  C_10 
REMARK    6  A    between atoms: N_15  and  C_14 
REMARK    7  A    between atoms: N_20  and  C_19 
REMARK       I    between atoms: C_22  and  N_20 
ROOT
ATOM      1  C   LIG d   1      -2.614  77.622 116.077  0.00  0.00     0.161 C 
ATOM      2  C   LIG d   1      -2.972  78.483 115.026  0.00  0.00     0.016 C 
ATOM      3  C   LIG d   1      -2.269  78.548 113.801  0.00  0.00     0.038 C 
ATOM      4  C   LIG d   1      -1.246  77.642 113.484  0.00  0.00     0.028 C 
ATOM      5  C   LIG d   1      -0.522  77.093 114.709  0.00  0.00    -0.047 C 
ATOM      6  C   LIG d   1      -1.569  76.549 115.708  0.00  0.00     0.091 C 
ENDROOT
BRANCH   1   7
ATOM      7  O   LIG d   1      -3.795  77.004 116.625  0.00  0.00    -0.368 OA
BRANCH   7   8
ATOM      8  C   LIG d   1      -4.914  76.850 115.718  0.00  0.00     0.119 C 
BRANCH   8   9
ATOM      9  C   LIG d   1      -6.201  77.128 116.518  0.00  0.00     0.028 C 
ATOM     10  C   LIG d   1      -6.079  78.373 117.412  0.00  0.00     0.006 C 
ENDBRANCH   8   9
BRANCH   8  11
ATOM     11  C   LIG d   1      -5.043  75.403 115.232  0.00  0.00     0.028 C 
ATOM     12  C   LIG d   1      -5.977  75.262 114.020  0.00  0.00     0.006 C 
ENDBRANCH   8  11
ENDBRANCH   7   8
ENDBRANCH   1   7
BRANCH   6  13
ATOM     13  N   LIG d   1      -0.951  76.069 116.971  0.00  0.00    -0.311 N 
ATOM     14  C   LIG d   1      -1.336  74.960 117.600  0.00  0.00     0.210 C 
ATOM     15  C   LIG d   1      -0.580  74.657 118.898  0.00  0.00     0.109 C 
ATOM     16  O   LIG d   1      -2.209  74.180 117.190  0.00  0.00    -0.276 OA
ATOM     17  H   LIG d   1      -0.214  76.625 117.358  0.00  0.00     0.149 HD
ENDBRANCH   6  13
BRANCH   5  18
ATOM     18  N   LIG d   1       0.423  76.061 114.243  0.00  0.00     0.381 N 
ATOM     19  H   LIG d   1       0.811  75.577 115.028  0.00  0.00    -0.090 HD
ATOM     20  H   LIG d   1       1.173  76.508 113.746  0.00  0.00    -0.090 HD
ATOM     21  H   LIG d   1      -0.044  75.416 113.644  0.00  0.00    -0.090 HD
ENDBRANCH   5  18
BRANCH   3  22
ATOM     22  C   LIG d   1      -2.563  79.553 112.893  0.00  0.00     0.382 C 
ATOM     23  O   LIG d   1      -2.010  79.562 111.767  0.00  0.00    -0.241 OA
ATOM     24  O   LIG d   1      -3.340  80.476 113.202  0.00  0.00    -0.241 OA
ENDBRANCH   3  22
TORSDOF 7
ENDMDL
MODEL 2
REMARK VINA RESULT:      -5.5      1.704      4.995
REMARK  7 active torsions:
REMARK  status: ('A' for Active; 'I' for Inactive)
REMARK    1  A    between atoms: C_2  and  C_3 
REMARK    2  A    between atoms: C_3  and  O_6 
REMARK    3  A    between atoms: C_3  and  C_4 
REMARK    4  A    between atoms: C_7  and  O_6 
REMARK    5  A    between atoms: C_9  and  C_10 
REMARK    6  A    between atoms: N_15  and  C_14 
REMARK    7  A    between atoms: N_20  and  C_19 
REMARK       I    between atoms: C_22  and  N_20 
ROOT
ATOM      1  C   LIG d   1      -1.890  75.879 114.913  0.00  0.00     0.161 C 
ATOM      2  C   LIG d   1      -1.780  75.214 116.145  0.00  0.00     0.016 C 
ATOM      3  C   LIG d   1      -1.033  75.714 117.236  0.00  0.00     0.038 C 
ATOM      4  C   LIG d   1      -0.465  76.997 117.220  0.00  0.00     0.028 C 
ATOM      5  C   LIG d   1      -0.125  77.490 115.818  0.00  0.00    -0.047 C 
ATOM      6  C   LIG d   1      -1.369  77.332 114.914  0.00  0.00     0.091 C 
ENDROOT
BRANCH   1   7
ATOM      7  O   LIG d   1      -3.256  75.837 114.455  0.00  0.00    -0.368 OA
BRANCH   7   8
ATOM      8  C   LIG d   1      -4.255  75.529 115.458  0.00  0.00     0.119 C 
BRANCH   8   9
ATOM      9  C   LIG d   1      -5.267  74.557 114.820  0.00  0.00     0.028 C 
ATOM     10  C   LIG d   1      -6.539  75.270 114.332  0.00  0.00     0.006 C 
ENDBRANCH   8   9
BRANCH   8  11
ATOM     11  C   LIG d   1      -5.069  76.772 115.834  0.00  0.00     0.028 C 
ATOM     12  C   LIG d   1      -4.432  77.577 116.977  0.00  0.00     0.006 C 
ENDBRANCH   8  11
ENDBRANCH   7   8
ENDBRANCH   1   7
BRANCH   6  13
ATOM     13  N   LIG d   1      -1.098  77.713 113.504  0.00  0.00    -0.311 N 
ATOM     14  C   LIG d   1      -1.927  78.455 112.772  0.00  0.00     0.210 C 
ATOM     15  C   LIG d   1      -1.465  78.715 111.335  0.00  0.00     0.109 C 
ATOM     16  O   LIG d   1      -2.986  78.949 113.187  0.00  0.00    -0.276 OA
ATOM     17  H   LIG d   1      -0.245  77.381 113.097  0.00  0.00     0.149 HD
ENDBRANCH   6  13
BRANCH   5  18
ATOM     18  N   LIG d   1       0.330  78.888 115.935  0.00  0.00     0.381 N 
ATOM     19  H   LIG d   1       1.221  78.918 116.390  0.00  0.00    -0.090 HD
ATOM     20  H   LIG d   1      -0.328  79.398 116.499  0.00  0.00    -0.090 HD
ATOM     21  H   LIG d   1       0.396  79.303 115.032  0.00  0.00    -0.090 HD
ENDBRANCH   5  18
BRANCH   3  22
ATOM     22  C   LIG d   1      -0.815  74.911 118.346  0.00  0.00     0.382 C 
ATOM     23  O   LIG d   1      -1.737  74.180 118.781  0.00  0.00    -0.241 OA
ATOM     24  O   LIG d   1       0.277  74.943 118.943  0.00  0.00    -0.241 OA
ENDBRANCH   3  22
TORSDOF 7
ENDMDL
MODEL 3
REMARK VINA RESULT:      -5.3      1.361      2.045
REMARK  7 active torsions:
REMARK  status: ('A' for Active; 'I' for Inactive)
REMARK    1  A    between atoms: C_2  and  C_3 
REMARK    2  A    between atoms: C_3  and  O_6 
REMARK    3  A    between atoms: C_3  and  C_4 
REMARK    4  A    between atoms: C_7  and  O_6 
REMARK    5  A    between atoms: C_9  and  C_10 
REMARK    6  A    between atoms: N_15  and  C_14 
REMARK    7  A    between atoms: N_20  and  C_19 
REMARK       I    between atoms: C_22  and  N_20 
ROOT
ATOM      1  C   LIG d   1      -3.055  77.776 115.722  0.00  0.00     0.161 C 
ATOM      2  C   LIG d   1      -3.194  78.717 114.688  0.00  0.00     0.016 C 
ATOM      3  C   LIG d   1      -2.310  78.800 113.587  0.00  0.00     0.038 C 
ATOM      4  C   LIG d   1      -1.308  77.844 113.367  0.00  0.00     0.028 C 
ATOM      5  C   LIG d   1      -0.815  77.177 114.647  0.00  0.00    -0.047 C 
ATOM      6  C   LIG d   1      -2.034  76.654 115.442  0.00  0.00     0.091 C 
ENDROOT
BRANCH   1   7
ATOM      7  O   LIG d   1      -4.341  77.214 116.046  0.00  0.00    -0.368 OA
BRANCH   7   8
ATOM      8  C   LIG d   1      -4.801  77.416 117.405  0.00  0.00     0.119 C 
BRANCH   8   9
ATOM      9  C   LIG d   1      -6.219  78.015 117.330  0.00  0.00     0.028 C 
ATOM     10  C   LIG d   1      -6.248  79.504 117.715  0.00  0.00     0.006 C 
ENDBRANCH   8   9
BRANCH   8  11
ATOM     11  C   LIG d   1      -3.955  78.468 118.129  0.00  0.00     0.028 C 
ATOM     12  C   LIG d   1      -3.367  77.952 119.452  0.00  0.00     0.006 C 
ENDBRANCH   8  11
ENDBRANCH   7   8
ENDBRANCH   1   7
BRANCH   6  13
ATOM     13  N   LIG d   1      -1.646  76.062 116.749  0.00  0.00    -0.311 N 
ATOM     14  C   LIG d   1      -2.136  74.910 117.206  0.00  0.00     0.210 C 
ATOM     15  C   LIG d   1      -1.619  74.490 118.585  0.00  0.00     0.109 C 
ATOM     16  O   LIG d   1      -2.924  74.181 116.585  0.00  0.00    -0.276 OA
ATOM     17  H   LIG d   1      -0.987  76.572 117.303  0.00  0.00     0.149 HD
ENDBRANCH   6  13
BRANCH   5  18
ATOM     18  N   LIG d   1       0.125  76.108 114.260  0.00  0.00     0.381 N 
ATOM     19  H   LIG d   1       0.288  76.142 113.273  0.00  0.00    -0.090 HD
ATOM     20  H   LIG d   1      -0.286  75.218 114.480  0.00  0.00    -0.090 HD
ATOM     21  H   LIG d   1       0.985  76.216 114.751  0.00  0.00    -0.090 HD
ENDBRANCH   5  18
BRANCH   3  22
ATOM     22  C   LIG d   1      -2.399  79.873 112.714  0.00  0.00     0.382 C 
ATOM     23  O   LIG d   1      -3.261  80.766 112.903  0.00  0.00    -0.241 OA
ATOM     24  O   LIG d   1      -1.659  79.938 111.714  0.00  0.00    -0.241 OA
ENDBRANCH   3  22
TORSDOF 7
ENDMDL
MODEL 4
REMARK VINA RESULT:      -5.2      1.382      2.008
REMARK  7 active torsions:
REMARK  status: ('A' for Active; 'I' for Inactive)
REMARK    1  A    between atoms: C_2  and  C_3 
REMARK    2  A    between atoms: C_3  and  O_6 
REMARK    3  A    between atoms: C_3  and  C_4 
REMARK    4  A    between atoms: C_7  and  O_6 
REMARK    5  A    between atoms: C_9  and  C_10 
REMARK    6  A    between atoms: N_15  and  C_14 
REMARK    7  A    between atoms: N_20  and  C_19 
REMARK       I    between atoms: C_22  and  N_20 
ROOT
ATOM      1  C   LIG d   1      -2.620  77.779 116.105  0.00  0.00     0.161 C 
ATOM      2  C   LIG d   1      -2.921  78.660 115.053  0.00  0.00     0.016 C 
ATOM      3  C   LIG d   1      -2.269  78.626 113.799  0.00  0.00     0.038 C 
ATOM      4  C   LIG d   1      -1.369  77.605 113.459  0.00  0.00     0.028 C 
ATOM      5  C   LIG d   1      -0.662  76.994 114.664  0.00  0.00    -0.047 C 
ATOM      6  C   LIG d   1      -1.720  76.588 115.714  0.00  0.00     0.091 C 
ENDROOT
BRANCH   1   7
ATOM      7  O   LIG d   1      -3.839  77.308 116.712  0.00  0.00    -0.368 OA
BRANCH   7   8
ATOM      8  C   LIG d   1      -4.613  78.295 117.438  0.00  0.00     0.119 C 
BRANCH   8   9
ATOM      9  C   LIG d   1      -4.273  78.142 118.933  0.00  0.00     0.028 C 
ATOM     10  C   LIG d   1      -3.557  79.379 119.501  0.00  0.00     0.006 C 
ENDBRANCH   8   9
BRANCH   8  11
ATOM     11  C   LIG d   1      -6.115  78.013 117.333  0.00  0.00     0.028 C 
ATOM     12  C   LIG d   1      -6.977  79.169 117.864  0.00  0.00     0.006 C 
ENDBRANCH   8  11
ENDBRANCH   7   8
ENDBRANCH   1   7
BRANCH   6  13
ATOM     13  N   LIG d   1      -1.108  76.059 116.961  0.00  0.00    -0.311 N 
ATOM     14  C   LIG d   1      -1.506  74.935 117.553  0.00  0.00     0.210 C 
ATOM     15  C   LIG d   1      -0.754  74.580 118.839  0.00  0.00     0.109 C 
ATOM     16  O   LIG d   1      -2.389  74.180 117.118  0.00  0.00    -0.276 OA
ATOM     17  H   LIG d   1      -0.363  76.592 117.365  0.00  0.00     0.149 HD
ENDBRANCH   6  13
BRANCH   5  18
ATOM     18  N   LIG d   1       0.139  75.855 114.179  0.00  0.00     0.381 N 
ATOM     19  H   LIG d   1       0.666  75.465 114.936  0.00  0.00    -0.090 HD
ATOM     20  H   LIG d   1       0.785  76.183 113.483  0.00  0.00    -0.090 HD
ATOM     21  H   LIG d   1      -0.458  75.160 113.788  0.00  0.00    -0.090 HD
ENDBRANCH   5  18
BRANCH   3  22
ATOM     22  C   LIG d   1      -2.485  79.646 112.885  0.00  0.00     0.382 C 
ATOM     23  O   LIG d   1      -3.131  80.666 113.224  0.00  0.00    -0.241 OA
ATOM     24  O   LIG d   1      -2.080  79.539 111.712  0.00  0.00    -0.241 OA
ENDBRANCH   3  22
TORSDOF 7
ENDMDL
MODEL 5
REMARK VINA RESULT:      -4.9      1.698      2.035
REMARK  7 active torsions:
REMARK  status: ('A' for Active; 'I' for Inactive)
REMARK    1  A    between atoms: C_2  and  C_3 
REMARK    2  A    between atoms: C_3  and  O_6 
REMARK    3  A    between atoms: C_3  and  C_4 
REMARK    4  A    between atoms: C_7  and  O_6 
REMARK    5  A    between atoms: C_9  and  C_10 
REMARK    6  A    between atoms: N_15  and  C_14 
REMARK    7  A    between atoms: N_20  and  C_19 
REMARK       I    between atoms: C_22  and  N_20 
ROOT
ATOM      1  C   LIG d   1      -3.520  76.794 114.419  0.00  0.00     0.161 C 
ATOM      2  C   LIG d   1      -3.398  77.710 113.361  0.00  0.00     0.016 C 
ATOM      3  C   LIG d   1      -2.174  78.314 112.991  0.00  0.00     0.038 C 
ATOM      4  C   LIG d   1      -0.953  77.925 113.562  0.00  0.00     0.028 C 
ATOM      5  C   LIG d   1      -1.095  77.375 114.977  0.00  0.00    -0.047 C 
ATOM      6  C   LIG d   1      -2.180  76.274 114.981  0.00  0.00     0.091 C 
ENDROOT
BRANCH   1   7
ATOM      7  O   LIG d   1      -4.356  75.692 114.017  0.00  0.00    -0.368 OA
BRANCH   7   8
ATOM      8  C   LIG d   1      -5.785  75.929 114.055  0.00  0.00     0.119 C 
BRANCH   8   9
ATOM      9  C   LIG d   1      -6.386  74.969 115.100  0.00  0.00     0.028 C 
ATOM     10  C   LIG d   1      -7.692  75.506 115.708  0.00  0.00     0.006 C 
ENDBRANCH   8   9
BRANCH   8  11
ATOM     11  C   LIG d   1      -6.449  75.550 112.728  0.00  0.00     0.028 C 
ATOM     12  C   LIG d   1      -7.021  76.764 111.980  0.00  0.00     0.006 C 
ENDBRANCH   8  11
ENDBRANCH   7   8
ENDBRANCH   1   7
BRANCH   6  13
ATOM     13  N   LIG d   1      -2.441  75.741 116.344  0.00  0.00    -0.311 N 
ATOM     14  C   LIG d   1      -1.744  74.744 116.887  0.00  0.00     0.210 C 
ATOM     15  C   LIG d   1      -2.190  74.334 118.294  0.00  0.00     0.109 C 
ATOM     16  O   LIG d   1      -0.778  74.182 116.349  0.00  0.00    -0.276 OA
ATOM     17  H   LIG d   1      -3.188  76.160 116.862  0.00  0.00     0.149 HD
ENDBRANCH   6  13
BRANCH   5  18
ATOM     18  N   LIG d   1       0.230  76.881 115.398  0.00  0.00     0.381 N 
ATOM     19  H   LIG d   1       0.770  76.631 114.593  0.00  0.00    -0.090 HD
ATOM     20  H   LIG d   1       0.107  76.059 115.963  0.00  0.00    -0.090 HD
ATOM     21  H   LIG d   1       0.706  77.584 115.920  0.00  0.00    -0.090 HD
ENDBRANCH   5  18
BRANCH   3  22
ATOM     22  C   LIG d   1      -2.170  79.348 112.067  0.00  0.00     0.382 C 
ATOM     23  O   LIG d   1      -2.587  80.485 112.396  0.00  0.00    -0.241 OA
ATOM     24  O   LIG d   1      -1.795  79.147 110.896  0.00  0.00    -0.241 OA
ENDBRANCH   3  22
TORSDOF 7
ENDMDL
MODEL 6
REMARK VINA RESULT:      -4.8      3.160      5.575
REMARK  7 active torsions:
REMARK  status: ('A' for Active; 'I' for Inactive)
REMARK    1  A    between atoms: C_2  and  C_3 
REMARK    2  A    between atoms: C_3  and  O_6 
REMARK    3  A    between atoms: C_3  and  C_4 
REMARK    4  A    between atoms: C_7  and  O_6 
REMARK    5  A    between atoms: C_9  and  C_10 
REMARK    6  A    between atoms: N_15  and  C_14 
REMARK    7  A    between atoms: N_20  and  C_19 
REMARK       I    between atoms: C_22  and  N_20 
ROOT
ATOM      1  C   LIG d   1      -5.800  77.850 117.487  0.00  0.00     0.161 C 
ATOM      2  C   LIG d   1      -7.079  78.415 117.621  0.00  0.00     0.016 C 
ATOM      3  C   LIG d   1      -7.356  79.526 118.451  0.00  0.00     0.038 C 
ATOM      4  C   LIG d   1      -6.337  80.245 119.091  0.00  0.00     0.028 C 
ATOM      5  C   LIG d   1      -5.098  79.407 119.387  0.00  0.00    -0.047 C 
ATOM      6  C   LIG d   1      -4.656  78.690 118.091  0.00  0.00     0.091 C 
ENDROOT
BRANCH   1   7
ATOM      7  O   LIG d   1      -5.534  77.566 116.099  0.00  0.00    -0.368 OA
BRANCH   7   8
ATOM      8  C   LIG d   1      -5.614  76.173 115.707  0.00  0.00     0.119 C 
BRANCH   8   9
ATOM      9  C   LIG d   1      -4.430  75.890 114.762  0.00  0.00     0.028 C 
ATOM     10  C   LIG d   1      -3.391  74.946 115.390  0.00  0.00     0.006 C 
ENDBRANCH   8   9
BRANCH   8  11
ATOM     11  C   LIG d   1      -6.871  75.900 114.876  0.00  0.00     0.028 C 
ATOM     12  C   LIG d   1      -8.016  75.300 115.707  0.00  0.00     0.006 C 
ENDBRANCH   8  11
ENDBRANCH   7   8
ENDBRANCH   1   7
BRANCH   6  13
ATOM     13  N   LIG d   1      -3.500  77.782 118.312  0.00  0.00    -0.311 N 
ATOM     14  C   LIG d   1      -2.399  77.801 117.562  0.00  0.00     0.210 C 
ATOM     15  C   LIG d   1      -1.336  76.768 117.948  0.00  0.00     0.109 C 
ATOM     16  O   LIG d   1      -2.188  78.598 116.636  0.00  0.00    -0.276 OA
ATOM     17  H   LIG d   1      -3.573  77.124 119.063  0.00  0.00     0.149 HD
ENDBRANCH   6  13
BRANCH   5  18
ATOM     18  N   LIG d   1      -4.066  80.312 119.928  0.00  0.00     0.381 N 
ATOM     19  H   LIG d   1      -3.898  81.058 119.283  0.00  0.00    -0.090 HD
ATOM     20  H   LIG d   1      -3.211  79.797 120.045  0.00  0.00    -0.090 HD
ATOM     21  H   LIG d   1      -4.362  80.681 120.805  0.00  0.00    -0.090 HD
ENDBRANCH   5  18
BRANCH   3  22
ATOM     22  C   LIG d   1      -8.671  79.903 118.679  0.00  0.00     0.382 C 
ATOM     23  O   LIG d   1      -9.387  79.237 119.465  0.00  0.00    -0.241 OA
ATOM     24  O   LIG d   1      -9.164  80.874 118.074  0.00  0.00    -0.241 OA
ENDBRANCH   3  22
TORSDOF 7
ENDMDL
MODEL 7
REMARK VINA RESULT:      -4.8      3.119      5.146
REMARK  7 active torsions:
REMARK  status: ('A' for Active; 'I' for Inactive)
REMARK    1  A    between atoms: C_2  and  C_3 
REMARK    2  A    between atoms: C_3  and  O_6 
REMARK    3  A    between atoms: C_3  and  C_4 
REMARK    4  A    between atoms: C_7  and  O_6 
REMARK    5  A    between atoms: C_9  and  C_10 
REMARK    6  A    between atoms: N_15  and  C_14 
REMARK    7  A    between atoms: N_20  and  C_19 
REMARK       I    between atoms: C_22  and  N_20 
ROOT
ATOM      1  C   LIG d   1      -6.258  77.635 117.318  0.00  0.00     0.161 C 
ATOM      2  C   LIG d   1      -5.824  76.866 116.225  0.00  0.00     0.016 C 
ATOM      3  C   LIG d   1      -4.468  76.752 115.844  0.00  0.00     0.038 C 
ATOM      4  C   LIG d   1      -3.431  77.281 116.627  0.00  0.00     0.028 C 
ATOM      5  C   LIG d   1      -3.854  78.488 117.457  0.00  0.00    -0.047 C 
ATOM      6  C   LIG d   1      -5.132  78.129 118.250  0.00  0.00     0.091 C 
ENDROOT
BRANCH   1   7
ATOM      7  O   LIG d   1      -7.245  76.901 118.071  0.00  0.00    -0.368 OA
BRANCH   7   8
ATOM      8  C   LIG d   1      -8.627  77.133 117.706  0.00  0.00     0.119 C 
BRANCH   8   9
ATOM      9  C   LIG d   1      -9.341  77.714 118.941  0.00  0.00     0.028 C 
ATOM     10  C   LIG d   1      -9.855  79.144 118.704  0.00  0.00     0.006 C 
ENDBRANCH   8   9
BRANCH   8  11
ATOM     11  C   LIG d   1      -9.351  75.818 117.400  0.00  0.00     0.028 C 
ATOM     12  C   LIG d   1      -9.019  75.265 116.005  0.00  0.00     0.006 C 
ENDBRANCH   8  11
ENDBRANCH   7   8
ENDBRANCH   1   7
BRANCH   6  13
ATOM     13  N   LIG d   1      -5.661  79.281 119.024  0.00  0.00    -0.311 N 
ATOM     14  C   LIG d   1      -6.394  80.253 118.483  0.00  0.00     0.210 C 
ATOM     15  C   LIG d   1      -6.822  81.357 119.455  0.00  0.00     0.109 C 
ATOM     16  O   LIG d   1      -6.758  80.289 117.298  0.00  0.00    -0.276 OA
ATOM     17  H   LIG d   1      -5.440  79.315 120.000  0.00  0.00     0.149 HD
ENDBRANCH   6  13
BRANCH   5  18
ATOM     18  N   LIG d   1      -2.718  78.852 118.326  0.00  0.00     0.381 N 
ATOM     19  H   LIG d   1      -2.796  79.811 118.600  0.00  0.00    -0.090 HD
ATOM     20  H   LIG d   1      -1.864  78.740 117.808  0.00  0.00    -0.090 HD
ATOM     21  H   LIG d   1      -2.705  78.268 119.132  0.00  0.00    -0.090 HD
ENDBRANCH   5  18
BRANCH   3  22
ATOM     22  C   LIG d   1      -4.140  76.136 114.646  0.00  0.00     0.382 C 
ATOM     23  O   LIG d   1      -3.821  74.923 114.632  0.00  0.00    -0.241 OA
ATOM     24  O   LIG d   1      -4.117  76.789 113.585  0.00  0.00    -0.241 OA
ENDBRANCH   3  22
TORSDOF 7
ENDMDL
MODEL 8
REMARK VINA RESULT:      -4.7      3.043      4.129
REMARK  7 active torsions:
REMARK  status: ('A' for Active; 'I' for Inactive)
REMARK    1  A    between atoms: C_2  and  C_3 
REMARK    2  A    between atoms: C_3  and  O_6 
REMARK    3  A    between atoms: C_3  and  C_4 
REMARK    4  A    between atoms: C_7  and  O_6 
REMARK    5  A    between atoms: C_9  and  C_10 
REMARK    6  A    between atoms: N_15  and  C_14 
REMARK    7  A    between atoms: N_20  and  C_19 
REMARK       I    between atoms: C_22  and  N_20 
ROOT
ATOM      1  C   LIG d   1      -4.662  78.151 117.176  0.00  0.00     0.161 C 
ATOM      2  C   LIG d   1      -5.328  77.364 116.221  0.00  0.00     0.016 C 
ATOM      3  C   LIG d   1      -4.725  76.270 115.558  0.00  0.00     0.038 C 
ATOM      4  C   LIG d   1      -3.456  75.793 115.917  0.00  0.00     0.028 C 
ATOM      5  C   LIG d   1      -2.554  76.865 116.519  0.00  0.00    -0.047 C 
ATOM      6  C   LIG d   1      -3.314  77.577 117.661  0.00  0.00     0.091 C 
ENDROOT
BRANCH   1   7
ATOM      7  O   LIG d   1      -5.533  78.401 118.296  0.00  0.00    -0.368 OA
BRANCH   7   8
ATOM      8  C   LIG d   1      -6.936  78.587 117.985  0.00  0.00     0.119 C 
BRANCH   8   9
ATOM      9  C   LIG d   1      -7.266  80.075 118.211  0.00  0.00     0.028 C 
ATOM     10  C   LIG d   1      -8.781  80.342 118.234  0.00  0.00     0.006 C 
ENDBRANCH   8   9
BRANCH   8  11
ATOM     11  C   LIG d   1      -7.830  77.819 118.963  0.00  0.00     0.028 C 
ATOM     12  C   LIG d   1      -8.548  76.630 118.305  0.00  0.00     0.006 C 
ENDBRANCH   8  11
ENDBRANCH   7   8
ENDBRANCH   1   7
BRANCH   6  13
ATOM     13  N   LIG d   1      -2.534  78.698 118.249  0.00  0.00    -0.311 N 
ATOM     14  C   LIG d   1      -1.738  78.560 119.308  0.00  0.00     0.210 C 
ATOM     15  C   LIG d   1      -1.042  79.846 119.764  0.00  0.00     0.109 C 
ATOM     16  O   LIG d   1      -1.518  77.489 119.892  0.00  0.00    -0.276 OA
ATOM     17  H   LIG d   1      -2.630  79.596 117.817  0.00  0.00     0.149 HD
ENDBRANCH   6  13
BRANCH   5  18
ATOM     18  N   LIG d   1      -1.316  76.203 116.973  0.00  0.00     0.381 N 
ATOM     19  H   LIG d   1      -0.530  76.586 116.489  0.00  0.00    -0.090 HD
ATOM     20  H   LIG d   1      -1.374  75.223 116.757  0.00  0.00    -0.090 HD
ATOM     21  H   LIG d   1      -1.204  76.328 117.955  0.00  0.00    -0.090 HD
ENDBRANCH   5  18
BRANCH   3  22
ATOM     22  C   LIG d   1      -5.379  75.666 114.495  0.00  0.00     0.382 C 
ATOM     23  O   LIG d   1      -6.527  76.051 114.164  0.00  0.00    -0.241 OA
ATOM     24  O   LIG d   1      -4.855  74.711 113.891  0.00  0.00    -0.241 OA
ENDBRANCH   3  22
TORSDOF 7
ENDMDL
MODEL 9
REMARK VINA RESULT:      -4.5      1.247      2.055
REMARK  7 active torsions:
REMARK  status: ('A' for Active; 'I' for Inactive)
REMARK    1  A    between atoms: C_2  and  C_3 
REMARK    2  A    between atoms: C_3  and  O_6 
REMARK    3  A    between atoms: C_3  and  C_4 
REMARK    4  A    between atoms: C_7  and  O_6 
REMARK    5  A    between atoms: C_9  and  C_10 
REMARK    6  A    between atoms: N_15  and  C_14 
REMARK    7  A    between atoms: N_20  and  C_19 
REMARK       I    between atoms: C_22  and  N_20 
ROOT
ATOM      1  C   LIG d   1      -3.278  77.567 115.295  0.00  0.00     0.161 C 
ATOM      2  C   LIG d   1      -3.257  78.636 114.384  0.00  0.00     0.016 C 
ATOM      3  C   LIG d   1      -2.196  78.865 113.477  0.00  0.00     0.038 C 
ATOM      4  C   LIG d   1      -1.148  77.947 113.315  0.00  0.00     0.028 C 
ATOM      5  C   LIG d   1      -0.871  77.117 114.564  0.00  0.00    -0.047 C 
ATOM      6  C   LIG d   1      -2.196  76.492 115.056  0.00  0.00     0.091 C 
ENDROOT
BRANCH   1   7
ATOM      7  O   LIG d   1      -4.587  76.965 115.311  0.00  0.00    -0.368 OA
BRANCH   7   8
ATOM      8  C   LIG d   1      -5.299  77.021 116.571  0.00  0.00     0.119 C 
BRANCH   8   9
ATOM      9  C   LIG d   1      -6.759  76.611 116.297  0.00  0.00     0.028 C 
ATOM     10  C   LIG d   1      -6.893  75.713 115.056  0.00  0.00     0.006 C 
ENDBRANCH   8   9
BRANCH   8  11
ATOM     11  C   LIG d   1      -5.374  78.455 117.105  0.00  0.00     0.028 C 
ATOM     12  C   LIG d   1      -4.837  78.586 118.539  0.00  0.00     0.006 C 
ENDBRANCH   8  11
ENDBRANCH   7   8
ENDBRANCH   1   7
BRANCH   6  13
ATOM     13  N   LIG d   1      -2.030  75.733 116.322  0.00  0.00    -0.311 N 
ATOM     14  C   LIG d   1      -1.692  76.301 117.479  0.00  0.00     0.210 C 
ATOM     15  C   LIG d   1      -1.553  75.333 118.658  0.00  0.00     0.109 C 
ATOM     16  O   LIG d   1      -1.524  77.518 117.646  0.00  0.00    -0.276 OA
ATOM     17  H   LIG d   1      -2.177  74.743 116.283  0.00  0.00     0.149 HD
ENDBRANCH   6  13
BRANCH   5  18
ATOM     18  N   LIG d   1       0.148  76.110 114.213  0.00  0.00     0.381 N 
ATOM     19  H   LIG d   1       0.584  76.357 113.347  0.00  0.00    -0.090 HD
ATOM     20  H   LIG d   1      -0.302  75.219 114.097  0.00  0.00    -0.090 HD
ATOM     21  H   LIG d   1       0.834  76.053 114.934  0.00  0.00    -0.090 HD
ENDBRANCH   5  18
BRANCH   3  22
ATOM     22  C   LIG d   1      -2.157  80.044 112.749  0.00  0.00     0.382 C 
ATOM     23  O   LIG d   1      -1.410  80.137 111.745  0.00  0.00    -0.241 OA
ATOM     24  O   LIG d   1      -2.827  81.031 113.108  0.00  0.00    -0.241 OA
ENDBRANCH   3  22
TORSDOF 7
ENDMDL
