MODEL 1
REMARK VINA RESULT:      -5.2      0.000      0.000
REMARK  7 active torsions:
REMARK  status: ('A' for Active; 'I' for Inactive)
REMARK    1  A    between atoms: C_2  and  C_3 
REMARK    2  A    between atoms: C_3  and  O_6 
REMARK    3  A    between atoms: C_3  and  C_4 
REMARK    4  A    between atoms: C_7  and  O_6 
REMARK    5  A    between atoms: C_9  and  C_10 
REMARK    6  A    between atoms: N_15  and  C_14 
REMARK    7  A    between atoms: N_20  and  C_19 
REMARK       I    between atoms: C_22  and  N_20 
ROOT
ATOM      1  C   LIG d   1      -2.778  79.715 115.536  0.00  0.00     0.161 C 
ATOM      2  C   LIG d   1      -2.585  80.933 114.863  0.00  0.00     0.016 C 
ATOM      3  C   LIG d   1      -2.156  81.018 113.518  0.00  0.00     0.038 C 
ATOM      4  C   LIG d   1      -2.035  79.882 112.705  0.00  0.00     0.028 C 
ATOM      5  C   LIG d   1      -1.732  78.607 113.485  0.00  0.00    -0.047 C 
ATOM      6  C   LIG d   1      -2.759  78.465 114.632  0.00  0.00     0.091 C 
ENDROOT
BRANCH   1   7
ATOM      7  O   LIG d   1      -4.003  79.766 116.295  0.00  0.00    -0.368 OA
BRANCH   7   8
ATOM      8  C   LIG d   1      -4.231  80.976 117.058  0.00  0.00     0.119 C 
BRANCH   8   9
ATOM      9  C   LIG d   1      -3.539  80.800 118.423  0.00  0.00     0.028 C 
ATOM     10  C   LIG d   1      -2.291  81.686 118.568  0.00  0.00     0.006 C 
ENDBRANCH   8   9
BRANCH   8  11
ATOM     11  C   LIG d   1      -5.717  81.162 117.377  0.00  0.00     0.028 C 
ATOM     12  C   LIG d   1      -5.961  81.653 118.813  0.00  0.00     0.006 C 
ENDBRANCH   8  11
ENDBRANCH   7   8
ENDBRANCH   1   7
BRANCH   6  13
ATOM     13  N   LIG d   1      -2.483  77.288 115.497  0.00  0.00    -0.311 N 
ATOM     14  C   LIG d   1      -2.958  76.069 115.248  0.00  0.00     0.210 C 
ATOM     15  C   LIG d   1      -2.570  75.002 116.277  0.00  0.00     0.109 C 
ATOM     16  O   LIG d   1      -3.636  75.763 114.256  0.00  0.00    -0.276 OA
ATOM     17  H   LIG d   1      -1.915  77.441 116.307  0.00  0.00     0.149 HD
ENDBRANCH   6  13
BRANCH   5  18
ATOM     18  N   LIG d   1      -1.769  77.482 112.532  0.00  0.00     0.381 N 
ATOM     19  H   LIG d   1      -0.885  77.015 112.525  0.00  0.00    -0.090 HD
ATOM     20  H   LIG d   1      -1.943  77.842 111.610  0.00  0.00    -0.090 HD
ATOM     21  H   LIG d   1      -2.489  76.842 112.788  0.00  0.00    -0.090 HD
ENDBRANCH   5  18
BRANCH   3  22
ATOM     22  C   LIG d   1      -1.803  82.250 112.987  0.00  0.00     0.382 C 
ATOM     23  O   LIG d   1      -1.803  83.270 113.716  0.00  0.00    -0.241 OA
ATOM     24  O   LIG d   1      -1.529  82.360 111.777  0.00  0.00    -0.241 OA
ENDBRANCH   3  22
TORSDOF 7
ENDMDL
MODEL 2
REMARK VINA RESULT:      -5.1      1.530      2.078
REMARK  7 active torsions:
REMARK  status: ('A' for Active; 'I' for Inactive)
REMARK    1  A    between atoms: C_2  and  C_3 
REMARK    2  A    between atoms: C_3  and  O_6 
REMARK    3  A    between atoms: C_3  and  C_4 
REMARK    4  A    between atoms: C_7  and  O_6 
REMARK    5  A    between atoms: C_9  and  C_10 
REMARK    6  A    between atoms: N_15  and  C_14 
REMARK    7  A    between atoms: N_20  and  C_19 
REMARK       I    between atoms: C_22  and  N_20 
ROOT
ATOM      1  C   LIG d   1      -2.404  79.102 116.161  0.00  0.00     0.161 C 
ATOM      2  C   LIG d   1      -2.711  80.378 115.660  0.00  0.00     0.016 C 
ATOM      3  C   LIG d   1      -2.692  80.699 114.283  0.00  0.00     0.038 C 
ATOM      4  C   LIG d   1      -2.510  79.719 113.296  0.00  0.00     0.028 C 
ATOM      5  C   LIG d   1      -1.699  78.520 113.774  0.00  0.00    -0.047 C 
ATOM      6  C   LIG d   1      -2.312  77.993 115.092  0.00  0.00     0.091 C 
ENDROOT
BRANCH   1   7
ATOM      7  O   LIG d   1      -3.353  78.736 117.182  0.00  0.00    -0.368 OA
BRANCH   7   8
ATOM      8  C   LIG d   1      -4.750  78.937 116.854  0.00  0.00     0.119 C 
BRANCH   8   9
ATOM      9  C   LIG d   1      -5.374  79.779 117.985  0.00  0.00     0.028 C 
ATOM     10  C   LIG d   1      -5.743  81.199 117.524  0.00  0.00     0.006 C 
ENDBRANCH   8   9
BRANCH   8  11
ATOM     11  C   LIG d   1      -5.521  77.614 116.862  0.00  0.00     0.028 C 
ATOM     12  C   LIG d   1      -4.752  76.481 117.561  0.00  0.00     0.006 C 
ENDBRANCH   8  11
ENDBRANCH   7   8
ENDBRANCH   1   7
BRANCH   6  13
ATOM     13  N   LIG d   1      -1.529  76.872 115.673  0.00  0.00    -0.311 N 
ATOM     14  C   LIG d   1      -1.791  75.589 115.428  0.00  0.00     0.210 C 
ATOM     15  C   LIG d   1      -0.874  74.593 116.144  0.00  0.00     0.109 C 
ATOM     16  O   LIG d   1      -2.677  75.183 114.660  0.00  0.00    -0.276 OA
ATOM     17  H   LIG d   1      -0.772  77.112 116.283  0.00  0.00     0.149 HD
ENDBRANCH   6  13
BRANCH   5  18
ATOM     18  N   LIG d   1      -1.704  77.518 112.692  0.00  0.00     0.381 N 
ATOM     19  H   LIG d   1      -1.356  76.646 113.036  0.00  0.00    -0.090 HD
ATOM     20  H   LIG d   1      -1.097  77.831 111.956  0.00  0.00    -0.090 HD
ATOM     21  H   LIG d   1      -2.629  77.399 112.342  0.00  0.00    -0.090 HD
ENDBRANCH   5  18
BRANCH   3  22
ATOM     22  C   LIG d   1      -2.816  82.021 113.884  0.00  0.00     0.382 C 
ATOM     23  O   LIG d   1      -3.601  82.789 114.492  0.00  0.00    -0.241 OA
ATOM     24  O   LIG d   1      -2.187  82.445 112.896  0.00  0.00    -0.241 OA
ENDBRANCH   3  22
TORSDOF 7
ENDMDL
MODEL 3
REMARK VINA RESULT:      -5.1      1.760      2.112
REMARK  7 active torsions:
REMARK  status: ('A' for Active; 'I' for Inactive)
REMARK    1  A    between atoms: C_2  and  C_3 
REMARK    2  A    between atoms: C_3  and  O_6 
REMARK    3  A    between atoms: C_3  and  C_4 
REMARK    4  A    between atoms: C_7  and  O_6 
REMARK    5  A    between atoms: C_9  and  C_10 
REMARK    6  A    between atoms: N_15  and  C_14 
REMARK    7  A    between atoms: N_20  and  C_19 
REMARK       I    between atoms: C_22  and  N_20 
ROOT
ATOM      1  C   LIG d   1      -0.401  80.236 114.963  0.00  0.00     0.161 C 
ATOM      2  C   LIG d   1      -0.541  81.452 114.273  0.00  0.00     0.016 C 
ATOM      3  C   LIG d   1      -1.293  81.590 113.084  0.00  0.00     0.038 C 
ATOM      4  C   LIG d   1      -2.085  80.546 112.582  0.00  0.00     0.028 C 
ATOM      5  C   LIG d   1      -1.574  79.161 112.964  0.00  0.00    -0.047 C 
ATOM      6  C   LIG d   1      -1.348  79.113 114.492  0.00  0.00     0.091 C 
ENDROOT
BRANCH   1   7
ATOM      7  O   LIG d   1      -0.551  80.458 116.379  0.00  0.00    -0.368 OA
BRANCH   7   8
ATOM      8  C   LIG d   1      -1.259  81.662 116.764  0.00  0.00     0.119 C 
BRANCH   8   9
ATOM      9  C   LIG d   1      -0.489  82.296 117.939  0.00  0.00     0.028 C 
ATOM     10  C   LIG d   1      -1.230  82.142 119.278  0.00  0.00     0.006 C 
ENDBRANCH   8   9
BRANCH   8  11
ATOM     11  C   LIG d   1      -2.650  81.338 117.319  0.00  0.00     0.028 C 
ATOM     12  C   LIG d   1      -3.753  81.430 116.253  0.00  0.00     0.006 C 
ENDBRANCH   8  11
ENDBRANCH   7   8
ENDBRANCH   1   7
BRANCH   6  13
ATOM     13  N   LIG d   1      -0.768  77.819 114.939  0.00  0.00    -0.311 N 
ATOM     14  C   LIG d   1      -1.506  76.779 115.324  0.00  0.00     0.210 C 
ATOM     15  C   LIG d   1      -0.708  75.548 115.765  0.00  0.00     0.109 C 
ATOM     16  O   LIG d   1      -2.746  76.748 115.310  0.00  0.00    -0.276 OA
ATOM     17  H   LIG d   1       0.230  77.747 114.952  0.00  0.00     0.149 HD
ENDBRANCH   6  13
BRANCH   5  18
ATOM     18  N   LIG d   1      -2.566  78.175 112.495  0.00  0.00     0.381 N 
ATOM     19  H   LIG d   1      -2.135  77.276 112.407  0.00  0.00    -0.090 HD
ATOM     20  H   LIG d   1      -2.898  78.454 111.589  0.00  0.00    -0.090 HD
ATOM     21  H   LIG d   1      -3.327  78.125 113.136  0.00  0.00    -0.090 HD
ENDBRANCH   5  18
BRANCH   3  22
ATOM     22  C   LIG d   1      -1.225  82.771 112.361  0.00  0.00     0.382 C 
ATOM     23  O   LIG d   1      -1.338  83.873 112.949  0.00  0.00    -0.241 OA
ATOM     24  O   LIG d   1      -1.097  82.747 111.122  0.00  0.00    -0.241 OA
ENDBRANCH   3  22
TORSDOF 7
ENDMDL
MODEL 4
REMARK VINA RESULT:      -5.0      2.846      4.713
REMARK  7 active torsions:
REMARK  status: ('A' for Active; 'I' for Inactive)
REMARK    1  A    between atoms: C_2  and  C_3 
REMARK    2  A    between atoms: C_3  and  O_6 
REMARK    3  A    between atoms: C_3  and  C_4 
REMARK    4  A    between atoms: C_7  and  O_6 
REMARK    5  A    between atoms: C_9  and  C_10 
REMARK    6  A    between atoms: N_15  and  C_14 
REMARK    7  A    between atoms: N_20  and  C_19 
REMARK       I    between atoms: C_22  and  N_20 
ROOT
ATOM      1  C   LIG d   1      -4.224  77.503 116.620  0.00  0.00     0.161 C 
ATOM      2  C   LIG d   1      -4.760  78.760 116.946  0.00  0.00     0.016 C 
ATOM      3  C   LIG d   1      -4.037  79.969 116.826  0.00  0.00     0.038 C 
ATOM      4  C   LIG d   1      -2.771  80.020 116.224  0.00  0.00     0.028 C 
ATOM      5  C   LIG d   1      -1.991  78.715 116.344  0.00  0.00    -0.047 C 
ATOM      6  C   LIG d   1      -2.883  77.550 115.857  0.00  0.00     0.091 C 
ENDROOT
BRANCH   1   7
ATOM      7  O   LIG d   1      -5.194  76.735 115.881  0.00  0.00    -0.368 OA
BRANCH   7   8
ATOM      8  C   LIG d   1      -5.699  75.546 116.537  0.00  0.00     0.119 C 
BRANCH   8   9
ATOM      9  C   LIG d   1      -5.729  74.416 115.490  0.00  0.00     0.028 C 
ATOM     10  C   LIG d   1      -5.169  74.862 114.129  0.00  0.00     0.006 C 
ENDBRANCH   8   9
BRANCH   8  11
ATOM     11  C   LIG d   1      -7.155  75.730 116.977  0.00  0.00     0.028 C 
ATOM     12  C   LIG d   1      -7.740  74.473 117.641  0.00  0.00     0.006 C 
ENDBRANCH   8  11
ENDBRANCH   7   8
ENDBRANCH   1   7
BRANCH   6  13
ATOM     13  N   LIG d   1      -2.226  76.227 116.020  0.00  0.00    -0.311 N 
ATOM     14  C   LIG d   1      -1.586  75.600 115.034  0.00  0.00     0.210 C 
ATOM     15  C   LIG d   1      -0.998  74.237 115.410  0.00  0.00     0.109 C 
ATOM     16  O   LIG d   1      -1.422  76.058 113.893  0.00  0.00    -0.276 OA
ATOM     17  H   LIG d   1      -2.284  75.797 116.922  0.00  0.00     0.149 HD
ENDBRANCH   6  13
BRANCH   5  18
ATOM     18  N   LIG d   1      -0.752  78.863 115.557  0.00  0.00     0.381 N 
ATOM     19  H   LIG d   1      -0.945  79.362 114.711  0.00  0.00    -0.090 HD
ATOM     20  H   LIG d   1      -0.411  77.949 115.313  0.00  0.00    -0.090 HD
ATOM     21  H   LIG d   1      -0.066  79.350 116.089  0.00  0.00    -0.090 HD
ENDBRANCH   5  18
BRANCH   3  22
ATOM     22  C   LIG d   1      -4.566  81.140 117.347  0.00  0.00     0.382 C 
ATOM     23  O   LIG d   1      -4.181  81.558 118.466  0.00  0.00    -0.241 OA
ATOM     24  O   LIG d   1      -5.455  81.760 116.734  0.00  0.00    -0.241 OA
ENDBRANCH   3  22
TORSDOF 7
ENDMDL
MODEL 5
REMARK VINA RESULT:      -4.7      2.764      5.811
REMARK  7 active torsions:
REMARK  status: ('A' for Active; 'I' for Inactive)
REMARK    1  A    between atoms: C_2  and  C_3 
REMARK    2  A    between atoms: C_3  and  O_6 
REMARK    3  A    between atoms: C_3  and  C_4 
REMARK    4  A    between atoms: C_7  and  O_6 
REMARK    5  A    between atoms: C_9  and  C_10 
REMARK    6  A    between atoms: N_15  and  C_14 
REMARK    7  A    between atoms: N_20  and  C_19 
REMARK       I    between atoms: C_22  and  N_20 
ROOT
ATOM      1  C   LIG d   1      -3.913  78.534 116.567  0.00  0.00     0.161 C 
ATOM      2  C   LIG d   1      -3.604  77.342 115.890  0.00  0.00     0.016 C 
ATOM      3  C   LIG d   1      -4.411  76.183 115.946  0.00  0.00     0.038 C 
ATOM      4  C   LIG d   1      -5.670  76.185 116.566  0.00  0.00     0.028 C 
ATOM      5  C   LIG d   1      -5.790  77.211 117.688  0.00  0.00    -0.047 C 
ATOM      6  C   LIG d   1      -5.338  78.591 117.157  0.00  0.00     0.091 C 
ENDROOT
BRANCH   1   7
ATOM      7  O   LIG d   1      -3.686  79.662 115.699  0.00  0.00    -0.368 OA
BRANCH   7   8
ATOM      8  C   LIG d   1      -2.403  80.322 115.836  0.00  0.00     0.119 C 
BRANCH   8   9
ATOM      9  C   LIG d   1      -2.657  81.697 116.484  0.00  0.00     0.028 C 
ATOM     10  C   LIG d   1      -1.529  82.110 117.445  0.00  0.00     0.006 C 
ENDBRANCH   8   9
BRANCH   8  11
ATOM     11  C   LIG d   1      -1.784  80.626 114.468  0.00  0.00     0.028 C 
ATOM     12  C   LIG d   1      -2.637  81.592 113.630  0.00  0.00     0.006 C 
ENDBRANCH   8  11
ENDBRANCH   7   8
ENDBRANCH   1   7
BRANCH   6  13
ATOM     13  N   LIG d   1      -5.345  79.635 118.215  0.00  0.00    -0.311 N 
ATOM     14  C   LIG d   1      -5.882  80.842 118.049  0.00  0.00     0.210 C 
ATOM     15  C   LIG d   1      -5.763  81.774 119.259  0.00  0.00     0.109 C 
ATOM     16  O   LIG d   1      -6.473  81.219 117.027  0.00  0.00    -0.276 OA
ATOM     17  H   LIG d   1      -4.913  79.403 119.088  0.00  0.00     0.149 HD
ENDBRANCH   6  13
BRANCH   5  18
ATOM     18  N   LIG d   1      -7.190  77.201 118.153  0.00  0.00     0.381 N 
ATOM     19  H   LIG d   1      -7.450  78.115 118.465  0.00  0.00    -0.090 HD
ATOM     20  H   LIG d   1      -7.271  76.568 118.929  0.00  0.00    -0.090 HD
ATOM     21  H   LIG d   1      -7.792  76.911 117.414  0.00  0.00    -0.090 HD
ENDBRANCH   5  18
BRANCH   3  22
ATOM     22  C   LIG d   1      -3.943  74.993 115.412  0.00  0.00     0.382 C 
ATOM     23  O   LIG d   1      -3.207  74.244 116.098  0.00  0.00    -0.241 OA
ATOM     24  O   LIG d   1      -4.210  74.680 114.236  0.00  0.00    -0.241 OA
ENDBRANCH   3  22
TORSDOF 7
ENDMDL
MODEL 6
REMARK VINA RESULT:      -4.7      3.652      7.069
REMARK  7 active torsions:
REMARK  status: ('A' for Active; 'I' for Inactive)
REMARK    1  A    between atoms: C_2  and  C_3 
REMARK    2  A    between atoms: C_3  and  O_6 
REMARK    3  A    between atoms: C_3  and  C_4 
REMARK    4  A    between atoms: C_7  and  O_6 
REMARK    5  A    between atoms: C_9  and  C_10 
REMARK    6  A    between atoms: N_15  and  C_14 
REMARK    7  A    between atoms: N_20  and  C_19 
REMARK       I    between atoms: C_22  and  N_20 
ROOT
ATOM      1  C   LIG d   1      -5.982  78.541 117.729  0.00  0.00     0.161 C 
ATOM      2  C   LIG d   1      -7.284  78.131 118.060  0.00  0.00     0.016 C 
ATOM      3  C   LIG d   1      -8.307  79.028 118.446  0.00  0.00     0.038 C 
ATOM      4  C   LIG d   1      -8.137  80.419 118.381  0.00  0.00     0.028 C 
ATOM      5  C   LIG d   1      -6.686  80.860 118.538  0.00  0.00    -0.047 C 
ATOM      6  C   LIG d   1      -5.809  80.063 117.545  0.00  0.00     0.091 C 
ENDROOT
BRANCH   1   7
ATOM      7  O   LIG d   1      -5.534  77.840 116.551  0.00  0.00    -0.368 OA
BRANCH   7   8
ATOM      8  C   LIG d   1      -4.938  76.538 116.773  0.00  0.00     0.119 C 
BRANCH   8   9
ATOM      9  C   LIG d   1      -3.470  76.616 116.310  0.00  0.00     0.028 C 
ATOM     10  C   LIG d   1      -2.529  77.107 117.423  0.00  0.00     0.006 C 
ENDBRANCH   8   9
BRANCH   8  11
ATOM     11  C   LIG d   1      -5.586  75.470 115.887  0.00  0.00     0.028 C 
ATOM     12  C   LIG d   1      -5.294  75.678 114.392  0.00  0.00     0.006 C 
ENDBRANCH   8  11
ENDBRANCH   7   8
ENDBRANCH   1   7
BRANCH   6  13
ATOM     13  N   LIG d   1      -4.363  80.372 117.691  0.00  0.00    -0.311 N 
ATOM     14  C   LIG d   1      -3.597  80.791 116.684  0.00  0.00     0.210 C 
ATOM     15  C   LIG d   1      -2.129  81.033 117.046  0.00  0.00     0.109 C 
ATOM     16  O   LIG d   1      -4.002  81.014 115.533  0.00  0.00    -0.276 OA
ATOM     17  H   LIG d   1      -3.959  80.248 118.598  0.00  0.00     0.149 HD
ENDBRANCH   6  13
BRANCH   5  18
ATOM     18  N   LIG d   1      -6.636  82.317 118.313  0.00  0.00     0.381 N 
ATOM     19  H   LIG d   1      -7.285  82.571 117.595  0.00  0.00    -0.090 HD
ATOM     20  H   LIG d   1      -5.712  82.567 118.005  0.00  0.00    -0.090 HD
ATOM     21  H   LIG d   1      -6.855  82.800 119.156  0.00  0.00    -0.090 HD
ENDBRANCH   5  18
BRANCH   3  22
ATOM     22  C   LIG d   1      -9.504  78.533 118.942  0.00  0.00     0.382 C 
ATOM     23  O   LIG d   1     -10.060  77.559 118.379  0.00  0.00    -0.241 OA
ATOM     24  O   LIG d   1     -10.056  79.076 119.917  0.00  0.00    -0.241 OA
ENDBRANCH   3  22
TORSDOF 7
ENDMDL
MODEL 7
REMARK VINA RESULT:      -4.7      3.005      4.917
REMARK  7 active torsions:
REMARK  status: ('A' for Active; 'I' for Inactive)
REMARK    1  A    between atoms: C_2  and  C_3 
REMARK    2  A    between atoms: C_3  and  O_6 
REMARK    3  A    between atoms: C_3  and  C_4 
REMARK    4  A    between atoms: C_7  and  O_6 
REMARK    5  A    between atoms: C_9  and  C_10 
REMARK    6  A    between atoms: N_15  and  C_14 
REMARK    7  A    between atoms: N_20  and  C_19 
REMARK       I    between atoms: C_22  and  N_20 
ROOT
ATOM      1  C   LIG d   1      -4.091  77.317 117.703  0.00  0.00     0.161 C 
ATOM      2  C   LIG d   1      -4.799  78.515 117.902  0.00  0.00     0.016 C 
ATOM      3  C   LIG d   1      -4.516  79.710 117.201  0.00  0.00     0.038 C 
ATOM      4  C   LIG d   1      -3.601  79.748 116.139  0.00  0.00     0.028 C 
ATOM      5  C   LIG d   1      -2.507  78.691 116.244  0.00  0.00    -0.047 C 
ATOM      6  C   LIG d   1      -3.164  77.310 116.471  0.00  0.00     0.091 C 
ENDROOT
BRANCH   1   7
ATOM      7  O   LIG d   1      -5.012  76.210 117.644  0.00  0.00    -0.368 OA
BRANCH   7   8
ATOM      8  C   LIG d   1      -5.891  76.173 116.492  0.00  0.00     0.119 C 
BRANCH   8   9
ATOM      9  C   LIG d   1      -7.333  76.023 117.014  0.00  0.00     0.028 C 
ATOM     10  C   LIG d   1      -7.643  74.590 117.478  0.00  0.00     0.006 C 
ENDBRANCH   8   9
BRANCH   8  11
ATOM     11  C   LIG d   1      -5.637  74.928 115.638  0.00  0.00     0.028 C 
ATOM     12  C   LIG d   1      -5.394  75.260 114.157  0.00  0.00     0.006 C 
ENDBRANCH   8  11
ENDBRANCH   7   8
ENDBRANCH   1   7
BRANCH   6  13
ATOM     13  N   LIG d   1      -2.161  76.231 116.668  0.00  0.00    -0.311 N 
ATOM     14  C   LIG d   1      -1.702  75.467 115.679  0.00  0.00     0.210 C 
ATOM     15  C   LIG d   1      -0.687  74.401 116.103  0.00  0.00     0.109 C 
ATOM     16  O   LIG d   1      -2.014  75.593 114.485  0.00  0.00    -0.276 OA
ATOM     17  H   LIG d   1      -1.830  76.081 117.601  0.00  0.00     0.149 HD
ENDBRANCH   6  13
BRANCH   5  18
ATOM     18  N   LIG d   1      -1.706  78.754 115.007  0.00  0.00     0.381 N 
ATOM     19  H   LIG d   1      -2.209  79.255 114.302  0.00  0.00    -0.090 HD
ATOM     20  H   LIG d   1      -1.546  77.819 114.675  0.00  0.00    -0.090 HD
ATOM     21  H   LIG d   1      -0.835  79.204 115.187  0.00  0.00    -0.090 HD
ENDBRANCH   5  18
BRANCH   3  22
ATOM     22  C   LIG d   1      -5.126  80.894 117.588  0.00  0.00     0.382 C 
ATOM     23  O   LIG d   1      -4.776  81.460 118.652  0.00  0.00    -0.241 OA
ATOM     24  O   LIG d   1      -6.051  81.379 116.911  0.00  0.00    -0.241 OA
ENDBRANCH   3  22
TORSDOF 7
ENDMDL
MODEL 8
REMARK VINA RESULT:      -4.6      2.063      2.763
REMARK  7 active torsions:
REMARK  status: ('A' for Active; 'I' for Inactive)
REMARK    1  A    between atoms: C_2  and  C_3 
REMARK    2  A    between atoms: C_3  and  O_6 
REMARK    3  A    between atoms: C_3  and  C_4 
REMARK    4  A    between atoms: C_7  and  O_6 
REMARK    5  A    between atoms: C_9  and  C_10 
REMARK    6  A    between atoms: N_15  and  C_14 
REMARK    7  A    between atoms: N_20  and  C_19 
REMARK       I    between atoms: C_22  and  N_20 
ROOT
ATOM      1  C   LIG d   1      -2.338  79.137 115.727  0.00  0.00     0.161 C 
ATOM      2  C   LIG d   1      -2.788  80.466 115.658  0.00  0.00     0.016 C 
ATOM      3  C   LIG d   1      -2.665  81.270 114.501  0.00  0.00     0.038 C 
ATOM      4  C   LIG d   1      -2.217  80.747 113.279  0.00  0.00     0.028 C 
ATOM      5  C   LIG d   1      -1.282  79.553 113.438  0.00  0.00    -0.047 C 
ATOM      6  C   LIG d   1      -1.948  78.515 114.370  0.00  0.00     0.091 C 
ENDROOT
BRANCH   1   7
ATOM      7  O   LIG d   1      -3.326  78.321 116.387  0.00  0.00    -0.368 OA
BRANCH   7   8
ATOM      8  C   LIG d   1      -3.066  78.004 117.777  0.00  0.00     0.119 C 
BRANCH   8   9
ATOM      9  C   LIG d   1      -1.562  78.227 118.029  0.00  0.00     0.028 C 
ATOM     10  C   LIG d   1      -1.299  79.214 119.178  0.00  0.00     0.006 C 
ENDBRANCH   8   9
BRANCH   8  11
ATOM     11  C   LIG d   1      -3.310  76.520 118.065  0.00  0.00     0.028 C 
ATOM     12  C   LIG d   1      -2.010  75.742 118.324  0.00  0.00     0.006 C 
ENDBRANCH   8  11
ENDBRANCH   7   8
ENDBRANCH   1   7
BRANCH   6  13
ATOM     13  N   LIG d   1      -1.065  77.352 114.646  0.00  0.00    -0.311 N 
ATOM     14  C   LIG d   1      -1.491  76.090 114.643  0.00  0.00     0.210 C 
ATOM     15  C   LIG d   1      -0.421  75.045 114.972  0.00  0.00     0.109 C 
ATOM     16  O   LIG d   1      -2.647  75.735 114.366  0.00  0.00    -0.276 OA
ATOM     17  H   LIG d   1      -0.104  77.547 114.850  0.00  0.00     0.149 HD
ENDBRANCH   6  13
BRANCH   5  18
ATOM     18  N   LIG d   1      -1.003  79.023 112.090  0.00  0.00     0.381 N 
ATOM     19  H   LIG d   1      -1.809  78.546 111.740  0.00  0.00    -0.090 HD
ATOM     20  H   LIG d   1      -0.247  78.364 112.150  0.00  0.00    -0.090 HD
ATOM     21  H   LIG d   1      -0.756  79.768 111.475  0.00  0.00    -0.090 HD
ENDBRANCH   5  18
BRANCH   3  22
ATOM     22  C   LIG d   1      -2.955  82.624 114.571  0.00  0.00     0.382 C 
ATOM     23  O   LIG d   1      -2.055  83.471 114.352  0.00  0.00    -0.241 OA
ATOM     24  O   LIG d   1      -4.094  83.010 114.895  0.00  0.00    -0.241 OA
ENDBRANCH   3  22
TORSDOF 7
ENDMDL
MODEL 9
REMARK VINA RESULT:      -4.6      1.841      4.788
REMARK  7 active torsions:
REMARK  status: ('A' for Active; 'I' for Inactive)
REMARK    1  A    between atoms: C_2  and  C_3 
REMARK    2  A    between atoms: C_3  and  O_6 
REMARK    3  A    between atoms: C_3  and  C_4 
REMARK    4  A    between atoms: C_7  and  O_6 
REMARK    5  A    between atoms: C_9  and  C_10 
REMARK    6  A    between atoms: N_15  and  C_14 
REMARK    7  A    between atoms: N_20  and  C_19 
REMARK       I    between atoms: C_22  and  N_20 
ROOT
ATOM      1  C   LIG d   1      -2.785  79.390 115.434  0.00  0.00     0.161 C 
ATOM      2  C   LIG d   1      -3.171  78.039 115.415  0.00  0.00     0.016 C 
ATOM      3  C   LIG d   1      -2.863  77.157 114.354  0.00  0.00     0.038 C 
ATOM      4  C   LIG d   1      -2.013  77.530 113.302  0.00  0.00     0.028 C 
ATOM      5  C   LIG d   1      -2.016  79.029 113.024  0.00  0.00    -0.047 C 
ATOM      6  C   LIG d   1      -1.763  79.786 114.348  0.00  0.00     0.091 C 
ENDROOT
BRANCH   1   7
ATOM      7  O   LIG d   1      -2.288  79.738 116.741  0.00  0.00    -0.368 OA
BRANCH   7   8
ATOM      8  C   LIG d   1      -3.253  80.308 117.659  0.00  0.00     0.119 C 
BRANCH   8   9
ATOM      9  C   LIG d   1      -4.193  81.213 116.839  0.00  0.00     0.028 C 
ATOM     10  C   LIG d   1      -5.617  81.259 117.419  0.00  0.00     0.006 C 
ENDBRANCH   8   9
BRANCH   8  11
ATOM     11  C   LIG d   1      -2.578  81.237 118.672  0.00  0.00     0.028 C 
ATOM     12  C   LIG d   1      -1.399  82.018 118.070  0.00  0.00     0.006 C 
ENDBRANCH   8  11
ENDBRANCH   7   8
ENDBRANCH   1   7
BRANCH   6  13
ATOM     13  N   LIG d   1      -1.833  81.261 114.181  0.00  0.00    -0.311 N 
ATOM     14  C   LIG d   1      -0.819  82.079 114.456  0.00  0.00     0.210 C 
ATOM     15  C   LIG d   1      -1.108  83.566 114.232  0.00  0.00     0.109 C 
ATOM     16  O   LIG d   1       0.304  81.711 114.833  0.00  0.00    -0.276 OA
ATOM     17  H   LIG d   1      -2.697  81.641 113.849  0.00  0.00     0.149 HD
ENDBRANCH   6  13
BRANCH   5  18
ATOM     18  N   LIG d   1      -0.987  79.294 112.001  0.00  0.00     0.381 N 
ATOM     19  H   LIG d   1      -1.112  80.213 111.624  0.00  0.00    -0.090 HD
ATOM     20  H   LIG d   1      -1.091  78.630 111.255  0.00  0.00    -0.090 HD
ATOM     21  H   LIG d   1      -0.078  79.214 112.402  0.00  0.00    -0.090 HD
ENDBRANCH   5  18
BRANCH   3  22
ATOM     22  C   LIG d   1      -3.442  75.897 114.318  0.00  0.00     0.382 C 
ATOM     23  O   LIG d   1      -4.501  75.712 113.672  0.00  0.00    -0.241 OA
ATOM     24  O   LIG d   1      -2.941  74.954 114.959  0.00  0.00    -0.241 OA
ENDBRANCH   3  22
TORSDOF 7
ENDMDL
