MODEL 1
REMARK VINA RESULT:      -5.1      0.000      0.000
REMARK  7 active torsions:
REMARK  status: ('A' for Active; 'I' for Inactive)
REMARK    1  A    between atoms: C_2  and  C_3 
REMARK    2  A    between atoms: C_3  and  O_6 
REMARK    3  A    between atoms: C_3  and  C_4 
REMARK    4  A    between atoms: C_7  and  O_6 
REMARK    5  A    between atoms: C_9  and  C_10 
REMARK    6  A    between atoms: N_15  and  C_14 
REMARK    7  A    between atoms: N_20  and  C_19 
REMARK       I    between atoms: C_22  and  N_20 
ROOT
ATOM      1  C   LIG d   1      -2.307  78.041 115.129  0.00  0.00     0.161 C 
ATOM      2  C   LIG d   1      -2.744  79.210 114.483  0.00  0.00     0.016 C 
ATOM      3  C   LIG d   1      -2.316  79.591 113.191  0.00  0.00     0.038 C 
ATOM      4  C   LIG d   1      -1.533  78.746 112.390  0.00  0.00     0.028 C 
ATOM      5  C   LIG d   1      -0.658  77.789 113.194  0.00  0.00    -0.047 C 
ATOM      6  C   LIG d   1      -1.540  77.052 114.227  0.00  0.00     0.091 C 
ENDROOT
BRANCH   1   7
ATOM      7  O   LIG d   1      -3.425  77.383 115.757  0.00  0.00    -0.368 OA
BRANCH   7   8
ATOM      8  C   LIG d   1      -3.494  77.482 117.201  0.00  0.00     0.119 C 
BRANCH   8   9
ATOM      9  C   LIG d   1      -4.509  78.591 117.541  0.00  0.00     0.028 C 
ATOM     10  C   LIG d   1      -5.965  78.111 117.421  0.00  0.00     0.006 C 
ENDBRANCH   8   9
BRANCH   8  11
ATOM     11  C   LIG d   1      -2.163  77.956 117.792  0.00  0.00     0.028 C 
ATOM     12  C   LIG d   1      -1.481  76.885 118.658  0.00  0.00     0.006 C 
ENDBRANCH   8  11
ENDBRANCH   7   8
ENDBRANCH   1   7
BRANCH   6  13
ATOM     13  N   LIG d   1      -0.748  76.158 115.112  0.00  0.00    -0.311 N 
ATOM     14  C   LIG d   1      -1.134  74.927 115.445  0.00  0.00     0.210 C 
ATOM     15  C   LIG d   1      -0.180  74.182 116.384  0.00  0.00     0.109 C 
ATOM     16  O   LIG d   1      -2.160  74.370 115.025  0.00  0.00    -0.276 OA
ATOM     17  H   LIG d   1       0.113  76.519 115.472  0.00  0.00     0.149 HD
ENDBRANCH   6  13
BRANCH   5  18
ATOM     18  N   LIG d   1      -0.002  76.877 112.238  0.00  0.00     0.381 N 
ATOM     19  H   LIG d   1       0.034  75.954 112.622  0.00  0.00    -0.090 HD
ATOM     20  H   LIG d   1       0.940  77.191 112.084  0.00  0.00    -0.090 HD
ATOM     21  H   LIG d   1      -0.502  76.867 111.377  0.00  0.00    -0.090 HD
ENDBRANCH   5  18
BRANCH   3  22
ATOM     22  C   LIG d   1      -2.639  80.848 112.703  0.00  0.00     0.382 C 
ATOM     23  O   LIG d   1      -3.841  81.169 112.544  0.00  0.00    -0.241 OA
ATOM     24  O   LIG d   1      -1.742  81.649 112.377  0.00  0.00    -0.241 OA
ENDBRANCH   3  22
TORSDOF 7
ENDMDL
MODEL 2
REMARK VINA RESULT:      -4.9      2.410      3.233
REMARK  7 active torsions:
REMARK  status: ('A' for Active; 'I' for Inactive)
REMARK    1  A    between atoms: C_2  and  C_3 
REMARK    2  A    between atoms: C_3  and  O_6 
REMARK    3  A    between atoms: C_3  and  C_4 
REMARK    4  A    between atoms: C_7  and  O_6 
REMARK    5  A    between atoms: C_9  and  C_10 
REMARK    6  A    between atoms: N_15  and  C_14 
REMARK    7  A    between atoms: N_20  and  C_19 
REMARK       I    between atoms: C_22  and  N_20 
ROOT
ATOM      1  C   LIG d   1      -3.412  77.194 114.144  0.00  0.00     0.161 C 
ATOM      2  C   LIG d   1      -3.421  78.477 113.573  0.00  0.00     0.016 C 
ATOM      3  C   LIG d   1      -2.249  79.157 113.169  0.00  0.00     0.038 C 
ATOM      4  C   LIG d   1      -0.992  78.534 113.169  0.00  0.00     0.028 C 
ATOM      5  C   LIG d   1      -0.868  77.423 114.207  0.00  0.00    -0.047 C 
ATOM      6  C   LIG d   1      -2.061  76.453 114.050  0.00  0.00     0.091 C 
ENDROOT
BRANCH   1   7
ATOM      7  O   LIG d   1      -4.463  76.394 113.566  0.00  0.00    -0.368 OA
BRANCH   7   8
ATOM      8  C   LIG d   1      -5.738  76.425 114.254  0.00  0.00     0.119 C 
BRANCH   8   9
ATOM      9  C   LIG d   1      -5.789  75.200 115.188  0.00  0.00     0.028 C 
ATOM     10  C   LIG d   1      -7.029  75.207 116.097  0.00  0.00     0.006 C 
ENDBRANCH   8   9
BRANCH   8  11
ATOM     11  C   LIG d   1      -6.902  76.238 113.276  0.00  0.00     0.028 C 
ATOM     12  C   LIG d   1      -6.769  77.111 112.018  0.00  0.00     0.006 C 
ENDBRANCH   8  11
ENDBRANCH   7   8
ENDBRANCH   1   7
BRANCH   6  13
ATOM     13  N   LIG d   1      -2.062  75.384 115.082  0.00  0.00    -0.311 N 
ATOM     14  C   LIG d   1      -2.133  75.626 116.389  0.00  0.00     0.210 C 
ATOM     15  C   LIG d   1      -2.099  74.381 117.281  0.00  0.00     0.109 C 
ATOM     16  O   LIG d   1      -2.253  76.753 116.894  0.00  0.00    -0.276 OA
ATOM     17  H   LIG d   1      -1.998  74.438 114.758  0.00  0.00     0.149 HD
ENDBRANCH   6  13
BRANCH   5  18
ATOM     18  N   LIG d   1       0.439  76.769 114.004  0.00  0.00     0.381 N 
ATOM     19  H   LIG d   1       0.644  76.717 113.027  0.00  0.00    -0.090 HD
ATOM     20  H   LIG d   1       0.394  75.833 114.368  0.00  0.00    -0.090 HD
ATOM     21  H   LIG d   1       1.153  77.282 114.474  0.00  0.00    -0.090 HD
ENDBRANCH   5  18
BRANCH   3  22
ATOM     22  C   LIG d   1      -2.323  80.491 112.795  0.00  0.00     0.382 C 
ATOM     23  O   LIG d   1      -1.318  81.061 112.305  0.00  0.00    -0.241 OA
ATOM     24  O   LIG d   1      -3.367  81.143 112.983  0.00  0.00    -0.241 OA
ENDBRANCH   3  22
TORSDOF 7
ENDMDL
MODEL 3
REMARK VINA RESULT:      -4.9      2.131      2.580
REMARK  7 active torsions:
REMARK  status: ('A' for Active; 'I' for Inactive)
REMARK    1  A    between atoms: C_2  and  C_3 
REMARK    2  A    between atoms: C_3  and  O_6 
REMARK    3  A    between atoms: C_3  and  C_4 
REMARK    4  A    between atoms: C_7  and  O_6 
REMARK    5  A    between atoms: C_9  and  C_10 
REMARK    6  A    between atoms: N_15  and  C_14 
REMARK    7  A    between atoms: N_20  and  C_19 
REMARK       I    between atoms: C_22  and  N_20 
ROOT
ATOM      1  C   LIG d   1      -2.616  77.601 114.927  0.00  0.00     0.161 C 
ATOM      2  C   LIG d   1      -2.898  78.843 114.334  0.00  0.00     0.016 C 
ATOM      3  C   LIG d   1      -2.268  79.303 113.154  0.00  0.00     0.038 C 
ATOM      4  C   LIG d   1      -1.417  78.481 112.400  0.00  0.00     0.028 C 
ATOM      5  C   LIG d   1      -0.716  77.411 113.230  0.00  0.00    -0.047 C 
ATOM      6  C   LIG d   1      -1.773  76.645 114.058  0.00  0.00     0.091 C 
ENDROOT
BRANCH   1   7
ATOM      7  O   LIG d   1      -3.844  76.962 115.329  0.00  0.00    -0.368 OA
BRANCH   7   8
ATOM      8  C   LIG d   1      -4.376  75.973 114.414  0.00  0.00     0.119 C 
BRANCH   8   9
ATOM      9  C   LIG d   1      -5.841  76.352 114.123  0.00  0.00     0.028 C 
ATOM     10  C   LIG d   1      -6.060  76.766 112.658  0.00  0.00     0.006 C 
ENDBRANCH   8   9
BRANCH   8  11
ATOM     11  C   LIG d   1      -4.438  74.588 115.065  0.00  0.00     0.028 C 
ATOM     12  C   LIG d   1      -5.864  74.182 115.469  0.00  0.00     0.006 C 
ENDBRANCH   8  11
ENDBRANCH   7   8
ENDBRANCH   1   7
BRANCH   6  13
ATOM     13  N   LIG d   1      -1.163  75.636 114.962  0.00  0.00    -0.311 N 
ATOM     14  C   LIG d   1      -0.337  75.948 115.958  0.00  0.00     0.210 C 
ATOM     15  C   LIG d   1       0.195  74.754 116.756  0.00  0.00     0.109 C 
ATOM     16  O   LIG d   1      -0.019  77.104 116.278  0.00  0.00    -0.276 OA
ATOM     17  H   LIG d   1      -1.391  74.676 114.793  0.00  0.00     0.149 HD
ENDBRANCH   6  13
BRANCH   5  18
ATOM     18  N   LIG d   1       0.029  76.542 112.299  0.00  0.00     0.381 N 
ATOM     19  H   LIG d   1      -0.569  75.815 111.962  0.00  0.00    -0.090 HD
ATOM     20  H   LIG d   1       0.795  76.118 112.792  0.00  0.00    -0.090 HD
ATOM     21  H   LIG d   1       0.374  77.079 111.534  0.00  0.00    -0.090 HD
ENDBRANCH   5  18
BRANCH   3  22
ATOM     22  C   LIG d   1      -2.456  80.612 112.740  0.00  0.00     0.382 C 
ATOM     23  O   LIG d   1      -3.615  81.090 112.678  0.00  0.00    -0.241 OA
ATOM     24  O   LIG d   1      -1.486  81.309 112.386  0.00  0.00    -0.241 OA
ENDBRANCH   3  22
TORSDOF 7
ENDMDL
MODEL 4
REMARK VINA RESULT:      -4.7      2.534      3.740
REMARK  7 active torsions:
REMARK  status: ('A' for Active; 'I' for Inactive)
REMARK    1  A    between atoms: C_2  and  C_3 
REMARK    2  A    between atoms: C_3  and  O_6 
REMARK    3  A    between atoms: C_3  and  C_4 
REMARK    4  A    between atoms: C_7  and  O_6 
REMARK    5  A    between atoms: C_9  and  C_10 
REMARK    6  A    between atoms: N_15  and  C_14 
REMARK    7  A    between atoms: N_20  and  C_19 
REMARK       I    between atoms: C_22  and  N_20 
ROOT
ATOM      1  C   LIG d   1      -3.247  77.863 114.861  0.00  0.00     0.161 C 
ATOM      2  C   LIG d   1      -2.938  77.526 113.532  0.00  0.00     0.016 C 
ATOM      3  C   LIG d   1      -1.615  77.397 113.050  0.00  0.00     0.038 C 
ATOM      4  C   LIG d   1      -0.505  77.449 113.907  0.00  0.00     0.028 C 
ATOM      5  C   LIG d   1      -0.745  78.286 115.159  0.00  0.00    -0.047 C 
ATOM      6  C   LIG d   1      -2.052  77.815 115.835  0.00  0.00     0.091 C 
ENDROOT
BRANCH   1   7
ATOM      7  O   LIG d   1      -4.319  77.027 115.340  0.00  0.00    -0.368 OA
BRANCH   7   8
ATOM      8  C   LIG d   1      -4.714  75.937 114.472  0.00  0.00     0.119 C 
BRANCH   8   9
ATOM      9  C   LIG d   1      -6.224  76.081 114.204  0.00  0.00     0.028 C 
ATOM     10  C   LIG d   1      -7.044  76.176 115.502  0.00  0.00     0.006 C 
ENDBRANCH   8   9
BRANCH   8  11
ATOM     11  C   LIG d   1      -4.553  74.583 115.170  0.00  0.00     0.028 C 
ATOM     12  C   LIG d   1      -3.131  74.354 115.706  0.00  0.00     0.006 C 
ENDBRANCH   8  11
ENDBRANCH   7   8
ENDBRANCH   1   7
BRANCH   6  13
ATOM     13  N   LIG d   1      -2.405  78.637 117.022  0.00  0.00    -0.311 N 
ATOM     14  C   LIG d   1      -2.585  78.129 118.239  0.00  0.00     0.210 C 
ATOM     15  C   LIG d   1      -2.964  79.150 119.317  0.00  0.00     0.109 C 
ATOM     16  O   LIG d   1      -2.436  76.934 118.536  0.00  0.00    -0.276 OA
ATOM     17  H   LIG d   1      -2.516  79.622 116.877  0.00  0.00     0.149 HD
ENDBRANCH   6  13
BRANCH   5  18
ATOM     18  N   LIG d   1       0.440  78.142 116.025  0.00  0.00     0.381 N 
ATOM     19  H   LIG d   1       1.242  77.923 115.469  0.00  0.00    -0.090 HD
ATOM     20  H   LIG d   1       0.284  77.383 116.665  0.00  0.00    -0.090 HD
ATOM     21  H   LIG d   1       0.598  78.985 116.531  0.00  0.00    -0.090 HD
ENDBRANCH   5  18
BRANCH   3  22
ATOM     22  C   LIG d   1      -1.390  77.253 111.690  0.00  0.00     0.382 C 
ATOM     23  O   LIG d   1      -0.852  76.209 111.250  0.00  0.00    -0.241 OA
ATOM     24  O   LIG d   1      -1.679  78.173 110.901  0.00  0.00    -0.241 OA
ENDBRANCH   3  22
TORSDOF 7
ENDMDL
MODEL 5
REMARK VINA RESULT:      -4.6      4.040      6.204
REMARK  7 active torsions:
REMARK  status: ('A' for Active; 'I' for Inactive)
REMARK    1  A    between atoms: C_2  and  C_3 
REMARK    2  A    between atoms: C_3  and  O_6 
REMARK    3  A    between atoms: C_3  and  C_4 
REMARK    4  A    between atoms: C_7  and  O_6 
REMARK    5  A    between atoms: C_9  and  C_10 
REMARK    6  A    between atoms: N_15  and  C_14 
REMARK    7  A    between atoms: N_20  and  C_19 
REMARK       I    between atoms: C_22  and  N_20 
ROOT
ATOM      1  C   LIG d   1      -6.247  78.124 117.500  0.00  0.00     0.161 C 
ATOM      2  C   LIG d   1      -7.369  78.970 117.525  0.00  0.00     0.016 C 
ATOM      3  C   LIG d   1      -7.371  80.243 118.140  0.00  0.00     0.038 C 
ATOM      4  C   LIG d   1      -6.198  80.824 118.646  0.00  0.00     0.028 C 
ATOM      5  C   LIG d   1      -5.159  79.801 119.093  0.00  0.00    -0.047 C 
ATOM      6  C   LIG d   1      -4.928  78.787 117.949  0.00  0.00     0.091 C 
ENDROOT
BRANCH   1   7
ATOM      7  O   LIG d   1      -6.097  77.549 116.187  0.00  0.00    -0.368 OA
BRANCH   7   8
ATOM      8  C   LIG d   1      -6.335  76.123 116.085  0.00  0.00     0.119 C 
BRANCH   8   9
ATOM      9  C   LIG d   1      -5.612  75.623 114.819  0.00  0.00     0.028 C 
ATOM     10  C   LIG d   1      -4.832  74.321 115.065  0.00  0.00     0.006 C 
ENDBRANCH   8   9
BRANCH   8  11
ATOM     11  C   LIG d   1      -7.818  75.821 115.852  0.00  0.00     0.028 C 
ATOM     12  C   LIG d   1      -8.453  75.030 117.007  0.00  0.00     0.006 C 
ENDBRANCH   8  11
ENDBRANCH   7   8
ENDBRANCH   1   7
BRANCH   6  13
ATOM     13  N   LIG d   1      -3.988  77.703 118.334  0.00  0.00    -0.311 N 
ATOM     14  C   LIG d   1      -3.020  77.254 117.536  0.00  0.00     0.210 C 
ATOM     15  C   LIG d   1      -2.176  76.117 118.120  0.00  0.00     0.109 C 
ATOM     16  O   LIG d   1      -2.760  77.711 116.413  0.00  0.00    -0.276 OA
ATOM     17  H   LIG d   1      -4.107  77.296 119.241  0.00  0.00     0.149 HD
ENDBRANCH   6  13
BRANCH   5  18
ATOM     18  N   LIG d   1      -3.938  80.539 119.467  0.00  0.00     0.381 N 
ATOM     19  H   LIG d   1      -4.186  81.389 119.934  0.00  0.00    -0.090 HD
ATOM     20  H   LIG d   1      -3.432  80.774 118.631  0.00  0.00    -0.090 HD
ATOM     21  H   LIG d   1      -3.369  79.979 120.062  0.00  0.00    -0.090 HD
ENDBRANCH   5  18
BRANCH   3  22
ATOM     22  C   LIG d   1      -8.565  80.931 118.291  0.00  0.00     0.382 C 
ATOM     23  O   LIG d   1      -9.102  81.479 117.298  0.00  0.00    -0.241 OA
ATOM     24  O   LIG d   1      -9.088  81.050 119.415  0.00  0.00    -0.241 OA
ENDBRANCH   3  22
TORSDOF 7
ENDMDL
MODEL 6
REMARK VINA RESULT:      -4.5      2.677      5.388
REMARK  7 active torsions:
REMARK  status: ('A' for Active; 'I' for Inactive)
REMARK    1  A    between atoms: C_2  and  C_3 
REMARK    2  A    between atoms: C_3  and  O_6 
REMARK    3  A    between atoms: C_3  and  C_4 
REMARK    4  A    between atoms: C_7  and  O_6 
REMARK    5  A    between atoms: C_9  and  C_10 
REMARK    6  A    between atoms: N_15  and  C_14 
REMARK    7  A    between atoms: N_20  and  C_19 
REMARK       I    between atoms: C_22  and  N_20 
ROOT
ATOM      1  C   LIG d   1      -2.852  75.466 115.058  0.00  0.00     0.161 C 
ATOM      2  C   LIG d   1      -2.741  75.112 116.413  0.00  0.00     0.016 C 
ATOM      3  C   LIG d   1      -2.096  75.920 117.378  0.00  0.00     0.038 C 
ATOM      4  C   LIG d   1      -1.648  77.215 117.080  0.00  0.00     0.028 C 
ATOM      5  C   LIG d   1      -1.288  77.409 115.611  0.00  0.00    -0.047 C 
ATOM      6  C   LIG d   1      -2.467  76.926 114.737  0.00  0.00     0.091 C 
ENDROOT
BRANCH   1   7
ATOM      7  O   LIG d   1      -4.185  75.185 114.587  0.00  0.00    -0.368 OA
BRANCH   7   8
ATOM      8  C   LIG d   1      -5.152  76.254 114.732  0.00  0.00     0.119 C 
BRANCH   8   9
ATOM      9  C   LIG d   1      -5.803  76.104 116.120  0.00  0.00     0.028 C 
ATOM     10  C   LIG d   1      -7.078  75.245 116.080  0.00  0.00     0.006 C 
ENDBRANCH   8   9
BRANCH   8  11
ATOM     11  C   LIG d   1      -6.298  76.109 113.727  0.00  0.00     0.028 C 
ATOM     12  C   LIG d   1      -6.031  76.847 112.406  0.00  0.00     0.006 C 
ENDBRANCH   8  11
ENDBRANCH   7   8
ENDBRANCH   1   7
BRANCH   6  13
ATOM     13  N   LIG d   1      -2.165  77.003 113.284  0.00  0.00    -0.311 N 
ATOM     14  C   LIG d   1      -2.501  78.040 112.519  0.00  0.00     0.210 C 
ATOM     15  C   LIG d   1      -2.113  77.907 111.043  0.00  0.00     0.109 C 
ATOM     16  O   LIG d   1      -3.055  79.071 112.929  0.00  0.00    -0.276 OA
ATOM     17  H   LIG d   1      -1.689  76.222 112.875  0.00  0.00     0.149 HD
ENDBRANCH   6  13
BRANCH   5  18
ATOM     18  N   LIG d   1      -0.970  78.836 115.415  0.00  0.00     0.381 N 
ATOM     19  H   LIG d   1      -0.833  79.022 114.442  0.00  0.00    -0.090 HD
ATOM     20  H   LIG d   1      -0.116  79.049 115.900  0.00  0.00    -0.090 HD
ATOM     21  H   LIG d   1      -1.710  79.402 115.768  0.00  0.00    -0.090 HD
ENDBRANCH   5  18
BRANCH   3  22
ATOM     22  C   LIG d   1      -1.858  75.416 118.647  0.00  0.00     0.382 C 
ATOM     23  O   LIG d   1      -1.717  74.180 118.815  0.00  0.00    -0.241 OA
ATOM     24  O   LIG d   1      -1.828  76.176 119.633  0.00  0.00    -0.241 OA
ENDBRANCH   3  22
TORSDOF 7
ENDMDL
MODEL 7
REMARK VINA RESULT:      -4.4      3.338      5.219
REMARK  7 active torsions:
REMARK  status: ('A' for Active; 'I' for Inactive)
REMARK    1  A    between atoms: C_2  and  C_3 
REMARK    2  A    between atoms: C_3  and  O_6 
REMARK    3  A    between atoms: C_3  and  C_4 
REMARK    4  A    between atoms: C_7  and  O_6 
REMARK    5  A    between atoms: C_9  and  C_10 
REMARK    6  A    between atoms: N_15  and  C_14 
REMARK    7  A    between atoms: N_20  and  C_19 
REMARK       I    between atoms: C_22  and  N_20 
ROOT
ATOM      1  C   LIG d   1      -5.302  78.290 117.287  0.00  0.00     0.161 C 
ATOM      2  C   LIG d   1      -4.074  78.945 117.093  0.00  0.00     0.016 C 
ATOM      3  C   LIG d   1      -3.004  78.389 116.355  0.00  0.00     0.038 C 
ATOM      4  C   LIG d   1      -3.145  77.197 115.629  0.00  0.00     0.028 C 
ATOM      5  C   LIG d   1      -4.196  76.256 116.208  0.00  0.00    -0.047 C 
ATOM      6  C   LIG d   1      -5.513  77.039 116.410  0.00  0.00     0.091 C 
ENDROOT
BRANCH   1   7
ATOM      7  O   LIG d   1      -6.387  79.221 117.101  0.00  0.00    -0.368 OA
BRANCH   7   8
ATOM      8  C   LIG d   1      -6.774  79.991 118.266  0.00  0.00     0.119 C 
BRANCH   8   9
ATOM      9  C   LIG d   1      -7.852  79.185 119.015  0.00  0.00     0.028 C 
ATOM     10  C   LIG d   1      -9.081  78.891 118.138  0.00  0.00     0.006 C 
ENDBRANCH   8   9
BRANCH   8  11
ATOM     11  C   LIG d   1      -7.453  81.304 117.867  0.00  0.00     0.028 C 
ATOM     12  C   LIG d   1      -7.279  82.409 118.920  0.00  0.00     0.006 C 
ENDBRANCH   8  11
ENDBRANCH   7   8
ENDBRANCH   1   7
BRANCH   6  13
ATOM     13  N   LIG d   1      -6.571  76.214 117.050  0.00  0.00    -0.311 N 
ATOM     14  C   LIG d   1      -7.700  75.863 116.437  0.00  0.00     0.210 C 
ATOM     15  C   LIG d   1      -8.664  75.028 117.284  0.00  0.00     0.109 C 
ATOM     16  O   LIG d   1      -7.980  76.138 115.260  0.00  0.00    -0.276 OA
ATOM     17  H   LIG d   1      -6.411  75.921 117.994  0.00  0.00     0.149 HD
ENDBRANCH   6  13
BRANCH   5  18
ATOM     18  N   LIG d   1      -4.336  75.119 115.278  0.00  0.00     0.381 N 
ATOM     19  H   LIG d   1      -3.870  74.316 115.652  0.00  0.00    -0.090 HD
ATOM     20  H   LIG d   1      -3.901  75.358 114.404  0.00  0.00    -0.090 HD
ATOM     21  H   LIG d   1      -5.300  74.914 115.132  0.00  0.00    -0.090 HD
ENDBRANCH   5  18
BRANCH   3  22
ATOM     22  C   LIG d   1      -1.763  79.008 116.372  0.00  0.00     0.382 C 
ATOM     23  O   LIG d   1      -1.352  79.560 117.421  0.00  0.00    -0.241 OA
ATOM     24  O   LIG d   1      -1.069  79.059 115.339  0.00  0.00    -0.241 OA
ENDBRANCH   3  22
TORSDOF 7
ENDMDL
MODEL 8
REMARK VINA RESULT:      -4.3      2.919      4.384
REMARK  7 active torsions:
REMARK  status: ('A' for Active; 'I' for Inactive)
REMARK    1  A    between atoms: C_2  and  C_3 
REMARK    2  A    between atoms: C_3  and  O_6 
REMARK    3  A    between atoms: C_3  and  C_4 
REMARK    4  A    between atoms: C_7  and  O_6 
REMARK    5  A    between atoms: C_9  and  C_10 
REMARK    6  A    between atoms: N_15  and  C_14 
REMARK    7  A    between atoms: N_20  and  C_19 
REMARK       I    between atoms: C_22  and  N_20 
ROOT
ATOM      1  C   LIG d   1      -3.797  76.813 114.788  0.00  0.00     0.161 C 
ATOM      2  C   LIG d   1      -2.965  76.720 113.660  0.00  0.00     0.016 C 
ATOM      3  C   LIG d   1      -1.746  77.424 113.531  0.00  0.00     0.038 C 
ATOM      4  C   LIG d   1      -1.198  78.158 114.594  0.00  0.00     0.028 C 
ATOM      5  C   LIG d   1      -2.245  78.687 115.568  0.00  0.00    -0.047 C 
ATOM      6  C   LIG d   1      -3.161  77.521 116.003  0.00  0.00     0.091 C 
ENDROOT
BRANCH   1   7
ATOM      7  O   LIG d   1      -4.264  75.501 115.160  0.00  0.00    -0.368 OA
BRANCH   7   8
ATOM      8  C   LIG d   1      -5.581  75.134 114.681  0.00  0.00     0.119 C 
BRANCH   8   9
ATOM      9  C   LIG d   1      -6.340  76.438 114.368  0.00  0.00     0.028 C 
ATOM     10  C   LIG d   1      -6.837  76.494 112.914  0.00  0.00     0.006 C 
ENDBRANCH   8   9
BRANCH   8  11
ATOM     11  C   LIG d   1      -6.399  74.441 115.775  0.00  0.00     0.028 C 
ATOM     12  C   LIG d   1      -7.410  75.382 116.449  0.00  0.00     0.006 C 
ENDBRANCH   8  11
ENDBRANCH   7   8
ENDBRANCH   1   7
BRANCH   6  13
ATOM     13  N   LIG d   1      -4.266  77.969 116.891  0.00  0.00    -0.311 N 
ATOM     14  C   LIG d   1      -4.200  77.926 118.221  0.00  0.00     0.210 C 
ATOM     15  C   LIG d   1      -5.457  78.417 118.946  0.00  0.00     0.109 C 
ATOM     16  O   LIG d   1      -3.209  77.559 118.869  0.00  0.00    -0.276 OA
ATOM     17  H   LIG d   1      -5.096  78.311 116.449  0.00  0.00     0.149 HD
ENDBRANCH   6  13
BRANCH   5  18
ATOM     18  N   LIG d   1      -1.529  79.312 116.696  0.00  0.00     0.381 N 
ATOM     19  H   LIG d   1      -0.592  79.533 116.422  0.00  0.00    -0.090 HD
ATOM     20  H   LIG d   1      -1.488  78.657 117.458  0.00  0.00    -0.090 HD
ATOM     21  H   LIG d   1      -2.002  80.139 116.985  0.00  0.00    -0.090 HD
ENDBRANCH   5  18
BRANCH   3  22
ATOM     22  C   LIG d   1      -1.081  77.431 112.314  0.00  0.00     0.382 C 
ATOM     23  O   LIG d   1      -1.140  76.429 111.562  0.00  0.00    -0.241 OA
ATOM     24  O   LIG d   1      -0.387  78.410 111.979  0.00  0.00    -0.241 OA
ENDBRANCH   3  22
TORSDOF 7
ENDMDL
MODEL 9
REMARK VINA RESULT:      -4.3      2.280      4.652
REMARK  7 active torsions:
REMARK  status: ('A' for Active; 'I' for Inactive)
REMARK    1  A    between atoms: C_2  and  C_3 
REMARK    2  A    between atoms: C_3  and  O_6 
REMARK    3  A    between atoms: C_3  and  C_4 
REMARK    4  A    between atoms: C_7  and  O_6 
REMARK    5  A    between atoms: C_9  and  C_10 
REMARK    6  A    between atoms: N_15  and  C_14 
REMARK    7  A    between atoms: N_20  and  C_19 
REMARK       I    between atoms: C_22  and  N_20 
ROOT
ATOM      1  C   LIG d   1      -1.544  79.263 114.142  0.00  0.00     0.161 C 
ATOM      2  C   LIG d   1      -2.514  78.271 114.361  0.00  0.00     0.016 C 
ATOM      3  C   LIG d   1      -2.979  77.401 113.348  0.00  0.00     0.038 C 
ATOM      4  C   LIG d   1      -2.391  77.363 112.075  0.00  0.00     0.028 C 
ATOM      5  C   LIG d   1      -1.757  78.687 111.662  0.00  0.00    -0.047 C 
ATOM      6  C   LIG d   1      -0.811  79.163 112.788  0.00  0.00     0.091 C 
ENDROOT
BRANCH   1   7
ATOM      7  O   LIG d   1      -0.594  79.265 115.226  0.00  0.00    -0.368 OA
BRANCH   7   8
ATOM      8  C   LIG d   1      -0.769  78.233 116.228  0.00  0.00     0.119 C 
BRANCH   8   9
ATOM      9  C   LIG d   1      -0.780  78.922 117.606  0.00  0.00     0.028 C 
ATOM     10  C   LIG d   1      -2.205  79.141 118.141  0.00  0.00     0.006 C 
ENDBRANCH   8   9
BRANCH   8  11
ATOM     11  C   LIG d   1       0.430  77.280 116.261  0.00  0.00     0.028 C 
ATOM     12  C   LIG d   1       0.440  76.293 115.083  0.00  0.00     0.006 C 
ENDBRANCH   8  11
ENDBRANCH   7   8
ENDBRANCH   1   7
BRANCH   6  13
ATOM     13  N   LIG d   1      -0.213  80.493 112.501  0.00  0.00    -0.311 N 
ATOM     14  C   LIG d   1      -0.934  81.600 112.331  0.00  0.00     0.210 C 
ATOM     15  C   LIG d   1      -0.120  82.861 112.024  0.00  0.00     0.109 C 
ATOM     16  O   LIG d   1      -2.168  81.663 112.436  0.00  0.00    -0.276 OA
ATOM     17  H   LIG d   1       0.785  80.539 112.429  0.00  0.00     0.149 HD
ENDBRANCH   6  13
BRANCH   5  18
ATOM     18  N   LIG d   1      -1.063  78.467 110.378  0.00  0.00     0.381 N 
ATOM     19  H   LIG d   1      -0.642  77.560 110.372  0.00  0.00    -0.090 HD
ATOM     20  H   LIG d   1      -0.336  79.153 110.280  0.00  0.00    -0.090 HD
ATOM     21  H   LIG d   1      -1.709  78.547 109.624  0.00  0.00    -0.090 HD
ENDBRANCH   5  18
BRANCH   3  22
ATOM     22  C   LIG d   1      -4.072  76.583 113.593  0.00  0.00     0.382 C 
ATOM     23  O   LIG d   1      -3.966  75.618 114.389  0.00  0.00    -0.241 OA
ATOM     24  O   LIG d   1      -5.148  76.771 112.996  0.00  0.00    -0.241 OA
ENDBRANCH   3  22
TORSDOF 7
ENDMDL
