MODEL 1
REMARK VINA RESULT:      -5.7      0.000      0.000
REMARK  7 active torsions:
REMARK  status: ('A' for Active; 'I' for Inactive)
REMARK    1  A    between atoms: C_2  and  C_3 
REMARK    2  A    between atoms: C_3  and  O_6 
REMARK    3  A    between atoms: C_3  and  C_4 
REMARK    4  A    between atoms: C_7  and  O_6 
REMARK    5  A    between atoms: C_9  and  C_10 
REMARK    6  A    between atoms: N_15  and  C_14 
REMARK    7  A    between atoms: N_20  and  C_19 
REMARK       I    between atoms: C_22  and  N_20 
ROOT
ATOM      1  C   LIG d   1      -2.849  78.323 115.337  0.00  0.00     0.161 C 
ATOM      2  C   LIG d   1      -3.002  79.489 114.568  0.00  0.00     0.016 C 
ATOM      3  C   LIG d   1      -2.229  79.770 113.419  0.00  0.00     0.038 C 
ATOM      4  C   LIG d   1      -1.347  78.827 112.869  0.00  0.00     0.028 C 
ATOM      5  C   LIG d   1      -0.794  77.845 113.896  0.00  0.00    -0.047 C 
ATOM      6  C   LIG d   1      -1.970  77.232 114.690  0.00  0.00     0.091 C 
ENDROOT
BRANCH   1   7
ATOM      7  O   LIG d   1      -4.144  77.788 115.675  0.00  0.00    -0.368 OA
BRANCH   7   8
ATOM      8  C   LIG d   1      -4.775  78.343 116.855  0.00  0.00     0.119 C 
BRANCH   8   9
ATOM      9  C   LIG d   1      -4.271  77.542 118.071  0.00  0.00     0.028 C 
ATOM     10  C   LIG d   1      -4.542  78.263 119.402  0.00  0.00     0.006 C 
ENDBRANCH   8   9
BRANCH   8  11
ATOM     11  C   LIG d   1      -6.291  78.129 116.829  0.00  0.00     0.028 C 
ATOM     12  C   LIG d   1      -6.686  76.711 116.387  0.00  0.00     0.006 C 
ENDBRANCH   8  11
ENDBRANCH   7   8
ENDBRANCH   1   7
BRANCH   6  13
ATOM     13  N   LIG d   1      -1.511  76.324 115.772  0.00  0.00    -0.311 N 
ATOM     14  C   LIG d   1      -1.290  75.023 115.593  0.00  0.00     0.210 C 
ATOM     15  C   LIG d   1      -0.841  74.264 116.846  0.00  0.00     0.109 C 
ATOM     16  O   LIG d   1      -1.392  74.431 114.507  0.00  0.00    -0.276 OA
ATOM     17  H   LIG d   1      -1.373  76.727 116.679  0.00  0.00     0.149 HD
ENDBRANCH   6  13
BRANCH   5  18
ATOM     18  N   LIG d   1      -0.001  76.838 113.167  0.00  0.00     0.381 N 
ATOM     19  H   LIG d   1      -0.576  76.050 112.945  0.00  0.00    -0.090 HD
ATOM     20  H   LIG d   1       0.749  76.523 113.759  0.00  0.00    -0.090 HD
ATOM     21  H   LIG d   1       0.370  77.234 112.332  0.00  0.00    -0.090 HD
ENDBRANCH   5  18
BRANCH   3  22
ATOM     22  C   LIG d   1      -2.304  81.023 112.829  0.00  0.00     0.382 C 
ATOM     23  O   LIG d   1      -3.419  81.578 112.677  0.00  0.00    -0.241 OA
ATOM     24  O   LIG d   1      -1.276  81.585 112.407  0.00  0.00    -0.241 OA
ENDBRANCH   3  22
TORSDOF 7
ENDMDL
MODEL 2
REMARK VINA RESULT:      -5.4      3.390      5.979
REMARK  7 active torsions:
REMARK  status: ('A' for Active; 'I' for Inactive)
REMARK    1  A    between atoms: C_2  and  C_3 
REMARK    2  A    between atoms: C_3  and  O_6 
REMARK    3  A    between atoms: C_3  and  C_4 
REMARK    4  A    between atoms: C_7  and  O_6 
REMARK    5  A    between atoms: C_9  and  C_10 
REMARK    6  A    between atoms: N_15  and  C_14 
REMARK    7  A    between atoms: N_20  and  C_19 
REMARK       I    between atoms: C_22  and  N_20 
ROOT
ATOM      1  C   LIG d   1      -6.024  78.098 117.081  0.00  0.00     0.161 C 
ATOM      2  C   LIG d   1      -7.400  78.376 117.113  0.00  0.00     0.016 C 
ATOM      3  C   LIG d   1      -7.947  79.534 117.713  0.00  0.00     0.038 C 
ATOM      4  C   LIG d   1      -7.136  80.574 118.192  0.00  0.00     0.028 C 
ATOM      5  C   LIG d   1      -5.753  80.108 118.636  0.00  0.00    -0.047 C 
ATOM      6  C   LIG d   1      -5.116  79.274 117.501  0.00  0.00     0.091 C 
ENDROOT
BRANCH   1   7
ATOM      7  O   LIG d   1      -5.652  77.620 115.773  0.00  0.00    -0.368 OA
BRANCH   7   8
ATOM      8  C   LIG d   1      -5.261  76.228 115.691  0.00  0.00     0.119 C 
BRANCH   8   9
ATOM      9  C   LIG d   1      -4.020  76.148 114.780  0.00  0.00     0.028 C 
ATOM     10  C   LIG d   1      -2.852  75.400 115.444  0.00  0.00     0.006 C 
ENDBRANCH   8   9
BRANCH   8  11
ATOM     11  C   LIG d   1      -6.333  75.389 114.990  0.00  0.00     0.028 C 
ATOM     12  C   LIG d   1      -6.909  74.284 115.890  0.00  0.00     0.006 C 
ENDBRANCH   8  11
ENDBRANCH   7   8
ENDBRANCH   1   7
BRANCH   6  13
ATOM     13  N   LIG d   1      -3.796  78.709 117.884  0.00  0.00    -0.311 N 
ATOM     14  C   LIG d   1      -2.714  78.785 117.112  0.00  0.00     0.210 C 
ATOM     15  C   LIG d   1      -1.460  78.120 117.688  0.00  0.00     0.109 C 
ATOM     16  O   LIG d   1      -2.665  79.368 116.018  0.00  0.00    -0.276 OA
ATOM     17  H   LIG d   1      -3.739  78.246 118.770  0.00  0.00     0.149 HD
ENDBRANCH   6  13
BRANCH   5  18
ATOM     18  N   LIG d   1      -4.968  81.308 118.981  0.00  0.00     0.381 N 
ATOM     19  H   LIG d   1      -5.438  81.825 119.698  0.00  0.00    -0.090 HD
ATOM     20  H   LIG d   1      -4.894  81.893 118.168  0.00  0.00    -0.090 HD
ATOM     21  H   LIG d   1      -4.060  81.044 119.293  0.00  0.00    -0.090 HD
ENDBRANCH   5  18
BRANCH   3  22
ATOM     22  C   LIG d   1      -9.320  79.642 117.874  0.00  0.00     0.382 C 
ATOM     23  O   LIG d   1      -9.860  80.774 117.909  0.00  0.00    -0.241 OA
ATOM     24  O   LIG d   1     -10.019  78.623 118.029  0.00  0.00    -0.241 OA
ENDBRANCH   3  22
TORSDOF 7
ENDMDL
MODEL 3
REMARK VINA RESULT:      -4.9      1.735      2.104
REMARK  7 active torsions:
REMARK  status: ('A' for Active; 'I' for Inactive)
REMARK    1  A    between atoms: C_2  and  C_3 
REMARK    2  A    between atoms: C_3  and  O_6 
REMARK    3  A    between atoms: C_3  and  C_4 
REMARK    4  A    between atoms: C_7  and  O_6 
REMARK    5  A    between atoms: C_9  and  C_10 
REMARK    6  A    between atoms: N_15  and  C_14 
REMARK    7  A    between atoms: N_20  and  C_19 
REMARK       I    between atoms: C_22  and  N_20 
ROOT
ATOM      1  C   LIG d   1      -2.507  77.138 115.816  0.00  0.00     0.161 C 
ATOM      2  C   LIG d   1      -2.822  78.209 114.963  0.00  0.00     0.016 C 
ATOM      3  C   LIG d   1      -2.121  78.482 113.766  0.00  0.00     0.038 C 
ATOM      4  C   LIG d   1      -1.147  77.608 113.261  0.00  0.00     0.028 C 
ATOM      5  C   LIG d   1      -0.450  76.788 114.342  0.00  0.00    -0.047 C 
ATOM      6  C   LIG d   1      -1.521  76.109 115.225  0.00  0.00     0.091 C 
ENDROOT
BRANCH   1   7
ATOM      7  O   LIG d   1      -3.717  76.483 116.244  0.00  0.00    -0.368 OA
BRANCH   7   8
ATOM      8  C   LIG d   1      -4.868  76.638 115.378  0.00  0.00     0.119 C 
BRANCH   8   9
ATOM      9  C   LIG d   1      -6.083  76.952 116.272  0.00  0.00     0.028 C 
ATOM     10  C   LIG d   1      -5.942  78.298 117.003  0.00  0.00     0.006 C 
ENDBRANCH   8   9
BRANCH   8  11
ATOM     11  C   LIG d   1      -5.214  75.325 114.670  0.00  0.00     0.028 C 
ATOM     12  C   LIG d   1      -6.431  74.618 115.288  0.00  0.00     0.006 C 
ENDBRANCH   8  11
ENDBRANCH   7   8
ENDBRANCH   1   7
BRANCH   6  13
ATOM     13  N   LIG d   1      -0.925  75.355 116.359  0.00  0.00    -0.311 N 
ATOM     14  C   LIG d   1      -0.088  75.898 117.241  0.00  0.00     0.210 C 
ATOM     15  C   LIG d   1       0.425  74.939 118.320  0.00  0.00     0.109 C 
ATOM     16  O   LIG d   1       0.252  77.090 117.252  0.00  0.00    -0.276 OA
ATOM     17  H   LIG d   1      -1.172  74.388 116.444  0.00  0.00     0.149 HD
ENDBRANCH   6  13
BRANCH   5  18
ATOM     18  N   LIG d   1       0.439  75.824 113.666  0.00  0.00     0.381 N 
ATOM     19  H   LIG d   1       0.826  75.192 114.338  0.00  0.00    -0.090 HD
ATOM     20  H   LIG d   1       1.195  76.326 113.235  0.00  0.00    -0.090 HD
ATOM     21  H   LIG d   1      -0.069  75.317 112.976  0.00  0.00    -0.090 HD
ENDBRANCH   5  18
BRANCH   3  22
ATOM     22  C   LIG d   1      -2.364  79.663 113.081  0.00  0.00     0.382 C 
ATOM     23  O   LIG d   1      -3.121  80.531 113.578  0.00  0.00    -0.241 OA
ATOM     24  O   LIG d   1      -1.872  79.852 111.953  0.00  0.00    -0.241 OA
ENDBRANCH   3  22
TORSDOF 7
ENDMDL
MODEL 4
REMARK VINA RESULT:      -4.9      2.642      4.090
REMARK  7 active torsions:
REMARK  status: ('A' for Active; 'I' for Inactive)
REMARK    1  A    between atoms: C_2  and  C_3 
REMARK    2  A    between atoms: C_3  and  O_6 
REMARK    3  A    between atoms: C_3  and  C_4 
REMARK    4  A    between atoms: C_7  and  O_6 
REMARK    5  A    between atoms: C_9  and  C_10 
REMARK    6  A    between atoms: N_15  and  C_14 
REMARK    7  A    between atoms: N_20  and  C_19 
REMARK       I    between atoms: C_22  and  N_20 
ROOT
ATOM      1  C   LIG d   1      -4.335  76.871 116.612  0.00  0.00     0.161 C 
ATOM      2  C   LIG d   1      -5.260  77.830 117.057  0.00  0.00     0.016 C 
ATOM      3  C   LIG d   1      -5.040  79.224 116.966  0.00  0.00     0.038 C 
ATOM      4  C   LIG d   1      -3.937  79.757 116.282  0.00  0.00     0.028 C 
ATOM      5  C   LIG d   1      -2.729  78.827 116.261  0.00  0.00    -0.047 C 
ATOM      6  C   LIG d   1      -3.177  77.434 115.763  0.00  0.00     0.091 C 
ENDROOT
BRANCH   1   7
ATOM      7  O   LIG d   1      -5.022  75.827 115.894  0.00  0.00    -0.368 OA
BRANCH   7   8
ATOM      8  C   LIG d   1      -6.094  76.254 115.018  0.00  0.00     0.119 C 
BRANCH   8   9
ATOM      9  C   LIG d   1      -7.378  75.533 115.473  0.00  0.00     0.028 C 
ATOM     10  C   LIG d   1      -7.085  74.181 116.145  0.00  0.00     0.006 C 
ENDBRANCH   8   9
BRANCH   8  11
ATOM     11  C   LIG d   1      -5.856  75.790 113.578  0.00  0.00     0.028 C 
ATOM     12  C   LIG d   1      -6.910  76.329 112.597  0.00  0.00     0.006 C 
ENDBRANCH   8  11
ENDBRANCH   7   8
ENDBRANCH   1   7
BRANCH   6  13
ATOM     13  N   LIG d   1      -2.073  76.440 115.792  0.00  0.00    -0.311 N 
ATOM     14  C   LIG d   1      -1.278  76.196 114.751  0.00  0.00     0.210 C 
ATOM     15  C   LIG d   1      -0.216  75.118 114.987  0.00  0.00     0.109 C 
ATOM     16  O   LIG d   1      -1.332  76.793 113.665  0.00  0.00    -0.276 OA
ATOM     17  H   LIG d   1      -1.938  75.932 116.644  0.00  0.00     0.149 HD
ENDBRANCH   6  13
BRANCH   5  18
ATOM     18  N   LIG d   1      -1.704  79.447 115.401  0.00  0.00     0.381 N 
ATOM     19  H   LIG d   1      -1.838  80.438 115.375  0.00  0.00    -0.090 HD
ATOM     20  H   LIG d   1      -1.804  79.091 114.467  0.00  0.00    -0.090 HD
ATOM     21  H   LIG d   1      -0.794  79.237 115.749  0.00  0.00    -0.090 HD
ENDBRANCH   5  18
BRANCH   3  22
ATOM     22  C   LIG d   1      -5.908  80.099 117.600  0.00  0.00     0.382 C 
ATOM     23  O   LIG d   1      -5.741  80.383 118.811  0.00  0.00    -0.241 OA
ATOM     24  O   LIG d   1      -6.883  80.575 116.988  0.00  0.00    -0.241 OA
ENDBRANCH   3  22
TORSDOF 7
ENDMDL
MODEL 5
REMARK VINA RESULT:      -4.7      2.740      3.706
REMARK  7 active torsions:
REMARK  status: ('A' for Active; 'I' for Inactive)
REMARK    1  A    between atoms: C_2  and  C_3 
REMARK    2  A    between atoms: C_3  and  O_6 
REMARK    3  A    between atoms: C_3  and  C_4 
REMARK    4  A    between atoms: C_7  and  O_6 
REMARK    5  A    between atoms: C_9  and  C_10 
REMARK    6  A    between atoms: N_15  and  C_14 
REMARK    7  A    between atoms: N_20  and  C_19 
REMARK       I    between atoms: C_22  and  N_20 
ROOT
ATOM      1  C   LIG d   1      -3.623  78.572 116.871  0.00  0.00     0.161 C 
ATOM      2  C   LIG d   1      -2.648  79.424 117.415  0.00  0.00     0.016 C 
ATOM      3  C   LIG d   1      -1.301  79.438 116.986  0.00  0.00     0.038 C 
ATOM      4  C   LIG d   1      -0.869  78.701 115.872  0.00  0.00     0.028 C 
ATOM      5  C   LIG d   1      -1.702  77.450 115.614  0.00  0.00    -0.047 C 
ATOM      6  C   LIG d   1      -3.197  77.841 115.581  0.00  0.00     0.091 C 
ENDROOT
BRANCH   1   7
ATOM      7  O   LIG d   1      -4.845  79.305 116.652  0.00  0.00    -0.368 OA
BRANCH   7   8
ATOM      8  C   LIG d   1      -5.782  79.327 117.756  0.00  0.00     0.119 C 
BRANCH   8   9
ATOM      9  C   LIG d   1      -6.320  77.894 117.936  0.00  0.00     0.028 C 
ATOM     10  C   LIG d   1      -7.283  77.483 116.810  0.00  0.00     0.006 C 
ENDBRANCH   8   9
BRANCH   8  11
ATOM     11  C   LIG d   1      -7.009  80.182 117.429  0.00  0.00     0.028 C 
ATOM     12  C   LIG d   1      -6.673  81.674 117.278  0.00  0.00     0.006 C 
ENDBRANCH   8  11
ENDBRANCH   7   8
ENDBRANCH   1   7
BRANCH   6  13
ATOM     13  N   LIG d   1      -4.087  76.662 115.416  0.00  0.00    -0.311 N 
ATOM     14  C   LIG d   1      -4.573  76.268 114.240  0.00  0.00     0.210 C 
ATOM     15  C   LIG d   1      -5.488  75.040 114.297  0.00  0.00     0.109 C 
ATOM     16  O   LIG d   1      -4.307  76.800 113.152  0.00  0.00    -0.276 OA
ATOM     17  H   LIG d   1      -4.329  76.154 116.245  0.00  0.00     0.149 HD
ENDBRANCH   6  13
BRANCH   5  18
ATOM     18  N   LIG d   1      -1.231  76.855 114.349  0.00  0.00     0.381 N 
ATOM     19  H   LIG d   1      -1.450  77.464 113.586  0.00  0.00    -0.090 HD
ATOM     20  H   LIG d   1      -1.708  75.982 114.203  0.00  0.00    -0.090 HD
ATOM     21  H   LIG d   1      -0.248  76.702 114.389  0.00  0.00    -0.090 HD
ENDBRANCH   5  18
BRANCH   3  22
ATOM     22  C   LIG d   1      -0.360  80.165 117.699  0.00  0.00     0.382 C 
ATOM     23  O   LIG d   1       0.439  80.920 117.094  0.00  0.00    -0.241 OA
ATOM     24  O   LIG d   1      -0.271  80.041 118.935  0.00  0.00    -0.241 OA
ENDBRANCH   3  22
TORSDOF 7
ENDMDL
MODEL 6
REMARK VINA RESULT:      -4.6      2.748      3.649
REMARK  7 active torsions:
REMARK  status: ('A' for Active; 'I' for Inactive)
REMARK    1  A    between atoms: C_2  and  C_3 
REMARK    2  A    between atoms: C_3  and  O_6 
REMARK    3  A    between atoms: C_3  and  C_4 
REMARK    4  A    between atoms: C_7  and  O_6 
REMARK    5  A    between atoms: C_9  and  C_10 
REMARK    6  A    between atoms: N_15  and  C_14 
REMARK    7  A    between atoms: N_20  and  C_19 
REMARK       I    between atoms: C_22  and  N_20 
ROOT
ATOM      1  C   LIG d   1      -3.359  78.448 116.689  0.00  0.00     0.161 C 
ATOM      2  C   LIG d   1      -2.354  79.288 117.198  0.00  0.00     0.016 C 
ATOM      3  C   LIG d   1      -0.982  79.130 116.896  0.00  0.00     0.038 C 
ATOM      4  C   LIG d   1      -0.535  78.209 115.938  0.00  0.00     0.028 C 
ATOM      5  C   LIG d   1      -1.457  77.005 115.778  0.00  0.00    -0.047 C 
ATOM      6  C   LIG d   1      -2.902  77.507 115.555  0.00  0.00     0.091 C 
ENDROOT
BRANCH   1   7
ATOM      7  O   LIG d   1      -4.486  79.239 116.261  0.00  0.00    -0.368 OA
BRANCH   7   8
ATOM      8  C   LIG d   1      -5.644  79.221 117.131  0.00  0.00     0.119 C 
BRANCH   8   9
ATOM      9  C   LIG d   1      -5.625  80.525 117.953  0.00  0.00     0.028 C 
ATOM     10  C   LIG d   1      -6.631  81.564 117.430  0.00  0.00     0.006 C 
ENDBRANCH   8   9
BRANCH   8  11
ATOM     11  C   LIG d   1      -5.550  78.091 118.161  0.00  0.00     0.028 C 
ATOM     12  C   LIG d   1      -6.111  78.490 119.536  0.00  0.00     0.006 C 
ENDBRANCH   8  11
ENDBRANCH   7   8
ENDBRANCH   1   7
BRANCH   6  13
ATOM     13  N   LIG d   1      -3.883  76.393 115.472  0.00  0.00    -0.311 N 
ATOM     14  C   LIG d   1      -4.575  76.106 114.372  0.00  0.00     0.210 C 
ATOM     15  C   LIG d   1      -5.548  74.930 114.508  0.00  0.00     0.109 C 
ATOM     16  O   LIG d   1      -4.453  76.693 113.286  0.00  0.00    -0.276 OA
ATOM     17  H   LIG d   1      -4.021  75.845 116.299  0.00  0.00     0.149 HD
ENDBRANCH   6  13
BRANCH   5  18
ATOM     18  N   LIG d   1      -0.946  76.198 114.654  0.00  0.00     0.381 N 
ATOM     19  H   LIG d   1      -0.069  75.786 114.904  0.00  0.00    -0.090 HD
ATOM     20  H   LIG d   1      -0.797  76.799 113.863  0.00  0.00    -0.090 HD
ATOM     21  H   LIG d   1      -1.601  75.485 114.420  0.00  0.00    -0.090 HD
ENDBRANCH   5  18
BRANCH   3  22
ATOM     22  C   LIG d   1      -0.037  79.874 117.586  0.00  0.00     0.382 C 
ATOM     23  O   LIG d   1       0.350  79.499 118.720  0.00  0.00    -0.241 OA
ATOM     24  O   LIG d   1       0.401  80.938 117.110  0.00  0.00    -0.241 OA
ENDBRANCH   3  22
TORSDOF 7
ENDMDL
MODEL 7
REMARK VINA RESULT:      -4.6      3.027      4.745
REMARK  7 active torsions:
REMARK  status: ('A' for Active; 'I' for Inactive)
REMARK    1  A    between atoms: C_2  and  C_3 
REMARK    2  A    between atoms: C_3  and  O_6 
REMARK    3  A    between atoms: C_3  and  C_4 
REMARK    4  A    between atoms: C_7  and  O_6 
REMARK    5  A    between atoms: C_9  and  C_10 
REMARK    6  A    between atoms: N_15  and  C_14 
REMARK    7  A    between atoms: N_20  and  C_19 
REMARK       I    between atoms: C_22  and  N_20 
ROOT
ATOM      1  C   LIG d   1      -3.766  77.479 116.858  0.00  0.00     0.161 C 
ATOM      2  C   LIG d   1      -4.899  78.199 117.271  0.00  0.00     0.016 C 
ATOM      3  C   LIG d   1      -6.219  77.852 116.901  0.00  0.00     0.038 C 
ATOM      4  C   LIG d   1      -6.508  76.664 116.213  0.00  0.00     0.028 C 
ATOM      5  C   LIG d   1      -5.356  76.172 115.343  0.00  0.00    -0.047 C 
ATOM      6  C   LIG d   1      -4.070  76.117 116.199  0.00  0.00     0.091 C 
ENDROOT
BRANCH   1   7
ATOM      7  O   LIG d   1      -2.864  77.307 117.970  0.00  0.00    -0.368 OA
BRANCH   7   8
ATOM      8  C   LIG d   1      -1.566  77.937 117.841  0.00  0.00     0.119 C 
BRANCH   8   9
ATOM      9  C   LIG d   1      -1.392  78.889 119.040  0.00  0.00     0.028 C 
ATOM     10  C   LIG d   1      -2.097  80.239 118.824  0.00  0.00     0.006 C 
ENDBRANCH   8   9
BRANCH   8  11
ATOM     11  C   LIG d   1      -1.502  78.832 116.600  0.00  0.00     0.028 C 
ATOM     12  C   LIG d   1      -0.361  78.446 115.645  0.00  0.00     0.006 C 
ENDBRANCH   8  11
ENDBRANCH   7   8
ENDBRANCH   1   7
BRANCH   6  13
ATOM     13  N   LIG d   1      -2.876  75.726 115.404  0.00  0.00    -0.311 N 
ATOM     14  C   LIG d   1      -1.985  74.826 115.815  0.00  0.00     0.210 C 
ATOM     15  C   LIG d   1      -0.818  74.584 114.852  0.00  0.00     0.109 C 
ATOM     16  O   LIG d   1      -2.066  74.180 116.871  0.00  0.00    -0.276 OA
ATOM     17  H   LIG d   1      -2.749  76.177 114.520  0.00  0.00     0.149 HD
ENDBRANCH   6  13
BRANCH   5  18
ATOM     18  N   LIG d   1      -5.741  74.859 114.794  0.00  0.00     0.381 N 
ATOM     19  H   LIG d   1      -6.613  74.938 114.309  0.00  0.00    -0.090 HD
ATOM     20  H   LIG d   1      -5.860  74.211 115.552  0.00  0.00    -0.090 HD
ATOM     21  H   LIG d   1      -5.036  74.529 114.172  0.00  0.00    -0.090 HD
ENDBRANCH   5  18
BRANCH   3  22
ATOM     22  C   LIG d   1      -7.263  78.719 117.187  0.00  0.00     0.382 C 
ATOM     23  O   LIG d   1      -8.365  78.265 117.580  0.00  0.00    -0.241 OA
ATOM     24  O   LIG d   1      -7.131  79.945 117.014  0.00  0.00    -0.241 OA
ENDBRANCH   3  22
TORSDOF 7
ENDMDL
MODEL 8
REMARK VINA RESULT:      -4.6      2.958      5.330
REMARK  7 active torsions:
REMARK  status: ('A' for Active; 'I' for Inactive)
REMARK    1  A    between atoms: C_2  and  C_3 
REMARK    2  A    between atoms: C_3  and  O_6 
REMARK    3  A    between atoms: C_3  and  C_4 
REMARK    4  A    between atoms: C_7  and  O_6 
REMARK    5  A    between atoms: C_9  and  C_10 
REMARK    6  A    between atoms: N_15  and  C_14 
REMARK    7  A    between atoms: N_20  and  C_19 
REMARK       I    between atoms: C_22  and  N_20 
ROOT
ATOM      1  C   LIG d   1      -4.660  77.541 116.421  0.00  0.00     0.161 C 
ATOM      2  C   LIG d   1      -6.003  77.903 116.618  0.00  0.00     0.016 C 
ATOM      3  C   LIG d   1      -6.403  79.019 117.389  0.00  0.00     0.038 C 
ATOM      4  C   LIG d   1      -5.475  79.942 117.894  0.00  0.00     0.028 C 
ATOM      5  C   LIG d   1      -4.097  79.340 118.146  0.00  0.00    -0.047 C 
ATOM      6  C   LIG d   1      -3.632  78.600 116.871  0.00  0.00     0.091 C 
ENDROOT
BRANCH   1   7
ATOM      7  O   LIG d   1      -4.446  77.191 115.039  0.00  0.00    -0.368 OA
BRANCH   7   8
ATOM      8  C   LIG d   1      -4.133  75.802 114.774  0.00  0.00     0.119 C 
BRANCH   8   9
ATOM      9  C   LIG d   1      -5.449  75.095 114.395  0.00  0.00     0.028 C 
ATOM     10  C   LIG d   1      -6.346  75.967 113.500  0.00  0.00     0.006 C 
ENDBRANCH   8   9
BRANCH   8  11
ATOM     11  C   LIG d   1      -3.641  75.091 116.039  0.00  0.00     0.028 C 
ATOM     12  C   LIG d   1      -2.166  74.669 115.949  0.00  0.00     0.006 C 
ENDBRANCH   8  11
ENDBRANCH   7   8
ENDBRANCH   1   7
BRANCH   6  13
ATOM     13  N   LIG d   1      -2.329  77.910 117.060  0.00  0.00    -0.311 N 
ATOM     14  C   LIG d   1      -1.159  78.449 116.724  0.00  0.00     0.210 C 
ATOM     15  C   LIG d   1       0.062  77.560 116.984  0.00  0.00     0.109 C 
ATOM     16  O   LIG d   1      -1.012  79.591 116.264  0.00  0.00    -0.276 OA
ATOM     17  H   LIG d   1      -2.353  76.991 117.457  0.00  0.00     0.149 HD
ENDBRANCH   6  13
BRANCH   5  18
ATOM     18  N   LIG d   1      -3.196  80.439 118.539  0.00  0.00     0.381 N 
ATOM     19  H   LIG d   1      -2.585  80.664 117.778  0.00  0.00    -0.090 HD
ATOM     20  H   LIG d   1      -2.634  80.138 119.315  0.00  0.00    -0.090 HD
ATOM     21  H   LIG d   1      -3.728  81.241 118.796  0.00  0.00    -0.090 HD
ENDBRANCH   5  18
BRANCH   3  22
ATOM     22  C   LIG d   1      -7.744  79.197 117.695  0.00  0.00     0.382 C 
ATOM     23  O   LIG d   1      -8.396  80.114 117.141  0.00  0.00    -0.241 OA
ATOM     24  O   LIG d   1      -8.297  78.481 118.551  0.00  0.00    -0.241 OA
ENDBRANCH   3  22
TORSDOF 7
ENDMDL
MODEL 9
REMARK VINA RESULT:      -4.4      3.310      5.084
REMARK  7 active torsions:
REMARK  status: ('A' for Active; 'I' for Inactive)
REMARK    1  A    between atoms: C_2  and  C_3 
REMARK    2  A    between atoms: C_3  and  O_6 
REMARK    3  A    between atoms: C_3  and  C_4 
REMARK    4  A    between atoms: C_7  and  O_6 
REMARK    5  A    between atoms: C_9  and  C_10 
REMARK    6  A    between atoms: N_15  and  C_14 
REMARK    7  A    between atoms: N_20  and  C_19 
REMARK       I    between atoms: C_22  and  N_20 
ROOT
ATOM      1  C   LIG d   1      -4.400  77.290 115.597  0.00  0.00     0.161 C 
ATOM      2  C   LIG d   1      -3.162  76.780 115.173  0.00  0.00     0.016 C 
ATOM      3  C   LIG d   1      -1.925  77.169 115.738  0.00  0.00     0.038 C 
ATOM      4  C   LIG d   1      -1.854  77.986 116.876  0.00  0.00     0.028 C 
ATOM      5  C   LIG d   1      -3.048  78.923 117.023  0.00  0.00    -0.047 C 
ATOM      6  C   LIG d   1      -4.350  78.099 116.911  0.00  0.00     0.091 C 
ENDROOT
BRANCH   1   7
ATOM      7  O   LIG d   1      -5.359  76.219 115.704  0.00  0.00    -0.368 OA
BRANCH   7   8
ATOM      8  C   LIG d   1      -6.519  76.315 114.842  0.00  0.00     0.119 C 
BRANCH   8   9
ATOM      9  C   LIG d   1      -7.619  75.421 115.446  0.00  0.00     0.028 C 
ATOM     10  C   LIG d   1      -7.046  74.182 116.155  0.00  0.00     0.006 C 
ENDBRANCH   8   9
BRANCH   8  11
ATOM     11  C   LIG d   1      -6.234  75.727 113.456  0.00  0.00     0.028 C 
ATOM     12  C   LIG d   1      -7.083  76.371 112.349  0.00  0.00     0.006 C 
ENDBRANCH   8  11
ENDBRANCH   7   8
ENDBRANCH   1   7
BRANCH   6  13
ATOM     13  N   LIG d   1      -5.567  78.951 116.960  0.00  0.00    -0.311 N 
ATOM     14  C   LIG d   1      -6.669  78.617 117.629  0.00  0.00     0.210 C 
ATOM     15  C   LIG d   1      -7.815  79.628 117.533  0.00  0.00     0.109 C 
ATOM     16  O   LIG d   1      -6.795  77.594 118.320  0.00  0.00    -0.276 OA
ATOM     17  H   LIG d   1      -5.540  79.814 116.453  0.00  0.00     0.149 HD
ENDBRANCH   6  13
BRANCH   5  18
ATOM     18  N   LIG d   1      -2.913  79.616 118.319  0.00  0.00     0.381 N 
ATOM     19  H   LIG d   1      -1.964  79.566 118.632  0.00  0.00    -0.090 HD
ATOM     20  H   LIG d   1      -3.494  79.155 118.996  0.00  0.00    -0.090 HD
ATOM     21  H   LIG d   1      -3.189  80.569 118.226  0.00  0.00    -0.090 HD
ENDBRANCH   5  18
BRANCH   3  22
ATOM     22  C   LIG d   1      -0.740  76.769 115.139  0.00  0.00     0.382 C 
ATOM     23  O   LIG d   1      -0.754  76.294 113.978  0.00  0.00    -0.241 OA
ATOM     24  O   LIG d   1       0.337  76.837 115.761  0.00  0.00    -0.241 OA
ENDBRANCH   3  22
TORSDOF 7
ENDMDL
