MODEL 1
REMARK VINA RESULT:      -4.8      0.000      0.000
REMARK  7 active torsions:
REMARK  status: ('A' for Active; 'I' for Inactive)
REMARK    1  A    between atoms: C_2  and  C_3 
REMARK    2  A    between atoms: C_3  and  O_6 
REMARK    3  A    between atoms: C_3  and  C_4 
REMARK    4  A    between atoms: C_7  and  O_6 
REMARK    5  A    between atoms: C_9  and  C_10 
REMARK    6  A    between atoms: N_15  and  C_14 
REMARK    7  A    between atoms: N_20  and  C_19 
REMARK       I    between atoms: C_22  and  N_20 
ROOT
ATOM      1  C   LIG d   1      -2.902  78.454 115.463  0.00  0.00     0.161 C 
ATOM      2  C   LIG d   1      -2.905  79.507 114.532  0.00  0.00     0.016 C 
ATOM      3  C   LIG d   1      -2.242  79.445 113.285  0.00  0.00     0.038 C 
ATOM      4  C   LIG d   1      -1.652  78.261 112.817  0.00  0.00     0.028 C 
ATOM      5  C   LIG d   1      -1.189  77.332 113.934  0.00  0.00    -0.047 C 
ATOM      6  C   LIG d   1      -2.358  77.115 114.923  0.00  0.00     0.091 C 
ENDROOT
BRANCH   1   7
ATOM      7  O   LIG d   1      -4.226  78.276 116.003  0.00  0.00    -0.368 OA
BRANCH   7   8
ATOM      8  C   LIG d   1      -4.610  79.186 117.062  0.00  0.00     0.119 C 
BRANCH   8   9
ATOM      9  C   LIG d   1      -3.754  78.847 118.298  0.00  0.00     0.028 C 
ATOM     10  C   LIG d   1      -3.066  80.087 118.893  0.00  0.00     0.006 C 
ENDBRANCH   8   9
BRANCH   8  11
ATOM     11  C   LIG d   1      -6.060  78.954 117.498  0.00  0.00     0.028 C 
ATOM     12  C   LIG d   1      -6.775  80.252 117.905  0.00  0.00     0.006 C 
ENDBRANCH   8  11
ENDBRANCH   7   8
ENDBRANCH   1   7
BRANCH   6  13
ATOM     13  N   LIG d   1      -1.965  76.285 116.091  0.00  0.00    -0.311 N 
ATOM     14  C   LIG d   1      -2.124  74.964 116.139  0.00  0.00     0.210 C 
ATOM     15  C   LIG d   1      -1.671  74.304 117.445  0.00  0.00     0.109 C 
ATOM     16  O   LIG d   1      -2.568  74.271 115.211  0.00  0.00    -0.276 OA
ATOM     17  H   LIG d   1      -1.567  76.763 116.876  0.00  0.00     0.149 HD
ENDBRANCH   6  13
BRANCH   5  18
ATOM     18  N   LIG d   1      -0.722  76.080 113.308  0.00  0.00     0.381 N 
ATOM     19  H   LIG d   1      -0.968  76.074 112.338  0.00  0.00    -0.090 HD
ATOM     20  H   LIG d   1      -1.178  75.304 113.754  0.00  0.00    -0.090 HD
ATOM     21  H   LIG d   1       0.266  75.997 113.408  0.00  0.00    -0.090 HD
ENDBRANCH   5  18
BRANCH   3  22
ATOM     22  C   LIG d   1      -2.129  80.588 112.509  0.00  0.00     0.382 C 
ATOM     23  O   LIG d   1      -1.083  80.797 111.848  0.00  0.00    -0.241 OA
ATOM     24  O   LIG d   1      -3.042  81.435 112.496  0.00  0.00    -0.241 OA
ENDBRANCH   3  22
TORSDOF 7
ENDMDL
MODEL 2
REMARK VINA RESULT:      -4.5      2.595      3.416
REMARK  7 active torsions:
REMARK  status: ('A' for Active; 'I' for Inactive)
REMARK    1  A    between atoms: C_2  and  C_3 
REMARK    2  A    between atoms: C_3  and  O_6 
REMARK    3  A    between atoms: C_3  and  C_4 
REMARK    4  A    between atoms: C_7  and  O_6 
REMARK    5  A    between atoms: C_9  and  C_10 
REMARK    6  A    between atoms: N_15  and  C_14 
REMARK    7  A    between atoms: N_20  and  C_19 
REMARK       I    between atoms: C_22  and  N_20 
ROOT
ATOM      1  C   LIG d   1      -2.886  76.710 115.160  0.00  0.00     0.161 C 
ATOM      2  C   LIG d   1      -2.972  77.649 114.118  0.00  0.00     0.016 C 
ATOM      3  C   LIG d   1      -2.009  78.661 113.900  0.00  0.00     0.038 C 
ATOM      4  C   LIG d   1      -0.808  78.709 114.623  0.00  0.00     0.028 C 
ATOM      5  C   LIG d   1      -0.913  78.091 116.013  0.00  0.00    -0.047 C 
ATOM      6  C   LIG d   1      -1.527  76.678 115.890  0.00  0.00     0.091 C 
ENDROOT
BRANCH   1   7
ATOM      7  O   LIG d   1      -3.219  75.398 114.664  0.00  0.00    -0.368 OA
BRANCH   7   8
ATOM      8  C   LIG d   1      -4.469  74.837 115.137  0.00  0.00     0.119 C 
BRANCH   8   9
ATOM      9  C   LIG d   1      -5.557  75.196 114.107  0.00  0.00     0.028 C 
ATOM     10  C   LIG d   1      -6.685  76.045 114.716  0.00  0.00     0.006 C 
ENDBRANCH   8   9
BRANCH   8  11
ATOM     11  C   LIG d   1      -4.916  75.497 116.445  0.00  0.00     0.028 C 
ATOM     12  C   LIG d   1      -4.966  74.510 117.623  0.00  0.00     0.006 C 
ENDBRANCH   8  11
ENDBRANCH   7   8
ENDBRANCH   1   7
BRANCH   6  13
ATOM     13  N   LIG d   1      -1.742  76.036 117.213  0.00  0.00    -0.311 N 
ATOM     14  C   LIG d   1      -0.884  75.176 117.759  0.00  0.00     0.210 C 
ATOM     15  C   LIG d   1      -1.308  74.616 119.120  0.00  0.00     0.109 C 
ATOM     16  O   LIG d   1       0.203  74.849 117.260  0.00  0.00    -0.276 OA
ATOM     17  H   LIG d   1      -2.585  76.269 117.701  0.00  0.00     0.149 HD
ENDBRANCH   6  13
BRANCH   5  18
ATOM     18  N   LIG d   1       0.440  78.085 116.601  0.00  0.00     0.381 N 
ATOM     19  H   LIG d   1       0.654  78.990 116.970  0.00  0.00    -0.090 HD
ATOM     20  H   LIG d   1       1.107  77.872 115.880  0.00  0.00    -0.090 HD
ATOM     21  H   LIG d   1       0.494  77.402 117.325  0.00  0.00    -0.090 HD
ENDBRANCH   5  18
BRANCH   3  22
ATOM     22  C   LIG d   1      -2.263  79.663 112.976  0.00  0.00     0.382 C 
ATOM     23  O   LIG d   1      -2.952  80.658 113.303  0.00  0.00    -0.241 OA
ATOM     24  O   LIG d   1      -1.847  79.563 111.806  0.00  0.00    -0.241 OA
ENDBRANCH   3  22
TORSDOF 7
ENDMDL
MODEL 3
REMARK VINA RESULT:      -4.4      4.119      7.456
REMARK  7 active torsions:
REMARK  status: ('A' for Active; 'I' for Inactive)
REMARK    1  A    between atoms: C_2  and  C_3 
REMARK    2  A    between atoms: C_3  and  O_6 
REMARK    3  A    between atoms: C_3  and  C_4 
REMARK    4  A    between atoms: C_7  and  O_6 
REMARK    5  A    between atoms: C_9  and  C_10 
REMARK    6  A    between atoms: N_15  and  C_14 
REMARK    7  A    between atoms: N_20  and  C_19 
REMARK       I    between atoms: C_22  and  N_20 
ROOT
ATOM      1  C   LIG d   1      -6.423  78.273 117.760  0.00  0.00     0.161 C 
ATOM      2  C   LIG d   1      -6.702  76.921 117.498  0.00  0.00     0.016 C 
ATOM      3  C   LIG d   1      -7.958  76.323 117.751  0.00  0.00     0.038 C 
ATOM      4  C   LIG d   1      -9.073  77.078 118.144  0.00  0.00     0.028 C 
ATOM      5  C   LIG d   1      -8.707  78.349 118.903  0.00  0.00    -0.047 C 
ATOM      6  C   LIG d   1      -7.659  79.138 118.084  0.00  0.00     0.091 C 
ENDROOT
BRANCH   1   7
ATOM      7  O   LIG d   1      -5.689  78.843 116.658  0.00  0.00    -0.368 OA
BRANCH   7   8
ATOM      8  C   LIG d   1      -4.327  79.248 116.941  0.00  0.00     0.119 C 
BRANCH   8   9
ATOM      9  C   LIG d   1      -3.392  78.318 116.143  0.00  0.00     0.028 C 
ATOM     10  C   LIG d   1      -2.852  77.157 116.995  0.00  0.00     0.006 C 
ENDBRANCH   8   9
BRANCH   8  11
ATOM     11  C   LIG d   1      -3.971  79.016 118.412  0.00  0.00     0.028 C 
ATOM     12  C   LIG d   1      -3.494  80.294 119.119  0.00  0.00     0.006 C 
ENDBRANCH   8  11
ENDBRANCH   7   8
ENDBRANCH   1   7
BRANCH   6  13
ATOM     13  N   LIG d   1      -7.183  80.354 118.794  0.00  0.00    -0.311 N 
ATOM     14  C   LIG d   1      -7.035  81.537 118.202  0.00  0.00     0.210 C 
ATOM     15  C   LIG d   1      -6.513  82.654 119.111  0.00  0.00     0.109 C 
ATOM     16  O   LIG d   1      -7.315  81.776 117.018  0.00  0.00    -0.276 OA
ATOM     17  H   LIG d   1      -6.962  80.257 119.766  0.00  0.00     0.149 HD
ENDBRANCH   6  13
BRANCH   5  18
ATOM     18  N   LIG d   1      -9.952  79.107 119.130  0.00  0.00     0.381 N 
ATOM     19  H   LIG d   1     -10.698  78.698 118.603  0.00  0.00    -0.090 HD
ATOM     20  H   LIG d   1      -9.821  80.051 118.812  0.00  0.00    -0.090 HD
ATOM     21  H   LIG d   1     -10.180  79.104 120.100  0.00  0.00    -0.090 HD
ENDBRANCH   5  18
BRANCH   3  22
ATOM     22  C   LIG d   1      -8.097  74.947 117.648  0.00  0.00     0.382 C 
ATOM     23  O   LIG d   1      -8.744  74.452 116.694  0.00  0.00    -0.241 OA
ATOM     24  O   LIG d   1      -7.621  74.198 118.522  0.00  0.00    -0.241 OA
ENDBRANCH   3  22
TORSDOF 7
ENDMDL
MODEL 4
REMARK VINA RESULT:      -4.3      2.782      4.593
REMARK  7 active torsions:
REMARK  status: ('A' for Active; 'I' for Inactive)
REMARK    1  A    between atoms: C_2  and  C_3 
REMARK    2  A    between atoms: C_3  and  O_6 
REMARK    3  A    between atoms: C_3  and  C_4 
REMARK    4  A    between atoms: C_7  and  O_6 
REMARK    5  A    between atoms: C_9  and  C_10 
REMARK    6  A    between atoms: N_15  and  C_14 
REMARK    7  A    between atoms: N_20  and  C_19 
REMARK       I    between atoms: C_22  and  N_20 
ROOT
ATOM      1  C   LIG d   1      -3.699  76.458 116.948  0.00  0.00     0.161 C 
ATOM      2  C   LIG d   1      -4.643  77.392 117.405  0.00  0.00     0.016 C 
ATOM      3  C   LIG d   1      -4.568  78.776 117.124  0.00  0.00     0.038 C 
ATOM      4  C   LIG d   1      -3.620  79.301 116.234  0.00  0.00     0.028 C 
ATOM      5  C   LIG d   1      -2.343  78.471 116.150  0.00  0.00    -0.047 C 
ATOM      6  C   LIG d   1      -2.721  76.996 115.883  0.00  0.00     0.091 C 
ENDROOT
BRANCH   1   7
ATOM      7  O   LIG d   1      -4.374  75.282 116.459  0.00  0.00    -0.368 OA
BRANCH   7   8
ATOM      8  C   LIG d   1      -5.619  75.508 115.754  0.00  0.00     0.119 C 
BRANCH   8   9
ATOM      9  C   LIG d   1      -6.677  74.573 116.372  0.00  0.00     0.028 C 
ATOM     10  C   LIG d   1      -8.045  75.259 116.529  0.00  0.00     0.006 C 
ENDBRANCH   8   9
BRANCH   8  11
ATOM     11  C   LIG d   1      -5.513  75.084 114.286  0.00  0.00     0.028 C 
ATOM     12  C   LIG d   1      -6.249  76.042 113.335  0.00  0.00     0.006 C 
ENDBRANCH   8  11
ENDBRANCH   7   8
ENDBRANCH   1   7
BRANCH   6  13
ATOM     13  N   LIG d   1      -1.534  76.101 115.870  0.00  0.00    -0.311 N 
ATOM     14  C   LIG d   1      -0.871  75.779 114.760  0.00  0.00     0.210 C 
ATOM     15  C   LIG d   1       0.311  74.826 114.967  0.00  0.00     0.109 C 
ATOM     16  O   LIG d   1      -1.130  76.218 113.629  0.00  0.00    -0.276 OA
ATOM     17  H   LIG d   1      -1.237  75.725 116.749  0.00  0.00     0.149 HD
ENDBRANCH   6  13
BRANCH   5  18
ATOM     18  N   LIG d   1      -1.502  79.054 115.087  0.00  0.00     0.381 N 
ATOM     19  H   LIG d   1      -0.892  78.354 114.716  0.00  0.00    -0.090 HD
ATOM     20  H   LIG d   1      -0.939  79.786 115.483  0.00  0.00    -0.090 HD
ATOM     21  H   LIG d   1      -2.076  79.423 114.361  0.00  0.00    -0.090 HD
ENDBRANCH   5  18
BRANCH   3  22
ATOM     22  C   LIG d   1      -5.424  79.656 117.769  0.00  0.00     0.382 C 
ATOM     23  O   LIG d   1      -5.931  80.614 117.137  0.00  0.00    -0.241 OA
ATOM     24  O   LIG d   1      -5.661  79.530 118.986  0.00  0.00    -0.241 OA
ENDBRANCH   3  22
TORSDOF 7
ENDMDL
MODEL 5
REMARK VINA RESULT:      -4.2      2.736      4.020
REMARK  7 active torsions:
REMARK  status: ('A' for Active; 'I' for Inactive)
REMARK    1  A    between atoms: C_2  and  C_3 
REMARK    2  A    between atoms: C_3  and  O_6 
REMARK    3  A    between atoms: C_3  and  C_4 
REMARK    4  A    between atoms: C_7  and  O_6 
REMARK    5  A    between atoms: C_9  and  C_10 
REMARK    6  A    between atoms: N_15  and  C_14 
REMARK    7  A    between atoms: N_20  and  C_19 
REMARK       I    between atoms: C_22  and  N_20 
ROOT
ATOM      1  C   LIG d   1      -5.050  78.458 117.082  0.00  0.00     0.161 C 
ATOM      2  C   LIG d   1      -3.832  79.040 116.693  0.00  0.00     0.016 C 
ATOM      3  C   LIG d   1      -2.910  78.409 115.825  0.00  0.00     0.038 C 
ATOM      4  C   LIG d   1      -3.216  77.210 115.165  0.00  0.00     0.028 C 
ATOM      5  C   LIG d   1      -4.218  76.341 115.917  0.00  0.00    -0.047 C 
ATOM      6  C   LIG d   1      -5.450  77.200 116.284  0.00  0.00     0.091 C 
ENDROOT
BRANCH   1   7
ATOM      7  O   LIG d   1      -6.101  79.442 117.026  0.00  0.00    -0.368 OA
BRANCH   7   8
ATOM      8  C   LIG d   1      -6.267  80.265 118.207  0.00  0.00     0.119 C 
BRANCH   8   9
ATOM      9  C   LIG d   1      -7.324  79.586 119.100  0.00  0.00     0.028 C 
ATOM     10  C   LIG d   1      -8.598  79.215 118.322  0.00  0.00     0.006 C 
ENDBRANCH   8   9
BRANCH   8  11
ATOM     11  C   LIG d   1      -6.855  81.635 117.854  0.00  0.00     0.028 C 
ATOM     12  C   LIG d   1      -6.695  82.662 118.986  0.00  0.00     0.006 C 
ENDBRANCH   8  11
ENDBRANCH   7   8
ENDBRANCH   1   7
BRANCH   6  13
ATOM     13  N   LIG d   1      -6.443  76.449 117.096  0.00  0.00    -0.311 N 
ATOM     14  C   LIG d   1      -7.513  75.851 116.576  0.00  0.00     0.210 C 
ATOM     15  C   LIG d   1      -8.419  75.148 117.592  0.00  0.00     0.109 C 
ATOM     16  O   LIG d   1      -7.781  75.807 115.366  0.00  0.00    -0.276 OA
ATOM     17  H   LIG d   1      -6.286  76.407 118.084  0.00  0.00     0.149 HD
ENDBRANCH   6  13
BRANCH   5  18
ATOM     18  N   LIG d   1      -4.550  75.193 115.054  0.00  0.00     0.381 N 
ATOM     19  H   LIG d   1      -5.434  74.811 115.323  0.00  0.00    -0.090 HD
ATOM     20  H   LIG d   1      -3.849  74.482 115.174  0.00  0.00    -0.090 HD
ATOM     21  H   LIG d   1      -4.581  75.481 114.100  0.00  0.00    -0.090 HD
ENDBRANCH   5  18
BRANCH   3  22
ATOM     22  C   LIG d   1      -1.651  78.959 115.643  0.00  0.00     0.382 C 
ATOM     23  O   LIG d   1      -0.999  79.374 116.632  0.00  0.00    -0.241 OA
ATOM     24  O   LIG d   1      -1.177  79.087 114.498  0.00  0.00    -0.241 OA
ENDBRANCH   3  22
TORSDOF 7
ENDMDL
MODEL 6
REMARK VINA RESULT:      -4.2      4.552      6.271
REMARK  7 active torsions:
REMARK  status: ('A' for Active; 'I' for Inactive)
REMARK    1  A    between atoms: C_2  and  C_3 
REMARK    2  A    between atoms: C_3  and  O_6 
REMARK    3  A    between atoms: C_3  and  C_4 
REMARK    4  A    between atoms: C_7  and  O_6 
REMARK    5  A    between atoms: C_9  and  C_10 
REMARK    6  A    between atoms: N_15  and  C_14 
REMARK    7  A    between atoms: N_20  and  C_19 
REMARK       I    between atoms: C_22  and  N_20 
ROOT
ATOM      1  C   LIG d   1      -6.748  76.764 118.924  0.00  0.00     0.161 C 
ATOM      2  C   LIG d   1      -7.821  77.621 118.630  0.00  0.00     0.016 C 
ATOM      3  C   LIG d   1      -7.653  78.947 118.167  0.00  0.00     0.038 C 
ATOM      4  C   LIG d   1      -6.393  79.457 117.821  0.00  0.00     0.028 C 
ATOM      5  C   LIG d   1      -5.244  78.800 118.579  0.00  0.00    -0.047 C 
ATOM      6  C   LIG d   1      -5.369  77.265 118.447  0.00  0.00     0.091 C 
ENDROOT
BRANCH   1   7
ATOM      7  O   LIG d   1      -7.014  75.450 118.395  0.00  0.00    -0.368 OA
BRANCH   7   8
ATOM      8  C   LIG d   1      -7.572  75.402 117.059  0.00  0.00     0.119 C 
BRANCH   8   9
ATOM      9  C   LIG d   1      -8.639  74.290 117.043  0.00  0.00     0.028 C 
ATOM     10  C   LIG d   1     -10.056  74.832 117.293  0.00  0.00     0.006 C 
ENDBRANCH   8   9
BRANCH   8  11
ATOM     11  C   LIG d   1      -6.522  74.971 116.031  0.00  0.00     0.028 C 
ATOM     12  C   LIG d   1      -6.274  76.035 114.950  0.00  0.00     0.006 C 
ENDBRANCH   8  11
ENDBRANCH   7   8
ENDBRANCH   1   7
BRANCH   6  13
ATOM     13  N   LIG d   1      -4.332  76.543 119.230  0.00  0.00    -0.311 N 
ATOM     14  C   LIG d   1      -3.427  75.737 118.678  0.00  0.00     0.210 C 
ATOM     15  C   LIG d   1      -2.462  75.076 119.667  0.00  0.00     0.109 C 
ATOM     16  O   LIG d   1      -3.310  75.532 117.461  0.00  0.00    -0.276 OA
ATOM     17  H   LIG d   1      -4.334  76.677 120.222  0.00  0.00     0.149 HD
ENDBRANCH   6  13
BRANCH   5  18
ATOM     18  N   LIG d   1      -3.984  79.328 118.023  0.00  0.00     0.381 N 
ATOM     19  H   LIG d   1      -3.530  78.620 117.481  0.00  0.00    -0.090 HD
ATOM     20  H   LIG d   1      -3.376  79.584 118.781  0.00  0.00    -0.090 HD
ATOM     21  H   LIG d   1      -4.170  80.124 117.453  0.00  0.00    -0.090 HD
ENDBRANCH   5  18
BRANCH   3  22
ATOM     22  C   LIG d   1      -8.751  79.790 118.084  0.00  0.00     0.382 C 
ATOM     23  O   LIG d   1      -8.617  80.950 117.626  0.00  0.00    -0.241 OA
ATOM     24  O   LIG d   1      -9.864  79.421 118.503  0.00  0.00    -0.241 OA
ENDBRANCH   3  22
TORSDOF 7
ENDMDL
MODEL 7
REMARK VINA RESULT:      -4.2      2.648      5.625
REMARK  7 active torsions:
REMARK  status: ('A' for Active; 'I' for Inactive)
REMARK    1  A    between atoms: C_2  and  C_3 
REMARK    2  A    between atoms: C_3  and  O_6 
REMARK    3  A    between atoms: C_3  and  C_4 
REMARK    4  A    between atoms: C_7  and  O_6 
REMARK    5  A    between atoms: C_9  and  C_10 
REMARK    6  A    between atoms: N_15  and  C_14 
REMARK    7  A    between atoms: N_20  and  C_19 
REMARK       I    between atoms: C_22  and  N_20 
ROOT
ATOM      1  C   LIG d   1      -1.680  76.163 115.205  0.00  0.00     0.161 C 
ATOM      2  C   LIG d   1      -1.627  75.450 116.414  0.00  0.00     0.016 C 
ATOM      3  C   LIG d   1      -1.061  75.970 117.600  0.00  0.00     0.038 C 
ATOM      4  C   LIG d   1      -0.644  77.306 117.699  0.00  0.00     0.028 C 
ATOM      5  C   LIG d   1      -0.215  77.907 116.364  0.00  0.00    -0.047 C 
ATOM      6  C   LIG d   1      -1.330  77.662 115.322  0.00  0.00     0.091 C 
ENDROOT
BRANCH   1   7
ATOM      7  O   LIG d   1      -2.976  75.998 114.596  0.00  0.00    -0.368 OA
BRANCH   7   8
ATOM      8  C   LIG d   1      -4.063  75.664 115.494  0.00  0.00     0.119 C 
BRANCH   8   9
ATOM      9  C   LIG d   1      -5.118  74.893 114.676  0.00  0.00     0.028 C 
ATOM     10  C   LIG d   1      -5.865  75.797 113.682  0.00  0.00     0.006 C 
ENDBRANCH   8   9
BRANCH   8  11
ATOM     11  C   LIG d   1      -4.779  76.922 115.995  0.00  0.00     0.028 C 
ATOM     12  C   LIG d   1      -4.829  77.008 117.529  0.00  0.00     0.006 C 
ENDBRANCH   8  11
ENDBRANCH   7   8
ENDBRANCH   1   7
BRANCH   6  13
ATOM     13  N   LIG d   1      -0.956  78.144 113.967  0.00  0.00    -0.311 N 
ATOM     14  C   LIG d   1      -1.591  79.132 113.339  0.00  0.00     0.210 C 
ATOM     15  C   LIG d   1      -1.057  79.458 111.941  0.00  0.00     0.109 C 
ATOM     16  O   LIG d   1      -2.526  79.790 113.820  0.00  0.00    -0.276 OA
ATOM     17  H   LIG d   1      -0.188  77.686 113.516  0.00  0.00     0.149 HD
ENDBRANCH   6  13
BRANCH   5  18
ATOM     18  N   LIG d   1       0.063  79.338 116.588  0.00  0.00     0.381 N 
ATOM     19  H   LIG d   1       0.230  79.792 115.713  0.00  0.00    -0.090 HD
ATOM     20  H   LIG d   1       0.891  79.424 117.151  0.00  0.00    -0.090 HD
ATOM     21  H   LIG d   1      -0.708  79.767 117.051  0.00  0.00    -0.090 HD
ENDBRANCH   5  18
BRANCH   3  22
ATOM     22  C   LIG d   1      -0.872  75.139 118.694  0.00  0.00     0.382 C 
ATOM     23  O   LIG d   1      -1.813  74.939 119.499  0.00  0.00    -0.241 OA
ATOM     24  O   LIG d   1       0.241  74.622 118.909  0.00  0.00    -0.241 OA
ENDBRANCH   3  22
TORSDOF 7
ENDMDL
MODEL 8
REMARK VINA RESULT:      -4.1      3.608      5.814
REMARK  7 active torsions:
REMARK  status: ('A' for Active; 'I' for Inactive)
REMARK    1  A    between atoms: C_2  and  C_3 
REMARK    2  A    between atoms: C_3  and  O_6 
REMARK    3  A    between atoms: C_3  and  C_4 
REMARK    4  A    between atoms: C_7  and  O_6 
REMARK    5  A    between atoms: C_9  and  C_10 
REMARK    6  A    between atoms: N_15  and  C_14 
REMARK    7  A    between atoms: N_20  and  C_19 
REMARK       I    between atoms: C_22  and  N_20 
ROOT
ATOM      1  C   LIG d   1      -6.788  77.281 117.189  0.00  0.00     0.161 C 
ATOM      2  C   LIG d   1      -6.526  76.531 116.030  0.00  0.00     0.016 C 
ATOM      3  C   LIG d   1      -5.229  76.348 115.499  0.00  0.00     0.038 C 
ATOM      4  C   LIG d   1      -4.081  76.779 116.179  0.00  0.00     0.028 C 
ATOM      5  C   LIG d   1      -4.331  77.976 117.090  0.00  0.00    -0.047 C 
ATOM      6  C   LIG d   1      -5.537  77.666 118.006  0.00  0.00     0.091 C 
ENDROOT
BRANCH   1   7
ATOM      7  O   LIG d   1      -7.734  76.581 118.021  0.00  0.00    -0.368 OA
BRANCH   7   8
ATOM      8  C   LIG d   1      -9.121  76.973 117.878  0.00  0.00     0.119 C 
BRANCH   8   9
ATOM      9  C   LIG d   1      -9.522  77.732 119.158  0.00  0.00     0.028 C 
ATOM     10  C   LIG d   1      -9.666  79.245 118.922  0.00  0.00     0.006 C 
ENDBRANCH   8   9
BRANCH   8  11
ATOM     11  C   LIG d   1     -10.044  75.752 117.825  0.00  0.00     0.028 C 
ATOM     12  C   LIG d   1      -9.538  74.664 116.864  0.00  0.00     0.006 C 
ENDBRANCH   8  11
ENDBRANCH   7   8
ENDBRANCH   1   7
BRANCH   6  13
ATOM     13  N   LIG d   1      -5.903  78.818 118.872  0.00  0.00    -0.311 N 
ATOM     14  C   LIG d   1      -6.125  80.045 118.404  0.00  0.00     0.210 C 
ATOM     15  C   LIG d   1      -6.469  81.091 119.469  0.00  0.00     0.109 C 
ATOM     16  O   LIG d   1      -6.101  80.360 117.205  0.00  0.00    -0.276 OA
ATOM     17  H   LIG d   1      -5.975  78.645 119.855  0.00  0.00     0.149 HD
ENDBRANCH   6  13
BRANCH   5  18
ATOM     18  N   LIG d   1      -3.087  78.234 117.840  0.00  0.00     0.381 N 
ATOM     19  H   LIG d   1      -3.307  78.530 118.770  0.00  0.00    -0.090 HD
ATOM     20  H   LIG d   1      -2.580  78.973 117.385  0.00  0.00    -0.090 HD
ATOM     21  H   LIG d   1      -2.530  77.408 117.870  0.00  0.00    -0.090 HD
ENDBRANCH   5  18
BRANCH   3  22
ATOM     22  C   LIG d   1      -5.074  75.760 114.252  0.00  0.00     0.382 C 
ATOM     23  O   LIG d   1      -5.087  74.511 114.142  0.00  0.00    -0.241 OA
ATOM     24  O   LIG d   1      -4.876  76.463 113.243  0.00  0.00    -0.241 OA
ENDBRANCH   3  22
TORSDOF 7
ENDMDL
MODEL 9
REMARK VINA RESULT:      -4.0      4.377      6.314
REMARK  7 active torsions:
REMARK  status: ('A' for Active; 'I' for Inactive)
REMARK    1  A    between atoms: C_2  and  C_3 
REMARK    2  A    between atoms: C_3  and  O_6 
REMARK    3  A    between atoms: C_3  and  C_4 
REMARK    4  A    between atoms: C_7  and  O_6 
REMARK    5  A    between atoms: C_9  and  C_10 
REMARK    6  A    between atoms: N_15  and  C_14 
REMARK    7  A    between atoms: N_20  and  C_19 
REMARK       I    between atoms: C_22  and  N_20 
ROOT
ATOM      1  C   LIG d   1      -7.075  77.723 118.246  0.00  0.00     0.161 C 
ATOM      2  C   LIG d   1      -8.064  78.712 118.116  0.00  0.00     0.016 C 
ATOM      3  C   LIG d   1      -7.787  80.098 118.137  0.00  0.00     0.038 C 
ATOM      4  C   LIG d   1      -6.473  80.591 118.139  0.00  0.00     0.028 C 
ATOM      5  C   LIG d   1      -5.469  79.638 118.779  0.00  0.00    -0.047 C 
ATOM      6  C   LIG d   1      -5.625  78.240 118.137  0.00  0.00     0.091 C 
ENDROOT
BRANCH   1   7
ATOM      7  O   LIG d   1      -7.305  76.672 117.286  0.00  0.00    -0.368 OA
BRANCH   7   8
ATOM      8  C   LIG d   1      -8.006  75.503 117.777  0.00  0.00     0.119 C 
BRANCH   8   9
ATOM      9  C   LIG d   1      -7.495  74.288 116.979  0.00  0.00     0.028 C 
ATOM     10  C   LIG d   1      -6.232  74.610 116.163  0.00  0.00     0.006 C 
ENDBRANCH   8   9
BRANCH   8  11
ATOM     11  C   LIG d   1      -9.506  75.586 117.475  0.00  0.00     0.028 C 
ATOM     12  C   LIG d   1     -10.059  74.295 116.850  0.00  0.00     0.006 C 
ENDBRANCH   8  11
ENDBRANCH   7   8
ENDBRANCH   1   7
BRANCH   6  13
ATOM     13  N   LIG d   1      -4.737  77.227 118.764  0.00  0.00    -0.311 N 
ATOM     14  C   LIG d   1      -3.784  76.575 118.100  0.00  0.00     0.210 C 
ATOM     15  C   LIG d   1      -2.997  75.558 118.931  0.00  0.00     0.109 C 
ATOM     16  O   LIG d   1      -3.495  76.767 116.909  0.00  0.00    -0.276 OA
ATOM     17  H   LIG d   1      -4.882  77.031 119.735  0.00  0.00     0.149 HD
ENDBRANCH   6  13
BRANCH   5  18
ATOM     18  N   LIG d   1      -4.125  80.214 118.590  0.00  0.00     0.381 N 
ATOM     19  H   LIG d   1      -3.447  79.481 118.526  0.00  0.00    -0.090 HD
ATOM     20  H   LIG d   1      -3.900  80.783 119.387  0.00  0.00    -0.090 HD
ATOM     21  H   LIG d   1      -4.104  80.768 117.761  0.00  0.00    -0.090 HD
ENDBRANCH   5  18
BRANCH   3  22
ATOM     22  C   LIG d   1      -8.832  81.007 118.198  0.00  0.00     0.382 C 
ATOM     23  O   LIG d   1      -8.593  82.224 118.385  0.00  0.00    -0.241 OA
ATOM     24  O   LIG d   1     -10.012  80.619 118.111  0.00  0.00    -0.241 OA
ENDBRANCH   3  22
TORSDOF 7
ENDMDL
