MODEL 1
REMARK VINA RESULT:      -4.9      0.000      0.000
REMARK  7 active torsions:
REMARK  status: ('A' for Active; 'I' for Inactive)
REMARK    1  A    between atoms: C_2  and  C_3 
REMARK    2  A    between atoms: C_3  and  O_6 
REMARK    3  A    between atoms: C_3  and  C_4 
REMARK    4  A    between atoms: C_7  and  O_6 
REMARK    5  A    between atoms: C_9  and  C_10 
REMARK    6  A    between atoms: N_15  and  C_14 
REMARK    7  A    between atoms: N_20  and  C_19 
REMARK       I    between atoms: C_22  and  N_20 
ROOT
ATOM      1  C   LIG d   1      -1.064  78.788 114.910  0.00  0.00     0.161 C 
ATOM      2  C   LIG d   1      -1.321  80.147 114.662  0.00  0.00     0.016 C 
ATOM      3  C   LIG d   1      -1.971  80.616 113.497  0.00  0.00     0.038 C 
ATOM      4  C   LIG d   1      -2.547  79.739 112.565  0.00  0.00     0.028 C 
ATOM      5  C   LIG d   1      -1.871  78.372 112.521  0.00  0.00    -0.047 C 
ATOM      6  C   LIG d   1      -1.784  77.810 113.958  0.00  0.00     0.091 C 
ENDROOT
BRANCH   1   7
ATOM      7  O   LIG d   1      -1.377  78.475 116.282  0.00  0.00    -0.368 OA
BRANCH   7   8
ATOM      8  C   LIG d   1      -0.260  78.466 117.204  0.00  0.00     0.119 C 
BRANCH   8   9
ATOM      9  C   LIG d   1      -0.430  77.242 118.126  0.00  0.00     0.028 C 
ATOM     10  C   LIG d   1       0.438  76.052 117.687  0.00  0.00     0.006 C 
ENDBRANCH   8   9
BRANCH   8  11
ATOM     11  C   LIG d   1      -0.296  79.682 118.134  0.00  0.00     0.028 C 
ATOM     12  C   LIG d   1      -0.960  79.379 119.487  0.00  0.00     0.006 C 
ENDBRANCH   8  11
ENDBRANCH   7   8
ENDBRANCH   1   7
BRANCH   6  13
ATOM     13  N   LIG d   1      -1.060  76.513 114.016  0.00  0.00    -0.311 N 
ATOM     14  C   LIG d   1      -1.517  75.447 114.671  0.00  0.00     0.210 C 
ATOM     15  C   LIG d   1      -0.606  74.217 114.620  0.00  0.00     0.109 C 
ATOM     16  O   LIG d   1      -2.606  75.393 115.262  0.00  0.00    -0.276 OA
ATOM     17  H   LIG d   1      -0.182  76.458 113.538  0.00  0.00     0.149 HD
ENDBRANCH   6  13
BRANCH   5  18
ATOM     18  N   LIG d   1      -2.656  77.516 111.612  0.00  0.00     0.381 N 
ATOM     19  H   LIG d   1      -2.738  77.958 110.718  0.00  0.00    -0.090 HD
ATOM     20  H   LIG d   1      -3.579  77.399 111.991  0.00  0.00    -0.090 HD
ATOM     21  H   LIG d   1      -2.214  76.629 111.513  0.00  0.00    -0.090 HD
ENDBRANCH   5  18
BRANCH   3  22
ATOM     22  C   LIG d   1      -2.015  81.976 113.235  0.00  0.00     0.382 C 
ATOM     23  O   LIG d   1      -2.359  82.778 114.136  0.00  0.00    -0.241 OA
ATOM     24  O   LIG d   1      -1.757  82.409 112.095  0.00  0.00    -0.241 OA
ENDBRANCH   3  22
TORSDOF 7
ENDMDL
MODEL 2
REMARK VINA RESULT:      -4.8      2.036      4.884
REMARK  7 active torsions:
REMARK  status: ('A' for Active; 'I' for Inactive)
REMARK    1  A    between atoms: C_2  and  C_3 
REMARK    2  A    between atoms: C_3  and  O_6 
REMARK    3  A    between atoms: C_3  and  C_4 
REMARK    4  A    between atoms: C_7  and  O_6 
REMARK    5  A    between atoms: C_9  and  C_10 
REMARK    6  A    between atoms: N_15  and  C_14 
REMARK    7  A    between atoms: N_20  and  C_19 
REMARK       I    between atoms: C_22  and  N_20 
ROOT
ATOM      1  C   LIG d   1      -1.215  79.873 114.036  0.00  0.00     0.161 C 
ATOM      2  C   LIG d   1      -1.967  78.746 114.406  0.00  0.00     0.016 C 
ATOM      3  C   LIG d   1      -2.382  77.753 113.489  0.00  0.00     0.038 C 
ATOM      4  C   LIG d   1      -1.942  77.742 112.157  0.00  0.00     0.028 C 
ATOM      5  C   LIG d   1      -1.598  79.128 111.622  0.00  0.00    -0.047 C 
ATOM      6  C   LIG d   1      -0.631  79.821 112.609  0.00  0.00     0.091 C 
ENDROOT
BRANCH   1   7
ATOM      7  O   LIG d   1      -0.166  80.098 114.998  0.00  0.00    -0.368 OA
BRANCH   7   8
ATOM      8  C   LIG d   1      -0.582  80.614 116.287  0.00  0.00     0.119 C 
BRANCH   8   9
ATOM      9  C   LIG d   1      -0.086  82.069 116.385  0.00  0.00     0.028 C 
ATOM     10  C   LIG d   1      -1.096  83.074 115.805  0.00  0.00     0.006 C 
ENDBRANCH   8   9
BRANCH   8  11
ATOM     11  C   LIG d   1       0.109  79.871 117.434  0.00  0.00     0.028 C 
ATOM     12  C   LIG d   1      -0.734  78.712 117.987  0.00  0.00     0.006 C 
ENDBRANCH   8  11
ENDBRANCH   7   8
ENDBRANCH   1   7
BRANCH   6  13
ATOM     13  N   LIG d   1      -0.310  81.215 112.203  0.00  0.00    -0.311 N 
ATOM     14  C   LIG d   1      -1.218  82.188 112.143  0.00  0.00     0.210 C 
ATOM     15  C   LIG d   1      -0.679  83.546 111.682  0.00  0.00     0.109 C 
ATOM     16  O   LIG d   1      -2.410  82.064 112.459  0.00  0.00    -0.276 OA
ATOM     17  H   LIG d   1       0.641  81.411 111.959  0.00  0.00     0.149 HD
ENDBRANCH   6  13
BRANCH   5  18
ATOM     18  N   LIG d   1      -1.024  78.955 110.274  0.00  0.00     0.381 N 
ATOM     19  H   LIG d   1      -0.363  78.205 110.281  0.00  0.00    -0.090 HD
ATOM     20  H   LIG d   1      -0.542  79.798 110.016  0.00  0.00    -0.090 HD
ATOM     21  H   LIG d   1      -1.748  78.764 109.617  0.00  0.00    -0.090 HD
ENDBRANCH   5  18
BRANCH   3  22
ATOM     22  C   LIG d   1      -3.281  76.777 113.894  0.00  0.00     0.382 C 
ATOM     23  O   LIG d   1      -4.196  76.407 113.119  0.00  0.00    -0.241 OA
ATOM     24  O   LIG d   1      -3.214  76.293 115.040  0.00  0.00    -0.241 OA
ENDBRANCH   3  22
TORSDOF 7
ENDMDL
MODEL 3
REMARK VINA RESULT:      -4.8      2.295      3.506
REMARK  7 active torsions:
REMARK  status: ('A' for Active; 'I' for Inactive)
REMARK    1  A    between atoms: C_2  and  C_3 
REMARK    2  A    between atoms: C_3  and  O_6 
REMARK    3  A    between atoms: C_3  and  C_4 
REMARK    4  A    between atoms: C_7  and  O_6 
REMARK    5  A    between atoms: C_9  and  C_10 
REMARK    6  A    between atoms: N_15  and  C_14 
REMARK    7  A    between atoms: N_20  and  C_19 
REMARK       I    between atoms: C_22  and  N_20 
ROOT
ATOM      1  C   LIG d   1      -1.687  79.403 113.858  0.00  0.00     0.161 C 
ATOM      2  C   LIG d   1      -1.887  80.538 114.661  0.00  0.00     0.016 C 
ATOM      3  C   LIG d   1      -1.688  81.861 114.202  0.00  0.00     0.038 C 
ATOM      4  C   LIG d   1      -1.418  82.145 112.855  0.00  0.00     0.028 C 
ATOM      5  C   LIG d   1      -0.712  81.008 112.125  0.00  0.00    -0.047 C 
ATOM      6  C   LIG d   1      -1.500  79.698 112.355  0.00  0.00     0.091 C 
ENDROOT
BRANCH   1   7
ATOM      7  O   LIG d   1      -2.766  78.469 114.055  0.00  0.00    -0.368 OA
BRANCH   7   8
ATOM      8  C   LIG d   1      -2.482  77.338 114.915  0.00  0.00     0.119 C 
BRANCH   8   9
ATOM      9  C   LIG d   1      -0.979  77.022 114.782  0.00  0.00     0.028 C 
ATOM     10  C   LIG d   1      -0.285  76.888 116.148  0.00  0.00     0.006 C 
ENDBRANCH   8   9
BRANCH   8  11
ATOM     11  C   LIG d   1      -3.205  76.076 114.433  0.00  0.00     0.028 C 
ATOM     12  C   LIG d   1      -3.504  75.089 115.573  0.00  0.00     0.006 C 
ENDBRANCH   8  11
ENDBRANCH   7   8
ENDBRANCH   1   7
BRANCH   6  13
ATOM     13  N   LIG d   1      -0.831  78.519 111.745  0.00  0.00    -0.311 N 
ATOM     14  C   LIG d   1      -1.493  77.523 111.160  0.00  0.00     0.210 C 
ATOM     15  C   LIG d   1      -0.612  76.395 110.613  0.00  0.00     0.109 C 
ATOM     16  O   LIG d   1      -2.724  77.481 111.013  0.00  0.00    -0.276 OA
ATOM     17  H   LIG d   1       0.168  78.487 111.792  0.00  0.00     0.149 HD
ENDBRANCH   6  13
BRANCH   5  18
ATOM     18  N   LIG d   1      -0.616  81.383 110.702  0.00  0.00     0.381 N 
ATOM     19  H   LIG d   1      -0.910  80.617 110.129  0.00  0.00    -0.090 HD
ATOM     20  H   LIG d   1       0.343  81.590 110.484  0.00  0.00    -0.090 HD
ATOM     21  H   LIG d   1      -1.185  82.180 110.520  0.00  0.00    -0.090 HD
ENDBRANCH   5  18
BRANCH   3  22
ATOM     22  C   LIG d   1      -1.719  82.913 115.104  0.00  0.00     0.382 C 
ATOM     23  O   LIG d   1      -0.834  83.007 115.988  0.00  0.00    -0.241 OA
ATOM     24  O   LIG d   1      -2.645  83.745 115.073  0.00  0.00    -0.241 OA
ENDBRANCH   3  22
TORSDOF 7
ENDMDL
MODEL 4
REMARK VINA RESULT:      -4.7      2.875      3.992
REMARK  7 active torsions:
REMARK  status: ('A' for Active; 'I' for Inactive)
REMARK    1  A    between atoms: C_2  and  C_3 
REMARK    2  A    between atoms: C_3  and  O_6 
REMARK    3  A    between atoms: C_3  and  C_4 
REMARK    4  A    between atoms: C_7  and  O_6 
REMARK    5  A    between atoms: C_9  and  C_10 
REMARK    6  A    between atoms: N_15  and  C_14 
REMARK    7  A    between atoms: N_20  and  C_19 
REMARK       I    between atoms: C_22  and  N_20 
ROOT
ATOM      1  C   LIG d   1      -0.494  76.870 115.583  0.00  0.00     0.161 C 
ATOM      2  C   LIG d   1      -1.061  77.288 114.367  0.00  0.00     0.016 C 
ATOM      3  C   LIG d   1      -2.321  76.846 113.904  0.00  0.00     0.038 C 
ATOM      4  C   LIG d   1      -3.173  76.067 114.702  0.00  0.00     0.028 C 
ATOM      5  C   LIG d   1      -2.432  75.211 115.723  0.00  0.00    -0.047 C 
ATOM      6  C   LIG d   1      -1.457  76.109 116.518  0.00  0.00     0.091 C 
ENDROOT
BRANCH   1   7
ATOM      7  O   LIG d   1       0.080  78.001 116.268  0.00  0.00    -0.368 OA
BRANCH   7   8
ATOM      8  C   LIG d   1      -0.858  78.972 116.793  0.00  0.00     0.119 C 
BRANCH   8   9
ATOM      9  C   LIG d   1      -0.317  80.373 116.449  0.00  0.00     0.028 C 
ATOM     10  C   LIG d   1      -0.428  80.692 114.949  0.00  0.00     0.006 C 
ENDBRANCH   8   9
BRANCH   8  11
ATOM     11  C   LIG d   1      -0.912  78.923 118.323  0.00  0.00     0.028 C 
ATOM     12  C   LIG d   1       0.438  78.550 118.956  0.00  0.00     0.006 C 
ENDBRANCH   8  11
ENDBRANCH   7   8
ENDBRANCH   1   7
BRANCH   6  13
ATOM     13  N   LIG d   1      -0.631  75.335 117.481  0.00  0.00    -0.311 N 
ATOM     14  C   LIG d   1      -0.959  75.170 118.761  0.00  0.00     0.210 C 
ATOM     15  C   LIG d   1       0.042  74.354 119.585  0.00  0.00     0.109 C 
ATOM     16  O   LIG d   1      -2.000  75.594 119.285  0.00  0.00    -0.276 OA
ATOM     17  H   LIG d   1       0.216  74.930 117.133  0.00  0.00     0.149 HD
ENDBRANCH   6  13
BRANCH   5  18
ATOM     18  N   LIG d   1      -3.443  74.559 116.576  0.00  0.00     0.381 N 
ATOM     19  H   LIG d   1      -4.291  75.091 116.563  0.00  0.00    -0.090 HD
ATOM     20  H   LIG d   1      -3.103  74.531 117.521  0.00  0.00    -0.090 HD
ATOM     21  H   LIG d   1      -3.618  73.634 116.251  0.00  0.00    -0.090 HD
ENDBRANCH   5  18
BRANCH   3  22
ATOM     22  C   LIG d   1      -2.724  77.149 112.612  0.00  0.00     0.382 C 
ATOM     23  O   LIG d   1      -3.944  77.145 112.319  0.00  0.00    -0.241 OA
ATOM     24  O   LIG d   1      -1.880  77.384 111.726  0.00  0.00    -0.241 OA
ENDBRANCH   3  22
TORSDOF 7
ENDMDL
MODEL 5
REMARK VINA RESULT:      -4.7      2.424      4.589
REMARK  7 active torsions:
REMARK  status: ('A' for Active; 'I' for Inactive)
REMARK    1  A    between atoms: C_2  and  C_3 
REMARK    2  A    between atoms: C_3  and  O_6 
REMARK    3  A    between atoms: C_3  and  C_4 
REMARK    4  A    between atoms: C_7  and  O_6 
REMARK    5  A    between atoms: C_9  and  C_10 
REMARK    6  A    between atoms: N_15  and  C_14 
REMARK    7  A    between atoms: N_20  and  C_19 
REMARK       I    between atoms: C_22  and  N_20 
ROOT
ATOM      1  C   LIG d   1      -1.498  79.534 114.909  0.00  0.00     0.161 C 
ATOM      2  C   LIG d   1      -2.090  78.488 114.182  0.00  0.00     0.016 C 
ATOM      3  C   LIG d   1      -2.303  78.533 112.785  0.00  0.00     0.038 C 
ATOM      4  C   LIG d   1      -1.796  79.573 111.991  0.00  0.00     0.028 C 
ATOM      5  C   LIG d   1      -1.637  80.889 112.746  0.00  0.00    -0.047 C 
ATOM      6  C   LIG d   1      -0.839  80.629 114.044  0.00  0.00     0.091 C 
ENDROOT
BRANCH   1   7
ATOM      7  O   LIG d   1      -0.547  78.999 115.850  0.00  0.00    -0.368 OA
BRANCH   7   8
ATOM      8  C   LIG d   1      -1.001  77.877 116.647  0.00  0.00     0.119 C 
BRANCH   8   9
ATOM      9  C   LIG d   1      -1.070  78.348 118.112  0.00  0.00     0.028 C 
ATOM     10  C   LIG d   1      -2.152  77.608 118.917  0.00  0.00     0.006 C 
ENDBRANCH   8   9
BRANCH   8  11
ATOM     11  C   LIG d   1       0.020  76.735 116.635  0.00  0.00     0.028 C 
ATOM     12  C   LIG d   1      -0.604  75.383 116.255  0.00  0.00     0.006 C 
ENDBRANCH   8  11
ENDBRANCH   7   8
ENDBRANCH   1   7
BRANCH   6  13
ATOM     13  N   LIG d   1      -0.710  81.849 114.884  0.00  0.00    -0.311 N 
ATOM     14  C   LIG d   1      -1.688  82.740 115.037  0.00  0.00     0.210 C 
ATOM     15  C   LIG d   1      -1.340  83.935 115.930  0.00  0.00     0.109 C 
ATOM     16  O   LIG d   1      -2.822  82.637 114.545  0.00  0.00    -0.276 OA
ATOM     17  H   LIG d   1       0.166  81.994 115.345  0.00  0.00     0.149 HD
ENDBRANCH   6  13
BRANCH   5  18
ATOM     18  N   LIG d   1      -0.974  81.845 111.840  0.00  0.00     0.381 N 
ATOM     19  H   LIG d   1      -0.432  82.496 112.373  0.00  0.00    -0.090 HD
ATOM     20  H   LIG d   1      -1.676  82.357 111.336  0.00  0.00    -0.090 HD
ATOM     21  H   LIG d   1      -0.385  81.357 111.201  0.00  0.00    -0.090 HD
ENDBRANCH   5  18
BRANCH   3  22
ATOM     22  C   LIG d   1      -3.064  77.549 112.174  0.00  0.00     0.382 C 
ATOM     23  O   LIG d   1      -3.798  76.803 112.866  0.00  0.00    -0.241 OA
ATOM     24  O   LIG d   1      -2.994  77.369 110.943  0.00  0.00    -0.241 OA
ENDBRANCH   3  22
TORSDOF 7
ENDMDL
MODEL 6
REMARK VINA RESULT:      -4.5      2.353      3.437
REMARK  7 active torsions:
REMARK  status: ('A' for Active; 'I' for Inactive)
REMARK    1  A    between atoms: C_2  and  C_3 
REMARK    2  A    between atoms: C_3  and  O_6 
REMARK    3  A    between atoms: C_3  and  C_4 
REMARK    4  A    between atoms: C_7  and  O_6 
REMARK    5  A    between atoms: C_9  and  C_10 
REMARK    6  A    between atoms: N_15  and  C_14 
REMARK    7  A    between atoms: N_20  and  C_19 
REMARK       I    between atoms: C_22  and  N_20 
ROOT
ATOM      1  C   LIG d   1      -0.842  79.373 115.034  0.00  0.00     0.161 C 
ATOM      2  C   LIG d   1      -0.658  80.333 116.044  0.00  0.00     0.016 C 
ATOM      3  C   LIG d   1      -0.773  81.725 115.824  0.00  0.00     0.038 C 
ATOM      4  C   LIG d   1      -1.231  82.248 114.606  0.00  0.00     0.028 C 
ATOM      5  C   LIG d   1      -0.941  81.345 113.412  0.00  0.00    -0.047 C 
ATOM      6  C   LIG d   1      -1.451  79.919 113.726  0.00  0.00     0.091 C 
ENDROOT
BRANCH   1   7
ATOM      7  O   LIG d   1      -1.635  78.280 115.538  0.00  0.00    -0.368 OA
BRANCH   7   8
ATOM      8  C   LIG d   1      -0.918  77.056 115.835  0.00  0.00     0.119 C 
BRANCH   8   9
ATOM      9  C   LIG d   1      -1.356  76.001 114.801  0.00  0.00     0.028 C 
ATOM     10  C   LIG d   1      -0.859  74.590 115.157  0.00  0.00     0.006 C 
ENDBRANCH   8   9
BRANCH   8  11
ATOM     11  C   LIG d   1      -1.330  76.486 117.196  0.00  0.00     0.028 C 
ATOM     12  C   LIG d   1      -1.729  77.577 118.203  0.00  0.00     0.006 C 
ENDBRANCH   8  11
ENDBRANCH   7   8
ENDBRANCH   1   7
BRANCH   6  13
ATOM     13  N   LIG d   1      -1.132  78.952 112.643  0.00  0.00    -0.311 N 
ATOM     14  C   LIG d   1      -2.058  78.258 111.984  0.00  0.00     0.210 C 
ATOM     15  C   LIG d   1      -1.513  77.301 110.920  0.00  0.00     0.109 C 
ATOM     16  O   LIG d   1      -3.281  78.368 112.158  0.00  0.00    -0.276 OA
ATOM     17  H   LIG d   1      -0.165  78.824 112.416  0.00  0.00     0.149 HD
ENDBRANCH   6  13
BRANCH   5  18
ATOM     18  N   LIG d   1      -1.592  81.944 112.231  0.00  0.00     0.381 N 
ATOM     19  H   LIG d   1      -2.411  81.421 111.994  0.00  0.00    -0.090 HD
ATOM     20  H   LIG d   1      -0.956  81.904 111.454  0.00  0.00    -0.090 HD
ATOM     21  H   LIG d   1      -1.837  82.891 112.421  0.00  0.00    -0.090 HD
ENDBRANCH   5  18
BRANCH   3  22
ATOM     22  C   LIG d   1      -0.389  82.611 116.819  0.00  0.00     0.382 C 
ATOM     23  O   LIG d   1      -0.221  83.824 116.547  0.00  0.00    -0.241 OA
ATOM     24  O   LIG d   1      -0.165  82.205 117.975  0.00  0.00    -0.241 OA
ENDBRANCH   3  22
TORSDOF 7
ENDMDL
MODEL 7
REMARK VINA RESULT:      -4.5      2.257      5.143
REMARK  7 active torsions:
REMARK  status: ('A' for Active; 'I' for Inactive)
REMARK    1  A    between atoms: C_2  and  C_3 
REMARK    2  A    between atoms: C_3  and  O_6 
REMARK    3  A    between atoms: C_3  and  C_4 
REMARK    4  A    between atoms: C_7  and  O_6 
REMARK    5  A    between atoms: C_9  and  C_10 
REMARK    6  A    between atoms: N_15  and  C_14 
REMARK    7  A    between atoms: N_20  and  C_19 
REMARK       I    between atoms: C_22  and  N_20 
ROOT
ATOM      1  C   LIG d   1      -1.200  77.833 115.991  0.00  0.00     0.161 C 
ATOM      2  C   LIG d   1      -1.422  77.485 117.334  0.00  0.00     0.016 C 
ATOM      3  C   LIG d   1      -1.498  76.149 117.790  0.00  0.00     0.038 C 
ATOM      4  C   LIG d   1      -1.204  75.062 116.953  0.00  0.00     0.028 C 
ATOM      5  C   LIG d   1      -1.472  75.344 115.478  0.00  0.00    -0.047 C 
ATOM      6  C   LIG d   1      -0.768  76.662 115.083  0.00  0.00     0.091 C 
ENDROOT
BRANCH   1   7
ATOM      7  O   LIG d   1      -0.242  78.906 115.915  0.00  0.00    -0.368 OA
BRANCH   7   8
ATOM      8  C   LIG d   1      -0.788  80.248 115.889  0.00  0.00     0.119 C 
BRANCH   8   9
ATOM      9  C   LIG d   1      -0.846  80.695 114.416  0.00  0.00     0.028 C 
ATOM     10  C   LIG d   1      -2.280  81.000 113.952  0.00  0.00     0.006 C 
ENDBRANCH   8   9
BRANCH   8  11
ATOM     11  C   LIG d   1       0.149  81.244 116.579  0.00  0.00     0.028 C 
ATOM     12  C   LIG d   1      -0.413  81.767 117.910  0.00  0.00     0.006 C 
ENDBRANCH   8  11
ENDBRANCH   7   8
ENDBRANCH   1   7
BRANCH   6  13
ATOM     13  N   LIG d   1      -1.048  77.056 113.678  0.00  0.00    -0.311 N 
ATOM     14  C   LIG d   1      -2.255  77.414 113.243  0.00  0.00     0.210 C 
ATOM     15  C   LIG d   1      -2.329  77.762 111.753  0.00  0.00     0.109 C 
ATOM     16  O   LIG d   1      -3.264  77.507 113.957  0.00  0.00    -0.276 OA
ATOM     17  H   LIG d   1      -0.278  77.038 113.037  0.00  0.00     0.149 HD
ENDBRANCH   6  13
BRANCH   5  18
ATOM     18  N   LIG d   1      -0.994  74.180 114.708  0.00  0.00     0.381 N 
ATOM     19  H   LIG d   1      -1.546  73.376 114.933  0.00  0.00    -0.090 HD
ATOM     20  H   LIG d   1      -0.041  73.990 114.964  0.00  0.00    -0.090 HD
ATOM     21  H   LIG d   1      -1.053  74.370 113.732  0.00  0.00    -0.090 HD
ENDBRANCH   5  18
BRANCH   3  22
ATOM     22  C   LIG d   1      -1.910  75.888 119.088  0.00  0.00     0.382 C 
ATOM     23  O   LIG d   1      -1.307  75.030 119.776  0.00  0.00    -0.241 OA
ATOM     24  O   LIG d   1      -2.904  76.469 119.564  0.00  0.00    -0.241 OA
ENDBRANCH   3  22
TORSDOF 7
ENDMDL
MODEL 8
REMARK VINA RESULT:      -4.4      2.221      4.055
REMARK  7 active torsions:
REMARK  status: ('A' for Active; 'I' for Inactive)
REMARK    1  A    between atoms: C_2  and  C_3 
REMARK    2  A    between atoms: C_3  and  O_6 
REMARK    3  A    between atoms: C_3  and  C_4 
REMARK    4  A    between atoms: C_7  and  O_6 
REMARK    5  A    between atoms: C_9  and  C_10 
REMARK    6  A    between atoms: N_15  and  C_14 
REMARK    7  A    between atoms: N_20  and  C_19 
REMARK       I    between atoms: C_22  and  N_20 
ROOT
ATOM      1  C   LIG d   1      -0.933  79.253 114.797  0.00  0.00     0.161 C 
ATOM      2  C   LIG d   1      -1.312  79.265 113.445  0.00  0.00     0.016 C 
ATOM      3  C   LIG d   1      -1.961  78.182 112.808  0.00  0.00     0.038 C 
ATOM      4  C   LIG d   1      -2.412  77.063 113.525  0.00  0.00     0.028 C 
ATOM      5  C   LIG d   1      -1.605  76.787 114.789  0.00  0.00    -0.047 C 
ATOM      6  C   LIG d   1      -1.517  78.086 115.622  0.00  0.00     0.091 C 
ENDROOT
BRANCH   1   7
ATOM      7  O   LIG d   1      -1.266  80.515 115.409  0.00  0.00    -0.368 OA
BRANCH   7   8
ATOM      8  C   LIG d   1      -0.472  81.653 114.994  0.00  0.00     0.119 C 
BRANCH   8   9
ATOM      9  C   LIG d   1       0.149  82.272 116.261  0.00  0.00     0.028 C 
ATOM     10  C   LIG d   1      -0.083  81.407 117.511  0.00  0.00     0.006 C 
ENDBRANCH   8   9
BRANCH   8  11
ATOM     11  C   LIG d   1      -1.350  82.755 114.393  0.00  0.00     0.028 C 
ATOM     12  C   LIG d   1      -1.730  83.838 115.415  0.00  0.00     0.006 C 
ENDBRANCH   8  11
ENDBRANCH   7   8
ENDBRANCH   1   7
BRANCH   6  13
ATOM     13  N   LIG d   1      -0.672  77.926 116.834  0.00  0.00    -0.311 N 
ATOM     14  C   LIG d   1      -1.165  77.642 118.039  0.00  0.00     0.210 C 
ATOM     15  C   LIG d   1      -0.123  77.540 119.156  0.00  0.00     0.109 C 
ATOM     16  O   LIG d   1      -2.363  77.432 118.281  0.00  0.00    -0.276 OA
ATOM     17  H   LIG d   1       0.315  78.048 116.722  0.00  0.00     0.149 HD
ENDBRANCH   6  13
BRANCH   5  18
ATOM     18  N   LIG d   1      -2.267  75.683 115.508  0.00  0.00     0.381 N 
ATOM     19  H   LIG d   1      -2.082  74.817 115.042  0.00  0.00    -0.090 HD
ATOM     20  H   LIG d   1      -3.259  75.839 115.502  0.00  0.00    -0.090 HD
ATOM     21  H   LIG d   1      -1.935  75.640 116.447  0.00  0.00    -0.090 HD
ENDBRANCH   5  18
BRANCH   3  22
ATOM     22  C   LIG d   1      -2.128  78.193 111.432  0.00  0.00     0.382 C 
ATOM     23  O   LIG d   1      -2.934  77.399 110.892  0.00  0.00    -0.241 OA
ATOM     24  O   LIG d   1      -1.449  78.957 110.720  0.00  0.00    -0.241 OA
ENDBRANCH   3  22
TORSDOF 7
ENDMDL
MODEL 9
REMARK VINA RESULT:      -4.4      1.822      2.830
REMARK  7 active torsions:
REMARK  status: ('A' for Active; 'I' for Inactive)
REMARK    1  A    between atoms: C_2  and  C_3 
REMARK    2  A    between atoms: C_3  and  O_6 
REMARK    3  A    between atoms: C_3  and  C_4 
REMARK    4  A    between atoms: C_7  and  O_6 
REMARK    5  A    between atoms: C_9  and  C_10 
REMARK    6  A    between atoms: N_15  and  C_14 
REMARK    7  A    between atoms: N_20  and  C_19 
REMARK       I    between atoms: C_22  and  N_20 
ROOT
ATOM      1  C   LIG d   1       0.052  80.084 115.488  0.00  0.00     0.161 C 
ATOM      2  C   LIG d   1      -0.295  81.202 114.712  0.00  0.00     0.016 C 
ATOM      3  C   LIG d   1      -1.426  81.241 113.864  0.00  0.00     0.038 C 
ATOM      4  C   LIG d   1      -2.377  80.210 113.850  0.00  0.00     0.028 C 
ATOM      5  C   LIG d   1      -1.804  78.851 114.236  0.00  0.00    -0.047 C 
ATOM      6  C   LIG d   1      -1.035  78.992 115.570  0.00  0.00     0.091 C 
ENDROOT
BRANCH   1   7
ATOM      7  O   LIG d   1       0.437  80.508 116.811  0.00  0.00    -0.368 OA
BRANCH   7   8
ATOM      8  C   LIG d   1      -0.597  81.140 117.604  0.00  0.00     0.119 C 
BRANCH   8   9
ATOM      9  C   LIG d   1      -0.121  82.570 117.929  0.00  0.00     0.028 C 
ATOM     10  C   LIG d   1      -1.079  83.644 117.387  0.00  0.00     0.006 C 
ENDBRANCH   8   9
BRANCH   8  11
ATOM     11  C   LIG d   1      -0.760  80.449 118.961  0.00  0.00     0.028 C 
ATOM     12  C   LIG d   1       0.362  79.441 119.254  0.00  0.00     0.006 C 
ENDBRANCH   8  11
ENDBRANCH   7   8
ENDBRANCH   1   7
BRANCH   6  13
ATOM     13  N   LIG d   1      -0.371  77.726 115.978  0.00  0.00    -0.311 N 
ATOM     14  C   LIG d   1      -0.930  76.836 116.796  0.00  0.00     0.210 C 
ATOM     15  C   LIG d   1      -0.066  75.609 117.104  0.00  0.00     0.109 C 
ATOM     16  O   LIG d   1      -2.072  76.930 117.270  0.00  0.00    -0.276 OA
ATOM     17  H   LIG d   1       0.545  77.554 115.614  0.00  0.00     0.149 HD
ENDBRANCH   6  13
BRANCH   5  18
ATOM     18  N   LIG d   1      -2.928  77.899 114.314  0.00  0.00     0.381 N 
ATOM     19  H   LIG d   1      -3.761  78.380 114.590  0.00  0.00    -0.090 HD
ATOM     20  H   LIG d   1      -2.719  77.206 115.011  0.00  0.00    -0.090 HD
ATOM     21  H   LIG d   1      -3.066  77.461 113.430  0.00  0.00    -0.090 HD
ENDBRANCH   5  18
BRANCH   3  22
ATOM     22  C   LIG d   1      -1.592  82.303 112.988  0.00  0.00     0.382 C 
ATOM     23  O   LIG d   1      -1.615  83.478 113.425  0.00  0.00    -0.241 OA
ATOM     24  O   LIG d   1      -1.763  82.097 111.771  0.00  0.00    -0.241 OA
ENDBRANCH   3  22
TORSDOF 7
ENDMDL
