MODEL 1
REMARK VINA RESULT:      -5.0      0.000      0.000
REMARK  7 active torsions:
REMARK  status: ('A' for Active; 'I' for Inactive)
REMARK    1  A    between atoms: C_2  and  C_3 
REMARK    2  A    between atoms: C_3  and  O_6 
REMARK    3  A    between atoms: C_3  and  C_4 
REMARK    4  A    between atoms: C_7  and  O_6 
REMARK    5  A    between atoms: C_9  and  C_10 
REMARK    6  A    between atoms: N_15  and  C_14 
REMARK    7  A    between atoms: N_20  and  C_19 
REMARK       I    between atoms: C_22  and  N_20 
ROOT
ATOM      1  C   LIG d   1      -0.721  80.082 114.827  0.00  0.00     0.161 C 
ATOM      2  C   LIG d   1      -0.740  81.318 114.160  0.00  0.00     0.016 C 
ATOM      3  C   LIG d   1      -1.202  81.480 112.834  0.00  0.00     0.038 C 
ATOM      4  C   LIG d   1      -1.822  80.435 112.133  0.00  0.00     0.028 C 
ATOM      5  C   LIG d   1      -1.366  79.051 112.581  0.00  0.00    -0.047 C 
ATOM      6  C   LIG d   1      -1.496  78.953 114.118  0.00  0.00     0.091 C 
ENDROOT
BRANCH   1   7
ATOM      7  O   LIG d   1      -1.200  80.248 116.177  0.00  0.00    -0.368 OA
BRANCH   7   8
ATOM      8  C   LIG d   1      -1.949  81.459 116.443  0.00  0.00     0.119 C 
BRANCH   8   9
ATOM      9  C   LIG d   1      -1.399  82.066 117.749  0.00  0.00     0.028 C 
ATOM     10  C   LIG d   1      -0.325  83.136 117.492  0.00  0.00     0.006 C 
ENDBRANCH   8   9
BRANCH   8  11
ATOM     11  C   LIG d   1      -3.422  81.152 116.727  0.00  0.00     0.028 C 
ATOM     12  C   LIG d   1      -3.761  81.194 118.225  0.00  0.00     0.006 C 
ENDBRANCH   8  11
ENDBRANCH   7   8
ENDBRANCH   1   7
BRANCH   6  13
ATOM     13  N   LIG d   1      -0.992  77.659 114.648  0.00  0.00    -0.311 N 
ATOM     14  C   LIG d   1      -1.754  76.575 114.784  0.00  0.00     0.210 C 
ATOM     15  C   LIG d   1      -1.040  75.352 115.369  0.00  0.00     0.109 C 
ATOM     16  O   LIG d   1      -2.945  76.501 114.447  0.00  0.00    -0.276 OA
ATOM     17  H   LIG d   1      -0.028  77.621 114.917  0.00  0.00     0.149 HD
ENDBRANCH   6  13
BRANCH   5  18
ATOM     18  N   LIG d   1      -2.190  78.057 111.866  0.00  0.00     0.381 N 
ATOM     19  H   LIG d   1      -2.557  78.462 111.028  0.00  0.00    -0.090 HD
ATOM     20  H   LIG d   1      -2.961  77.792 112.453  0.00  0.00    -0.090 HD
ATOM     21  H   LIG d   1      -1.642  77.256 111.644  0.00  0.00    -0.090 HD
ENDBRANCH   5  18
BRANCH   3  22
ATOM     22  C   LIG d   1      -1.010  82.688 112.182  0.00  0.00     0.382 C 
ATOM     23  O   LIG d   1      -0.803  82.707 110.944  0.00  0.00    -0.241 OA
ATOM     24  O   LIG d   1      -0.996  83.757 112.822  0.00  0.00    -0.241 OA
ENDBRANCH   3  22
TORSDOF 7
ENDMDL
MODEL 2
REMARK VINA RESULT:      -5.0      4.517      7.617
REMARK  7 active torsions:
REMARK  status: ('A' for Active; 'I' for Inactive)
REMARK    1  A    between atoms: C_2  and  C_3 
REMARK    2  A    between atoms: C_3  and  O_6 
REMARK    3  A    between atoms: C_3  and  C_4 
REMARK    4  A    between atoms: C_7  and  O_6 
REMARK    5  A    between atoms: C_9  and  C_10 
REMARK    6  A    between atoms: N_15  and  C_14 
REMARK    7  A    between atoms: N_20  and  C_19 
REMARK       I    between atoms: C_22  and  N_20 
ROOT
ATOM      1  C   LIG d   1      -5.731  78.034 117.054  0.00  0.00     0.161 C 
ATOM      2  C   LIG d   1      -7.082  77.735 117.295  0.00  0.00     0.016 C 
ATOM      3  C   LIG d   1      -8.047  78.712 117.634  0.00  0.00     0.038 C 
ATOM      4  C   LIG d   1      -7.754  80.084 117.606  0.00  0.00     0.028 C 
ATOM      5  C   LIG d   1      -6.283  80.395 117.861  0.00  0.00    -0.047 C 
ATOM      6  C   LIG d   1      -5.417  79.538 116.910  0.00  0.00     0.091 C 
ENDROOT
BRANCH   1   7
ATOM      7  O   LIG d   1      -5.271  77.313 115.894  0.00  0.00    -0.368 OA
BRANCH   7   8
ATOM      8  C   LIG d   1      -4.714  75.998 116.140  0.00  0.00     0.119 C 
BRANCH   8   9
ATOM      9  C   LIG d   1      -3.201  76.077 115.863  0.00  0.00     0.028 C 
ATOM     10  C   LIG d   1      -2.551  74.687 115.751  0.00  0.00     0.006 C 
ENDBRANCH   8   9
BRANCH   8  11
ATOM     11  C   LIG d   1      -5.256  74.969 115.144  0.00  0.00     0.028 C 
ATOM     12  C   LIG d   1      -5.835  75.614 113.875  0.00  0.00     0.006 C 
ENDBRANCH   8  11
ENDBRANCH   7   8
ENDBRANCH   1   7
BRANCH   6  13
ATOM     13  N   LIG d   1      -3.962  79.719 117.151  0.00  0.00    -0.311 N 
ATOM     14  C   LIG d   1      -3.074  79.906 116.175  0.00  0.00     0.210 C 
ATOM     15  C   LIG d   1      -1.622  80.050 116.641  0.00  0.00     0.109 C 
ATOM     16  O   LIG d   1      -3.356  79.998 114.971  0.00  0.00    -0.276 OA
ATOM     17  H   LIG d   1      -3.650  79.689 118.102  0.00  0.00     0.149 HD
ENDBRANCH   6  13
BRANCH   5  18
ATOM     18  N   LIG d   1      -6.094  81.845 117.667  0.00  0.00     0.381 N 
ATOM     19  H   LIG d   1      -6.970  82.274 117.445  0.00  0.00    -0.090 HD
ATOM     20  H   LIG d   1      -5.467  81.991 116.895  0.00  0.00    -0.090 HD
ATOM     21  H   LIG d   1      -5.716  82.253 118.493  0.00  0.00    -0.090 HD
ENDBRANCH   5  18
BRANCH   3  22
ATOM     22  C   LIG d   1      -9.310  78.316 118.045  0.00  0.00     0.382 C 
ATOM     23  O   LIG d   1      -9.891  78.935 118.969  0.00  0.00    -0.241 OA
ATOM     24  O   LIG d   1      -9.858  77.322 117.533  0.00  0.00    -0.241 OA
ENDBRANCH   3  22
TORSDOF 7
ENDMDL
MODEL 3
REMARK VINA RESULT:      -5.0      4.577      7.661
REMARK  7 active torsions:
REMARK  status: ('A' for Active; 'I' for Inactive)
REMARK    1  A    between atoms: C_2  and  C_3 
REMARK    2  A    between atoms: C_3  and  O_6 
REMARK    3  A    between atoms: C_3  and  C_4 
REMARK    4  A    between atoms: C_7  and  O_6 
REMARK    5  A    between atoms: C_9  and  C_10 
REMARK    6  A    between atoms: N_15  and  C_14 
REMARK    7  A    between atoms: N_20  and  C_19 
REMARK       I    between atoms: C_22  and  N_20 
ROOT
ATOM      1  C   LIG d   1      -5.796  78.376 117.074  0.00  0.00     0.161 C 
ATOM      2  C   LIG d   1      -7.109  77.926 117.293  0.00  0.00     0.016 C 
ATOM      3  C   LIG d   1      -8.161  78.771 117.717  0.00  0.00     0.038 C 
ATOM      4  C   LIG d   1      -8.004  80.162 117.805  0.00  0.00     0.028 C 
ATOM      5  C   LIG d   1      -6.568  80.594 118.081  0.00  0.00    -0.047 C 
ATOM      6  C   LIG d   1      -5.633  79.910 117.057  0.00  0.00     0.091 C 
ENDROOT
BRANCH   1   7
ATOM      7  O   LIG d   1      -5.281  77.804 115.855  0.00  0.00    -0.368 OA
BRANCH   7   8
ATOM      8  C   LIG d   1      -4.342  76.712 116.010  0.00  0.00     0.119 C 
BRANCH   8   9
ATOM      9  C   LIG d   1      -3.283  76.851 114.900  0.00  0.00     0.028 C 
ATOM     10  C   LIG d   1      -2.339  78.042 115.135  0.00  0.00     0.006 C 
ENDBRANCH   8   9
BRANCH   8  11
ATOM     11  C   LIG d   1      -5.015  75.359 115.762  0.00  0.00     0.028 C 
ATOM     12  C   LIG d   1      -5.583  75.228 114.340  0.00  0.00     0.006 C 
ENDBRANCH   8  11
ENDBRANCH   7   8
ENDBRANCH   1   7
BRANCH   6  13
ATOM     13  N   LIG d   1      -4.200  80.213 117.308  0.00  0.00    -0.311 N 
ATOM     14  C   LIG d   1      -3.558  81.237 116.749  0.00  0.00     0.210 C 
ATOM     15  C   LIG d   1      -2.078  81.356 117.127  0.00  0.00     0.109 C 
ATOM     16  O   LIG d   1      -4.081  82.076 116.001  0.00  0.00    -0.276 OA
ATOM     17  H   LIG d   1      -3.706  79.600 117.928  0.00  0.00     0.149 HD
ENDBRANCH   6  13
BRANCH   5  18
ATOM     18  N   LIG d   1      -6.524  82.067 118.011  0.00  0.00     0.381 N 
ATOM     19  H   LIG d   1      -5.699  82.403 118.465  0.00  0.00    -0.090 HD
ATOM     20  H   LIG d   1      -7.323  82.439 118.492  0.00  0.00    -0.090 HD
ATOM     21  H   LIG d   1      -6.533  82.363 117.059  0.00  0.00    -0.090 HD
ENDBRANCH   5  18
BRANCH   3  22
ATOM     22  C   LIG d   1      -9.375  78.219 118.097  0.00  0.00     0.382 C 
ATOM     23  O   LIG d   1      -9.812  77.201 117.509  0.00  0.00    -0.241 OA
ATOM     24  O   LIG d   1     -10.059  78.753 118.990  0.00  0.00    -0.241 OA
ENDBRANCH   3  22
TORSDOF 7
ENDMDL
MODEL 4
REMARK VINA RESULT:      -4.7      3.746      6.591
REMARK  7 active torsions:
REMARK  status: ('A' for Active; 'I' for Inactive)
REMARK    1  A    between atoms: C_2  and  C_3 
REMARK    2  A    between atoms: C_3  and  O_6 
REMARK    3  A    between atoms: C_3  and  C_4 
REMARK    4  A    between atoms: C_7  and  O_6 
REMARK    5  A    between atoms: C_9  and  C_10 
REMARK    6  A    between atoms: N_15  and  C_14 
REMARK    7  A    between atoms: N_20  and  C_19 
REMARK       I    between atoms: C_22  and  N_20 
ROOT
ATOM      1  C   LIG d   1      -4.493  78.631 116.633  0.00  0.00     0.161 C 
ATOM      2  C   LIG d   1      -4.153  77.407 116.034  0.00  0.00     0.016 C 
ATOM      3  C   LIG d   1      -5.048  76.317 115.930  0.00  0.00     0.038 C 
ATOM      4  C   LIG d   1      -6.400  76.431 116.285  0.00  0.00     0.028 C 
ATOM      5  C   LIG d   1      -6.658  77.483 117.358  0.00  0.00    -0.047 C 
ATOM      6  C   LIG d   1      -5.997  78.812 116.926  0.00  0.00     0.091 C 
ENDROOT
BRANCH   1   7
ATOM      7  O   LIG d   1      -4.005  79.722 115.826  0.00  0.00    -0.368 OA
BRANCH   7   8
ATOM      8  C   LIG d   1      -2.727  80.282 116.218  0.00  0.00     0.119 C 
BRANCH   8   9
ATOM      9  C   LIG d   1      -3.003  81.647 116.877  0.00  0.00     0.028 C 
ATOM     10  C   LIG d   1      -1.870  82.658 116.630  0.00  0.00     0.006 C 
ENDBRANCH   8   9
BRANCH   8  11
ATOM     11  C   LIG d   1      -1.857  80.590 114.996  0.00  0.00     0.028 C 
ATOM     12  C   LIG d   1      -1.334  79.323 114.302  0.00  0.00     0.006 C 
ENDBRANCH   8  11
ENDBRANCH   7   8
ENDBRANCH   1   7
BRANCH   6  13
ATOM     13  N   LIG d   1      -6.129  79.873 117.959  0.00  0.00    -0.311 N 
ATOM     14  C   LIG d   1      -6.587  81.097 117.699  0.00  0.00     0.210 C 
ATOM     15  C   LIG d   1      -6.623  82.043 118.903  0.00  0.00     0.109 C 
ATOM     16  O   LIG d   1      -6.996  81.478 116.592  0.00  0.00    -0.276 OA
ATOM     17  H   LIG d   1      -5.850  79.639 118.891  0.00  0.00     0.149 HD
ENDBRANCH   6  13
BRANCH   5  18
ATOM     18  N   LIG d   1      -8.118  77.593 117.533  0.00  0.00     0.381 N 
ATOM     19  H   LIG d   1      -8.417  76.991 118.274  0.00  0.00    -0.090 HD
ATOM     20  H   LIG d   1      -8.570  77.299 116.685  0.00  0.00    -0.090 HD
ATOM     21  H   LIG d   1      -8.367  78.536 117.740  0.00  0.00    -0.090 HD
ENDBRANCH   5  18
BRANCH   3  22
ATOM     22  C   LIG d   1      -4.581  75.083 115.502  0.00  0.00     0.382 C 
ATOM     23  O   LIG d   1      -3.962  74.337 116.298  0.00  0.00    -0.241 OA
ATOM     24  O   LIG d   1      -4.732  74.726 114.318  0.00  0.00    -0.241 OA
ENDBRANCH   3  22
TORSDOF 7
ENDMDL
MODEL 5
REMARK VINA RESULT:      -4.6      2.733      4.044
REMARK  7 active torsions:
REMARK  status: ('A' for Active; 'I' for Inactive)
REMARK    1  A    between atoms: C_2  and  C_3 
REMARK    2  A    between atoms: C_3  and  O_6 
REMARK    3  A    between atoms: C_3  and  C_4 
REMARK    4  A    between atoms: C_7  and  O_6 
REMARK    5  A    between atoms: C_9  and  C_10 
REMARK    6  A    between atoms: N_15  and  C_14 
REMARK    7  A    between atoms: N_20  and  C_19 
REMARK       I    between atoms: C_22  and  N_20 
ROOT
ATOM      1  C   LIG d   1      -3.838  79.790 116.430  0.00  0.00     0.161 C 
ATOM      2  C   LIG d   1      -3.515  81.157 116.428  0.00  0.00     0.016 C 
ATOM      3  C   LIG d   1      -2.397  81.692 115.748  0.00  0.00     0.038 C 
ATOM      4  C   LIG d   1      -1.606  80.910 114.892  0.00  0.00     0.028 C 
ATOM      5  C   LIG d   1      -1.594  79.431 115.263  0.00  0.00    -0.047 C 
ATOM      6  C   LIG d   1      -3.051  78.938 115.412  0.00  0.00     0.091 C 
ENDROOT
BRANCH   1   7
ATOM      7  O   LIG d   1      -5.256  79.623 116.234  0.00  0.00    -0.368 OA
BRANCH   7   8
ATOM      8  C   LIG d   1      -6.079  79.714 117.423  0.00  0.00     0.119 C 
BRANCH   8   9
ATOM      9  C   LIG d   1      -6.947  78.442 117.483  0.00  0.00     0.028 C 
ATOM     10  C   LIG d   1      -6.139  77.199 117.892  0.00  0.00     0.006 C 
ENDBRANCH   8   9
BRANCH   8  11
ATOM     11  C   LIG d   1      -7.071  80.877 117.326  0.00  0.00     0.028 C 
ATOM     12  C   LIG d   1      -8.463  80.520 117.869  0.00  0.00     0.006 C 
ENDBRANCH   8  11
ENDBRANCH   7   8
ENDBRANCH   1   7
BRANCH   6  13
ATOM     13  N   LIG d   1      -3.129  77.522 115.856  0.00  0.00    -0.311 N 
ATOM     14  C   LIG d   1      -3.620  76.542 115.100  0.00  0.00     0.210 C 
ATOM     15  C   LIG d   1      -3.626  75.159 115.757  0.00  0.00     0.109 C 
ATOM     16  O   LIG d   1      -4.023  76.682 113.935  0.00  0.00    -0.276 OA
ATOM     17  H   LIG d   1      -2.795  77.314 116.777  0.00  0.00     0.149 HD
ENDBRANCH   6  13
BRANCH   5  18
ATOM     18  N   LIG d   1      -0.846  78.714 114.212  0.00  0.00     0.381 N 
ATOM     19  H   LIG d   1       0.119  78.974 114.247  0.00  0.00    -0.090 HD
ATOM     20  H   LIG d   1      -1.212  78.979 113.315  0.00  0.00    -0.090 HD
ATOM     21  H   LIG d   1      -0.938  77.730 114.339  0.00  0.00    -0.090 HD
ENDBRANCH   5  18
BRANCH   3  22
ATOM     22  C   LIG d   1      -2.036  83.015 115.951  0.00  0.00     0.382 C 
ATOM     23  O   LIG d   1      -1.199  83.307 116.839  0.00  0.00    -0.241 OA
ATOM     24  O   LIG d   1      -2.571  83.924 115.289  0.00  0.00    -0.241 OA
ENDBRANCH   3  22
TORSDOF 7
ENDMDL
MODEL 6
REMARK VINA RESULT:      -4.6      2.007      2.683
REMARK  7 active torsions:
REMARK  status: ('A' for Active; 'I' for Inactive)
REMARK    1  A    between atoms: C_2  and  C_3 
REMARK    2  A    between atoms: C_3  and  O_6 
REMARK    3  A    between atoms: C_3  and  C_4 
REMARK    4  A    between atoms: C_7  and  O_6 
REMARK    5  A    between atoms: C_9  and  C_10 
REMARK    6  A    between atoms: N_15  and  C_14 
REMARK    7  A    between atoms: N_20  and  C_19 
REMARK       I    between atoms: C_22  and  N_20 
ROOT
ATOM      1  C   LIG d   1      -2.148  79.112 115.851  0.00  0.00     0.161 C 
ATOM      2  C   LIG d   1      -2.289  80.454 115.460  0.00  0.00     0.016 C 
ATOM      3  C   LIG d   1      -2.239  80.882 114.114  0.00  0.00     0.038 C 
ATOM      4  C   LIG d   1      -2.194  79.971 113.047  0.00  0.00     0.028 C 
ATOM      5  C   LIG d   1      -1.543  78.642 113.413  0.00  0.00    -0.047 C 
ATOM      6  C   LIG d   1      -2.210  78.092 114.695  0.00  0.00     0.091 C 
ENDROOT
BRANCH   1   7
ATOM      7  O   LIG d   1      -3.130  78.790 116.856  0.00  0.00    -0.368 OA
BRANCH   7   8
ATOM      8  C   LIG d   1      -4.505  79.105 116.528  0.00  0.00     0.119 C 
BRANCH   8   9
ATOM      9  C   LIG d   1      -5.076  79.948 117.685  0.00  0.00     0.028 C 
ATOM     10  C   LIG d   1      -5.440  81.376 117.247  0.00  0.00     0.006 C 
ENDBRANCH   8   9
BRANCH   8  11
ATOM     11  C   LIG d   1      -5.370  77.842 116.481  0.00  0.00     0.028 C 
ATOM     12  C   LIG d   1      -6.451  77.819 117.574  0.00  0.00     0.006 C 
ENDBRANCH   8  11
ENDBRANCH   7   8
ENDBRANCH   1   7
BRANCH   6  13
ATOM     13  N   LIG d   1      -1.575  76.835 115.170  0.00  0.00    -0.311 N 
ATOM     14  C   LIG d   1      -2.209  75.664 115.211  0.00  0.00     0.210 C 
ATOM     15  C   LIG d   1      -1.377  74.498 115.753  0.00  0.00     0.109 C 
ATOM     16  O   LIG d   1      -3.370  75.474 114.820  0.00  0.00    -0.276 OA
ATOM     17  H   LIG d   1      -0.624  76.892 115.476  0.00  0.00     0.149 HD
ENDBRANCH   6  13
BRANCH   5  18
ATOM     18  N   LIG d   1      -1.687  77.741 112.254  0.00  0.00     0.381 N 
ATOM     19  H   LIG d   1      -2.599  77.846 111.855  0.00  0.00    -0.090 HD
ATOM     20  H   LIG d   1      -1.588  76.791 112.566  0.00  0.00    -0.090 HD
ATOM     21  H   LIG d   1      -0.992  77.949 111.572  0.00  0.00    -0.090 HD
ENDBRANCH   5  18
BRANCH   3  22
ATOM     22  C   LIG d   1      -2.193  82.237 113.824  0.00  0.00     0.382 C 
ATOM     23  O   LIG d   1      -2.638  83.070 114.651  0.00  0.00    -0.241 OA
ATOM     24  O   LIG d   1      -1.752  82.635 112.729  0.00  0.00    -0.241 OA
ENDBRANCH   3  22
TORSDOF 7
ENDMDL
MODEL 7
REMARK VINA RESULT:      -4.6      4.920      7.207
REMARK  7 active torsions:
REMARK  status: ('A' for Active; 'I' for Inactive)
REMARK    1  A    between atoms: C_2  and  C_3 
REMARK    2  A    between atoms: C_3  and  O_6 
REMARK    3  A    between atoms: C_3  and  C_4 
REMARK    4  A    between atoms: C_7  and  O_6 
REMARK    5  A    between atoms: C_9  and  C_10 
REMARK    6  A    between atoms: N_15  and  C_14 
REMARK    7  A    between atoms: N_20  and  C_19 
REMARK       I    between atoms: C_22  and  N_20 
ROOT
ATOM      1  C   LIG d   1      -6.396  78.480 117.551  0.00  0.00     0.161 C 
ATOM      2  C   LIG d   1      -7.568  79.225 117.767  0.00  0.00     0.016 C 
ATOM      3  C   LIG d   1      -7.630  80.632 117.643  0.00  0.00     0.038 C 
ATOM      4  C   LIG d   1      -6.554  81.380 117.143  0.00  0.00     0.028 C 
ATOM      5  C   LIG d   1      -5.196  80.731 117.393  0.00  0.00    -0.047 C 
ATOM      6  C   LIG d   1      -5.241  79.267 116.897  0.00  0.00     0.091 C 
ENDROOT
BRANCH   1   7
ATOM      7  O   LIG d   1      -6.701  77.303 116.778  0.00  0.00    -0.368 OA
BRANCH   7   8
ATOM      8  C   LIG d   1      -6.466  76.032 117.432  0.00  0.00     0.119 C 
BRANCH   8   9
ATOM      9  C   LIG d   1      -5.502  75.224 116.542  0.00  0.00     0.028 C 
ATOM     10  C   LIG d   1      -5.726  75.487 115.043  0.00  0.00     0.006 C 
ENDBRANCH   8   9
BRANCH   8  11
ATOM     11  C   LIG d   1      -7.748  75.196 117.503  0.00  0.00     0.028 C 
ATOM     12  C   LIG d   1      -9.001  75.992 117.105  0.00  0.00     0.006 C 
ENDBRANCH   8  11
ENDBRANCH   7   8
ENDBRANCH   1   7
BRANCH   6  13
ATOM     13  N   LIG d   1      -3.980  78.534 117.181  0.00  0.00    -0.311 N 
ATOM     14  C   LIG d   1      -3.187  78.043 116.229  0.00  0.00     0.210 C 
ATOM     15  C   LIG d   1      -1.946  77.304 116.739  0.00  0.00     0.109 C 
ATOM     16  O   LIG d   1      -3.378  78.178 115.011  0.00  0.00    -0.276 OA
ATOM     17  H   LIG d   1      -3.733  78.406 118.142  0.00  0.00     0.149 HD
ENDBRANCH   6  13
BRANCH   5  18
ATOM     18  N   LIG d   1      -4.179  81.544 116.701  0.00  0.00     0.381 N 
ATOM     19  H   LIG d   1      -3.351  81.001 116.558  0.00  0.00    -0.090 HD
ATOM     20  H   LIG d   1      -3.944  82.331 117.280  0.00  0.00    -0.090 HD
ATOM     21  H   LIG d   1      -4.533  81.861 115.825  0.00  0.00    -0.090 HD
ENDBRANCH   5  18
BRANCH   3  22
ATOM     22  C   LIG d   1      -8.766  81.309 118.059  0.00  0.00     0.382 C 
ATOM     23  O   LIG d   1      -9.235  82.237 117.357  0.00  0.00    -0.241 OA
ATOM     24  O   LIG d   1      -9.302  81.033 119.149  0.00  0.00    -0.241 OA
ENDBRANCH   3  22
TORSDOF 7
ENDMDL
MODEL 8
REMARK VINA RESULT:      -4.5      4.904      7.091
REMARK  7 active torsions:
REMARK  status: ('A' for Active; 'I' for Inactive)
REMARK    1  A    between atoms: C_2  and  C_3 
REMARK    2  A    between atoms: C_3  and  O_6 
REMARK    3  A    between atoms: C_3  and  C_4 
REMARK    4  A    between atoms: C_7  and  O_6 
REMARK    5  A    between atoms: C_9  and  C_10 
REMARK    6  A    between atoms: N_15  and  C_14 
REMARK    7  A    between atoms: N_20  and  C_19 
REMARK       I    between atoms: C_22  and  N_20 
ROOT
ATOM      1  C   LIG d   1      -5.795  78.310 117.163  0.00  0.00     0.161 C 
ATOM      2  C   LIG d   1      -4.541  78.519 116.564  0.00  0.00     0.016 C 
ATOM      3  C   LIG d   1      -3.963  79.798 116.397  0.00  0.00     0.038 C 
ATOM      4  C   LIG d   1      -4.535  80.950 116.957  0.00  0.00     0.028 C 
ATOM      5  C   LIG d   1      -6.047  80.852 117.129  0.00  0.00    -0.047 C 
ATOM      6  C   LIG d   1      -6.383  79.543 117.879  0.00  0.00     0.091 C 
ENDROOT
BRANCH   1   7
ATOM      7  O   LIG d   1      -5.723  77.191 118.069  0.00  0.00    -0.368 OA
BRANCH   7   8
ATOM      8  C   LIG d   1      -6.374  75.973 117.631  0.00  0.00     0.119 C 
BRANCH   8   9
ATOM      9  C   LIG d   1      -5.317  75.119 116.905  0.00  0.00     0.028 C 
ATOM     10  C   LIG d   1      -5.639  74.930 115.413  0.00  0.00     0.006 C 
ENDBRANCH   8   9
BRANCH   8  11
ATOM     11  C   LIG d   1      -7.451  76.264 116.581  0.00  0.00     0.028 C 
ATOM     12  C   LIG d   1      -8.877  76.098 117.129  0.00  0.00     0.006 C 
ENDBRANCH   8  11
ENDBRANCH   7   8
ENDBRANCH   1   7
BRANCH   6  13
ATOM     13  N   LIG d   1      -7.847  79.328 118.016  0.00  0.00    -0.311 N 
ATOM     14  C   LIG d   1      -8.569  79.815 119.024  0.00  0.00     0.210 C 
ATOM     15  C   LIG d   1     -10.058  79.459 118.984  0.00  0.00     0.109 C 
ATOM     16  O   LIG d   1      -8.123  80.535 119.930  0.00  0.00    -0.276 OA
ATOM     17  H   LIG d   1      -8.296  78.781 117.308  0.00  0.00     0.149 HD
ENDBRANCH   6  13
BRANCH   5  18
ATOM     18  N   LIG d   1      -6.493  82.061 117.848  0.00  0.00     0.381 N 
ATOM     19  H   LIG d   1      -5.983  82.154 118.703  0.00  0.00    -0.090 HD
ATOM     20  H   LIG d   1      -7.468  81.966 118.070  0.00  0.00    -0.090 HD
ATOM     21  H   LIG d   1      -6.352  82.867 117.279  0.00  0.00    -0.090 HD
ENDBRANCH   5  18
BRANCH   3  22
ATOM     22  C   LIG d   1      -2.818  79.939 115.627  0.00  0.00     0.382 C 
ATOM     23  O   LIG d   1      -2.893  79.885 114.376  0.00  0.00    -0.241 OA
ATOM     24  O   LIG d   1      -1.705  80.076 116.170  0.00  0.00    -0.241 OA
ENDBRANCH   3  22
TORSDOF 7
ENDMDL
MODEL 9
REMARK VINA RESULT:      -4.5      3.706      6.226
REMARK  7 active torsions:
REMARK  status: ('A' for Active; 'I' for Inactive)
REMARK    1  A    between atoms: C_2  and  C_3 
REMARK    2  A    between atoms: C_3  and  O_6 
REMARK    3  A    between atoms: C_3  and  C_4 
REMARK    4  A    between atoms: C_7  and  O_6 
REMARK    5  A    between atoms: C_9  and  C_10 
REMARK    6  A    between atoms: N_15  and  C_14 
REMARK    7  A    between atoms: N_20  and  C_19 
REMARK       I    between atoms: C_22  and  N_20 
ROOT
ATOM      1  C   LIG d   1      -4.888  78.123 116.555  0.00  0.00     0.161 C 
ATOM      2  C   LIG d   1      -5.808  78.997 117.158  0.00  0.00     0.016 C 
ATOM      3  C   LIG d   1      -5.550  80.371 117.373  0.00  0.00     0.038 C 
ATOM      4  C   LIG d   1      -4.407  81.000 116.859  0.00  0.00     0.028 C 
ATOM      5  C   LIG d   1      -3.222  80.056 116.687  0.00  0.00    -0.047 C 
ATOM      6  C   LIG d   1      -3.681  78.815 115.888  0.00  0.00     0.091 C 
ENDROOT
BRANCH   1   7
ATOM      7  O   LIG d   1      -5.568  77.277 115.607  0.00  0.00    -0.368 OA
BRANCH   7   8
ATOM      8  C   LIG d   1      -5.858  75.928 116.049  0.00  0.00     0.119 C 
BRANCH   8   9
ATOM      9  C   LIG d   1      -7.280  75.932 116.644  0.00  0.00     0.028 C 
ATOM     10  C   LIG d   1      -7.435  74.930 117.800  0.00  0.00     0.006 C 
ENDBRANCH   8   9
BRANCH   8  11
ATOM     11  C   LIG d   1      -4.938  75.509 117.200  0.00  0.00     0.028 C 
ATOM     12  C   LIG d   1      -3.873  74.488 116.770  0.00  0.00     0.006 C 
ENDBRANCH   8  11
ENDBRANCH   7   8
ENDBRANCH   1   7
BRANCH   6  13
ATOM     13  N   LIG d   1      -2.603  77.801 115.747  0.00  0.00    -0.311 N 
ATOM     14  C   LIG d   1      -2.347  77.157 114.609  0.00  0.00     0.210 C 
ATOM     15  C   LIG d   1      -1.206  76.137 114.686  0.00  0.00     0.109 C 
ATOM     16  O   LIG d   1      -2.935  77.356 113.536  0.00  0.00    -0.276 OA
ATOM     17  H   LIG d   1      -2.056  77.600 116.561  0.00  0.00     0.149 HD
ENDBRANCH   6  13
BRANCH   5  18
ATOM     18  N   LIG d   1      -2.145  80.809 116.016  0.00  0.00     0.381 N 
ATOM     19  H   LIG d   1      -1.604  80.191 115.445  0.00  0.00    -0.090 HD
ATOM     20  H   LIG d   1      -1.540  81.203 116.715  0.00  0.00    -0.090 HD
ATOM     21  H   LIG d   1      -2.535  81.535 115.456  0.00  0.00    -0.090 HD
ENDBRANCH   5  18
BRANCH   3  22
ATOM     22  C   LIG d   1      -6.424  81.121 118.145  0.00  0.00     0.382 C 
ATOM     23  O   LIG d   1      -7.625  81.235 117.800  0.00  0.00    -0.241 OA
ATOM     24  O   LIG d   1      -6.017  81.722 119.157  0.00  0.00    -0.241 OA
ENDBRANCH   3  22
TORSDOF 7
ENDMDL
