MODEL 1
REMARK VINA RESULT:      -4.9      0.000      0.000
REMARK  7 active torsions:
REMARK  status: ('A' for Active; 'I' for Inactive)
REMARK    1  A    between atoms: C_2  and  C_3 
REMARK    2  A    between atoms: C_3  and  O_6 
REMARK    3  A    between atoms: C_3  and  C_4 
REMARK    4  A    between atoms: C_7  and  O_6 
REMARK    5  A    between atoms: C_9  and  C_10 
REMARK    6  A    between atoms: N_15  and  C_14 
REMARK    7  A    between atoms: N_20  and  C_19 
REMARK       I    between atoms: C_22  and  N_20 
ROOT
ATOM      1  C   LIG d   1      -2.438  75.169 115.516  0.00  0.00     0.161 C 
ATOM      2  C   LIG d   1      -2.038  74.724 116.787  0.00  0.00     0.016 C 
ATOM      3  C   LIG d   1      -1.276  75.509 117.683  0.00  0.00     0.038 C 
ATOM      4  C   LIG d   1      -0.989  76.858 117.426  0.00  0.00     0.028 C 
ATOM      5  C   LIG d   1      -0.938  77.194 115.939  0.00  0.00    -0.047 C 
ATOM      6  C   LIG d   1      -2.229  76.676 115.263  0.00  0.00     0.091 C 
ENDROOT
BRANCH   1   7
ATOM      7  O   LIG d   1      -3.814  74.807 115.282  0.00  0.00    -0.368 OA
BRANCH   7   8
ATOM      8  C   LIG d   1      -4.784  75.360 116.205  0.00  0.00     0.119 C 
BRANCH   8   9
ATOM      9  C   LIG d   1      -5.451  74.180 116.937  0.00  0.00     0.028 C 
ATOM     10  C   LIG d   1      -6.810  74.561 117.547  0.00  0.00     0.006 C 
ENDBRANCH   8   9
BRANCH   8  11
ATOM     11  C   LIG d   1      -5.919  76.071 115.462  0.00  0.00     0.028 C 
ATOM     12  C   LIG d   1      -5.783  75.974 113.934  0.00  0.00     0.006 C 
ENDBRANCH   8  11
ENDBRANCH   7   8
ENDBRANCH   1   7
BRANCH   6  13
ATOM     13  N   LIG d   1      -2.223  76.889 113.793  0.00  0.00    -0.311 N 
ATOM     14  C   LIG d   1      -2.577  78.037 113.217  0.00  0.00     0.210 C 
ATOM     15  C   LIG d   1      -2.518  78.037 111.686  0.00  0.00     0.109 C 
ATOM     16  O   LIG d   1      -2.902  79.065 113.829  0.00  0.00    -0.276 OA
ATOM     17  H   LIG d   1      -1.942  76.117 113.221  0.00  0.00     0.149 HD
ENDBRANCH   6  13
BRANCH   5  18
ATOM     18  N   LIG d   1      -0.768  78.654 115.818  0.00  0.00     0.381 N 
ATOM     19  H   LIG d   1      -0.364  79.019 116.657  0.00  0.00    -0.090 HD
ATOM     20  H   LIG d   1      -1.670  79.077 115.692  0.00  0.00    -0.090 HD
ATOM     21  H   LIG d   1      -0.182  78.865 115.040  0.00  0.00    -0.090 HD
ENDBRANCH   5  18
BRANCH   3  22
ATOM     22  C   LIG d   1      -0.759  74.933 118.833  0.00  0.00     0.382 C 
ATOM     23  O   LIG d   1       0.263  74.208 118.766  0.00  0.00    -0.241 OA
ATOM     24  O   LIG d   1      -1.328  75.092 119.930  0.00  0.00    -0.241 OA
ENDBRANCH   3  22
TORSDOF 7
ENDMDL
MODEL 2
REMARK VINA RESULT:      -4.8      2.902      3.737
REMARK  7 active torsions:
REMARK  status: ('A' for Active; 'I' for Inactive)
REMARK    1  A    between atoms: C_2  and  C_3 
REMARK    2  A    between atoms: C_3  and  O_6 
REMARK    3  A    between atoms: C_3  and  C_4 
REMARK    4  A    between atoms: C_7  and  O_6 
REMARK    5  A    between atoms: C_9  and  C_10 
REMARK    6  A    between atoms: N_15  and  C_14 
REMARK    7  A    between atoms: N_20  and  C_19 
REMARK       I    between atoms: C_22  and  N_20 
ROOT
ATOM      1  C   LIG d   1      -3.157  77.755 117.163  0.00  0.00     0.161 C 
ATOM      2  C   LIG d   1      -2.312  78.673 117.810  0.00  0.00     0.016 C 
ATOM      3  C   LIG d   1      -0.926  78.769 117.552  0.00  0.00     0.038 C 
ATOM      4  C   LIG d   1      -0.313  78.052 116.514  0.00  0.00     0.028 C 
ATOM      5  C   LIG d   1      -1.027  76.747 116.175  0.00  0.00    -0.047 C 
ATOM      6  C   LIG d   1      -2.528  77.041 115.949  0.00  0.00     0.091 C 
ENDROOT
BRANCH   1   7
ATOM      7  O   LIG d   1      -4.385  78.406 116.781  0.00  0.00    -0.368 OA
BRANCH   7   8
ATOM      8  C   LIG d   1      -5.465  78.347 117.744  0.00  0.00     0.119 C 
BRANCH   8   9
ATOM      9  C   LIG d   1      -6.498  77.331 117.220  0.00  0.00     0.028 C 
ATOM     10  C   LIG d   1      -6.254  75.912 117.762  0.00  0.00     0.006 C 
ENDBRANCH   8   9
BRANCH   8  11
ATOM     11  C   LIG d   1      -6.213  79.681 117.826  0.00  0.00     0.028 C 
ATOM     12  C   LIG d   1      -7.674  79.518 118.277  0.00  0.00     0.006 C 
ENDBRANCH   8  11
ENDBRANCH   7   8
ENDBRANCH   1   7
BRANCH   6  13
ATOM     13  N   LIG d   1      -3.315  75.806 115.696  0.00  0.00    -0.311 N 
ATOM     14  C   LIG d   1      -4.181  75.682 114.692  0.00  0.00     0.210 C 
ATOM     15  C   LIG d   1      -4.902  74.332 114.623  0.00  0.00     0.109 C 
ATOM     16  O   LIG d   1      -4.398  76.550 113.833  0.00  0.00    -0.276 OA
ATOM     17  H   LIG d   1      -3.178  75.041 116.326  0.00  0.00     0.149 HD
ENDBRANCH   6  13
BRANCH   5  18
ATOM     18  N   LIG d   1      -0.365  76.172 114.990  0.00  0.00     0.381 N 
ATOM     19  H   LIG d   1       0.513  76.626 114.838  0.00  0.00    -0.090 HD
ATOM     20  H   LIG d   1      -0.945  76.330 114.185  0.00  0.00    -0.090 HD
ATOM     21  H   LIG d   1      -0.224  75.194 115.119  0.00  0.00    -0.090 HD
ENDBRANCH   5  18
BRANCH   3  22
ATOM     22  C   LIG d   1      -0.129  79.562 118.364  0.00  0.00     0.382 C 
ATOM     23  O   LIG d   1       0.311  79.107 119.447  0.00  0.00    -0.241 OA
ATOM     24  O   LIG d   1       0.119  80.741 118.049  0.00  0.00    -0.241 OA
ENDBRANCH   3  22
TORSDOF 7
ENDMDL
MODEL 3
REMARK VINA RESULT:      -4.5      4.139      6.054
REMARK  7 active torsions:
REMARK  status: ('A' for Active; 'I' for Inactive)
REMARK    1  A    between atoms: C_2  and  C_3 
REMARK    2  A    between atoms: C_3  and  O_6 
REMARK    3  A    between atoms: C_3  and  C_4 
REMARK    4  A    between atoms: C_7  and  O_6 
REMARK    5  A    between atoms: C_9  and  C_10 
REMARK    6  A    between atoms: N_15  and  C_14 
REMARK    7  A    between atoms: N_20  and  C_19 
REMARK       I    between atoms: C_22  and  N_20 
ROOT
ATOM      1  C   LIG d   1      -5.744  77.664 117.825  0.00  0.00     0.161 C 
ATOM      2  C   LIG d   1      -6.962  78.330 117.611  0.00  0.00     0.016 C 
ATOM      3  C   LIG d   1      -7.234  79.630 118.095  0.00  0.00     0.038 C 
ATOM      4  C   LIG d   1      -6.244  80.418 118.702  0.00  0.00     0.028 C 
ATOM      5  C   LIG d   1      -5.155  79.599 119.387  0.00  0.00    -0.047 C 
ATOM      6  C   LIG d   1      -4.613  78.550 118.389  0.00  0.00     0.091 C 
ENDROOT
BRANCH   1   7
ATOM      7  O   LIG d   1      -5.317  77.022 116.608  0.00  0.00    -0.368 OA
BRANCH   7   8
ATOM      8  C   LIG d   1      -5.061  75.598 116.694  0.00  0.00     0.119 C 
BRANCH   8   9
ATOM      9  C   LIG d   1      -5.600  74.952 115.403  0.00  0.00     0.028 C 
ATOM     10  C   LIG d   1      -5.852  75.984 114.291  0.00  0.00     0.006 C 
ENDBRANCH   8   9
BRANCH   8  11
ATOM     11  C   LIG d   1      -5.860  74.957 117.833  0.00  0.00     0.028 C 
ATOM     12  C   LIG d   1      -7.089  74.180 117.335  0.00  0.00     0.006 C 
ENDBRANCH   8  11
ENDBRANCH   7   8
ENDBRANCH   1   7
BRANCH   6  13
ATOM     13  N   LIG d   1      -3.602  77.652 119.004  0.00  0.00    -0.311 N 
ATOM     14  C   LIG d   1      -2.394  77.443 118.484  0.00  0.00     0.210 C 
ATOM     15  C   LIG d   1      -1.513  76.464 119.267  0.00  0.00     0.109 C 
ATOM     16  O   LIG d   1      -1.956  78.000 117.467  0.00  0.00    -0.276 OA
ATOM     17  H   LIG d   1      -3.863  77.183 119.850  0.00  0.00     0.149 HD
ENDBRANCH   6  13
BRANCH   5  18
ATOM     18  N   LIG d   1      -4.119  80.540 119.856  0.00  0.00     0.381 N 
ATOM     19  H   LIG d   1      -3.798  80.266 120.763  0.00  0.00    -0.090 HD
ATOM     20  H   LIG d   1      -4.522  81.457 119.928  0.00  0.00    -0.090 HD
ATOM     21  H   LIG d   1      -3.356  80.554 119.215  0.00  0.00    -0.090 HD
ENDBRANCH   5  18
BRANCH   3  22
ATOM     22  C   LIG d   1      -8.521  80.140 118.010  0.00  0.00     0.382 C 
ATOM     23  O   LIG d   1      -9.498  79.441 118.374  0.00  0.00    -0.241 OA
ATOM     24  O   LIG d   1      -8.721  81.273 117.533  0.00  0.00    -0.241 OA
ENDBRANCH   3  22
TORSDOF 7
ENDMDL
MODEL 4
REMARK VINA RESULT:      -4.5      1.778      4.835
REMARK  7 active torsions:
REMARK  status: ('A' for Active; 'I' for Inactive)
REMARK    1  A    between atoms: C_2  and  C_3 
REMARK    2  A    between atoms: C_3  and  O_6 
REMARK    3  A    between atoms: C_3  and  C_4 
REMARK    4  A    between atoms: C_7  and  O_6 
REMARK    5  A    between atoms: C_9  and  C_10 
REMARK    6  A    between atoms: N_15  and  C_14 
REMARK    7  A    between atoms: N_20  and  C_19 
REMARK       I    between atoms: C_22  and  N_20 
ROOT
ATOM      1  C   LIG d   1      -3.482  76.036 116.184  0.00  0.00     0.161 C 
ATOM      2  C   LIG d   1      -3.841  76.494 114.905  0.00  0.00     0.016 C 
ATOM      3  C   LIG d   1      -2.901  76.915 113.937  0.00  0.00     0.038 C 
ATOM      4  C   LIG d   1      -1.520  76.764 114.130  0.00  0.00     0.028 C 
ATOM      5  C   LIG d   1      -1.108  76.777 115.598  0.00  0.00    -0.047 C 
ATOM      6  C   LIG d   1      -1.976  75.759 116.372  0.00  0.00     0.091 C 
ENDROOT
BRANCH   1   7
ATOM      7  O   LIG d   1      -4.252  74.864 116.517  0.00  0.00    -0.368 OA
BRANCH   7   8
ATOM      8  C   LIG d   1      -5.300  75.049 117.501  0.00  0.00     0.119 C 
BRANCH   8   9
ATOM      9  C   LIG d   1      -6.623  75.247 116.736  0.00  0.00     0.028 C 
ATOM     10  C   LIG d   1      -7.673  74.182 117.095  0.00  0.00     0.006 C 
ENDBRANCH   8   9
BRANCH   8  11
ATOM     11  C   LIG d   1      -5.095  76.341 118.297  0.00  0.00     0.028 C 
ATOM     12  C   LIG d   1      -6.246  77.343 118.113  0.00  0.00     0.006 C 
ENDBRANCH   8  11
ENDBRANCH   7   8
ENDBRANCH   1   7
BRANCH   6  13
ATOM     13  N   LIG d   1      -1.695  75.768 117.831  0.00  0.00    -0.311 N 
ATOM     14  C   LIG d   1      -0.795  74.976 118.410  0.00  0.00     0.210 C 
ATOM     15  C   LIG d   1      -0.677  75.133 119.930  0.00  0.00     0.109 C 
ATOM     16  O   LIG d   1      -0.059  74.181 117.806  0.00  0.00    -0.276 OA
ATOM     17  H   LIG d   1      -2.225  76.406 118.393  0.00  0.00     0.149 HD
ENDBRANCH   6  13
BRANCH   5  18
ATOM     18  N   LIG d   1       0.334  76.472 115.659  0.00  0.00     0.381 N 
ATOM     19  H   LIG d   1       0.526  75.899 116.456  0.00  0.00    -0.090 HD
ATOM     20  H   LIG d   1       0.844  77.332 115.759  0.00  0.00    -0.090 HD
ATOM     21  H   LIG d   1       0.619  76.004 114.827  0.00  0.00    -0.090 HD
ENDBRANCH   5  18
BRANCH   3  22
ATOM     22  C   LIG d   1      -3.340  77.533 112.776  0.00  0.00     0.382 C 
ATOM     23  O   LIG d   1      -4.523  77.372 112.389  0.00  0.00    -0.241 OA
ATOM     24  O   LIG d   1      -2.556  78.213 112.087  0.00  0.00    -0.241 OA
ENDBRANCH   3  22
TORSDOF 7
ENDMDL
MODEL 5
REMARK VINA RESULT:      -4.2      2.407      5.253
REMARK  7 active torsions:
REMARK  status: ('A' for Active; 'I' for Inactive)
REMARK    1  A    between atoms: C_2  and  C_3 
REMARK    2  A    between atoms: C_3  and  O_6 
REMARK    3  A    between atoms: C_3  and  C_4 
REMARK    4  A    between atoms: C_7  and  O_6 
REMARK    5  A    between atoms: C_9  and  C_10 
REMARK    6  A    between atoms: N_15  and  C_14 
REMARK    7  A    between atoms: N_20  and  C_19 
REMARK       I    between atoms: C_22  and  N_20 
ROOT
ATOM      1  C   LIG d   1      -1.921  78.049 116.675  0.00  0.00     0.161 C 
ATOM      2  C   LIG d   1      -2.404  78.486 115.430  0.00  0.00     0.016 C 
ATOM      3  C   LIG d   1      -2.389  77.686 114.265  0.00  0.00     0.038 C 
ATOM      4  C   LIG d   1      -2.026  76.331 114.300  0.00  0.00     0.028 C 
ATOM      5  C   LIG d   1      -1.056  75.994 115.427  0.00  0.00    -0.047 C 
ATOM      6  C   LIG d   1      -1.625  76.537 116.758  0.00  0.00     0.091 C 
ENDROOT
BRANCH   1   7
ATOM      7  O   LIG d   1      -2.837  78.438 117.718  0.00  0.00    -0.368 OA
BRANCH   7   8
ATOM      8  C   LIG d   1      -4.239  78.472 117.356  0.00  0.00     0.119 C 
BRANCH   8   9
ATOM      9  C   LIG d   1      -4.930  79.496 118.277  0.00  0.00     0.028 C 
ATOM     10  C   LIG d   1      -6.388  79.765 117.866  0.00  0.00     0.006 C 
ENDBRANCH   8   9
BRANCH   8  11
ATOM     11  C   LIG d   1      -4.923  77.134 117.650  0.00  0.00     0.028 C 
ATOM     12  C   LIG d   1      -5.405  76.419 116.377  0.00  0.00     0.006 C 
ENDBRANCH   8  11
ENDBRANCH   7   8
ENDBRANCH   1   7
BRANCH   6  13
ATOM     13  N   LIG d   1      -0.697  76.323 117.900  0.00  0.00    -0.311 N 
ATOM     14  C   LIG d   1      -0.683  75.212 118.634  0.00  0.00     0.210 C 
ATOM     15  C   LIG d   1       0.338  75.205 119.776  0.00  0.00     0.109 C 
ATOM     16  O   LIG d   1      -1.397  74.219 118.428  0.00  0.00    -0.276 OA
ATOM     17  H   LIG d   1      -0.063  77.066 118.117  0.00  0.00     0.149 HD
ENDBRANCH   6  13
BRANCH   5  18
ATOM     18  N   LIG d   1      -0.871  74.530 115.432  0.00  0.00     0.381 N 
ATOM     19  H   LIG d   1      -1.762  74.076 115.414  0.00  0.00    -0.090 HD
ATOM     20  H   LIG d   1      -0.400  74.265 116.279  0.00  0.00    -0.090 HD
ATOM     21  H   LIG d   1      -0.332  74.252 114.642  0.00  0.00    -0.090 HD
ENDBRANCH   5  18
BRANCH   3  22
ATOM     22  C   LIG d   1      -2.702  78.252 113.038  0.00  0.00     0.382 C 
ATOM     23  O   LIG d   1      -2.645  77.558 111.995  0.00  0.00    -0.241 OA
ATOM     24  O   LIG d   1      -2.998  79.459 112.957  0.00  0.00    -0.241 OA
ENDBRANCH   3  22
TORSDOF 7
ENDMDL
MODEL 6
REMARK VINA RESULT:      -4.2      1.406      2.217
REMARK  7 active torsions:
REMARK  status: ('A' for Active; 'I' for Inactive)
REMARK    1  A    between atoms: C_2  and  C_3 
REMARK    2  A    between atoms: C_3  and  O_6 
REMARK    3  A    between atoms: C_3  and  C_4 
REMARK    4  A    between atoms: C_7  and  O_6 
REMARK    5  A    between atoms: C_9  and  C_10 
REMARK    6  A    between atoms: N_15  and  C_14 
REMARK    7  A    between atoms: N_20  and  C_19 
REMARK       I    between atoms: C_22  and  N_20 
ROOT
ATOM      1  C   LIG d   1      -2.873  76.903 115.677  0.00  0.00     0.161 C 
ATOM      2  C   LIG d   1      -2.866  76.374 116.978  0.00  0.00     0.016 C 
ATOM      3  C   LIG d   1      -1.969  76.798 117.986  0.00  0.00     0.038 C 
ATOM      4  C   LIG d   1      -1.113  77.894 117.803  0.00  0.00     0.028 C 
ATOM      5  C   LIG d   1      -0.733  78.129 116.345  0.00  0.00    -0.047 C 
ATOM      6  C   LIG d   1      -2.022  78.176 115.492  0.00  0.00     0.091 C 
ENDROOT
BRANCH   1   7
ATOM      7  O   LIG d   1      -4.230  77.142 115.254  0.00  0.00    -0.368 OA
BRANCH   7   8
ATOM      8  C   LIG d   1      -5.158  76.044 115.437  0.00  0.00     0.119 C 
BRANCH   8   9
ATOM      9  C   LIG d   1      -5.699  75.659 114.047  0.00  0.00     0.028 C 
ATOM     10  C   LIG d   1      -5.512  76.781 113.013  0.00  0.00     0.006 C 
ENDBRANCH   8   9
BRANCH   8  11
ATOM     11  C   LIG d   1      -6.385  76.480 116.244  0.00  0.00     0.028 C 
ATOM     12  C   LIG d   1      -6.865  75.401 117.227  0.00  0.00     0.006 C 
ENDBRANCH   8  11
ENDBRANCH   7   8
ENDBRANCH   1   7
BRANCH   6  13
ATOM     13  N   LIG d   1      -1.736  78.319 114.040  0.00  0.00    -0.311 N 
ATOM     14  C   LIG d   1      -2.241  79.294 113.286  0.00  0.00     0.210 C 
ATOM     15  C   LIG d   1      -1.835  79.245 111.810  0.00  0.00     0.109 C 
ATOM     16  O   LIG d   1      -2.961  80.212 113.706  0.00  0.00    -0.276 OA
ATOM     17  H   LIG d   1      -1.135  77.635 113.624  0.00  0.00     0.149 HD
ENDBRANCH   6  13
BRANCH   5  18
ATOM     18  N   LIG d   1       0.046  79.380 116.284  0.00  0.00     0.381 N 
ATOM     19  H   LIG d   1      -0.297  80.027 116.965  0.00  0.00    -0.090 HD
ATOM     20  H   LIG d   1      -0.068  79.790 115.373  0.00  0.00    -0.090 HD
ATOM     21  H   LIG d   1       1.010  79.190 116.452  0.00  0.00    -0.090 HD
ENDBRANCH   5  18
BRANCH   3  22
ATOM     22  C   LIG d   1      -1.895  76.097 119.179  0.00  0.00     0.382 C 
ATOM     23  O   LIG d   1      -2.900  76.025 119.928  0.00  0.00    -0.241 OA
ATOM     24  O   LIG d   1      -0.824  75.572 119.539  0.00  0.00    -0.241 OA
ENDBRANCH   3  22
TORSDOF 7
ENDMDL
MODEL 7
REMARK VINA RESULT:      -4.2      2.917      4.874
REMARK  7 active torsions:
REMARK  status: ('A' for Active; 'I' for Inactive)
REMARK    1  A    between atoms: C_2  and  C_3 
REMARK    2  A    between atoms: C_3  and  O_6 
REMARK    3  A    between atoms: C_3  and  C_4 
REMARK    4  A    between atoms: C_7  and  O_6 
REMARK    5  A    between atoms: C_9  and  C_10 
REMARK    6  A    between atoms: N_15  and  C_14 
REMARK    7  A    between atoms: N_20  and  C_19 
REMARK       I    between atoms: C_22  and  N_20 
ROOT
ATOM      1  C   LIG d   1      -3.141  78.297 116.746  0.00  0.00     0.161 C 
ATOM      2  C   LIG d   1      -3.945  77.382 116.046  0.00  0.00     0.016 C 
ATOM      3  C   LIG d   1      -3.427  76.275 115.335  0.00  0.00     0.038 C 
ATOM      4  C   LIG d   1      -2.071  75.921 115.401  0.00  0.00     0.028 C 
ATOM      5  C   LIG d   1      -1.149  77.102 115.681  0.00  0.00    -0.047 C 
ATOM      6  C   LIG d   1      -1.671  77.863 116.922  0.00  0.00     0.091 C 
ENDROOT
BRANCH   1   7
ATOM      7  O   LIG d   1      -3.734  78.588 118.027  0.00  0.00    -0.368 OA
BRANCH   7   8
ATOM      8  C   LIG d   1      -5.176  78.470 118.104  0.00  0.00     0.119 C 
BRANCH   8   9
ATOM      9  C   LIG d   1      -5.750  79.893 118.247  0.00  0.00     0.028 C 
ATOM     10  C   LIG d   1      -7.277  79.931 118.061  0.00  0.00     0.006 C 
ENDBRANCH   8   9
BRANCH   8  11
ATOM     11  C   LIG d   1      -5.608  77.729 119.373  0.00  0.00     0.028 C 
ATOM     12  C   LIG d   1      -5.233  76.239 119.349  0.00  0.00     0.006 C 
ENDBRANCH   8  11
ENDBRANCH   7   8
ENDBRANCH   1   7
BRANCH   6  13
ATOM     13  N   LIG d   1      -0.874  79.083 117.215  0.00  0.00    -0.311 N 
ATOM     14  C   LIG d   1      -0.324  79.331 118.402  0.00  0.00     0.210 C 
ATOM     15  C   LIG d   1       0.440  80.655 118.497  0.00  0.00     0.109 C 
ATOM     16  O   LIG d   1      -0.368  78.564 119.377  0.00  0.00    -0.276 OA
ATOM     17  H   LIG d   1      -0.762  79.744 116.472  0.00  0.00     0.149 HD
ENDBRANCH   6  13
BRANCH   5  18
ATOM     18  N   LIG d   1       0.215  76.570 115.861  0.00  0.00     0.381 N 
ATOM     19  H   LIG d   1       0.469  76.609 116.828  0.00  0.00    -0.090 HD
ATOM     20  H   LIG d   1       0.858  77.142 115.343  0.00  0.00    -0.090 HD
ATOM     21  H   LIG d   1       0.260  75.629 115.536  0.00  0.00    -0.090 HD
ENDBRANCH   5  18
BRANCH   3  22
ATOM     22  C   LIG d   1      -4.263  75.533 114.514  0.00  0.00     0.382 C 
ATOM     23  O   LIG d   1      -5.166  76.105 113.857  0.00  0.00    -0.241 OA
ATOM     24  O   LIG d   1      -4.153  74.294 114.456  0.00  0.00    -0.241 OA
ENDBRANCH   3  22
TORSDOF 7
ENDMDL
MODEL 8
REMARK VINA RESULT:      -4.2      1.840      4.813
REMARK  7 active torsions:
REMARK  status: ('A' for Active; 'I' for Inactive)
REMARK    1  A    between atoms: C_2  and  C_3 
REMARK    2  A    between atoms: C_3  and  O_6 
REMARK    3  A    between atoms: C_3  and  C_4 
REMARK    4  A    between atoms: C_7  and  O_6 
REMARK    5  A    between atoms: C_9  and  C_10 
REMARK    6  A    between atoms: N_15  and  C_14 
REMARK    7  A    between atoms: N_20  and  C_19 
REMARK       I    between atoms: C_22  and  N_20 
ROOT
ATOM      1  C   LIG d   1      -3.054  77.074 116.923  0.00  0.00     0.161 C 
ATOM      2  C   LIG d   1      -3.085  78.019 115.883  0.00  0.00     0.016 C 
ATOM      3  C   LIG d   1      -2.395  77.854 114.660  0.00  0.00     0.038 C 
ATOM      4  C   LIG d   1      -1.746  76.654 114.332  0.00  0.00     0.028 C 
ATOM      5  C   LIG d   1      -1.265  75.872 115.550  0.00  0.00    -0.047 C 
ATOM      6  C   LIG d   1      -2.442  75.711 116.539  0.00  0.00     0.091 C 
ENDROOT
BRANCH   1   7
ATOM      7  O   LIG d   1      -4.379  76.895 117.459  0.00  0.00    -0.368 OA
BRANCH   7   8
ATOM      8  C   LIG d   1      -5.132  75.773 116.937  0.00  0.00     0.119 C 
BRANCH   8   9
ATOM      9  C   LIG d   1      -6.095  76.320 115.866  0.00  0.00     0.028 C 
ATOM     10  C   LIG d   1      -5.714  75.865 114.447  0.00  0.00     0.006 C 
ENDBRANCH   8   9
BRANCH   8  11
ATOM     11  C   LIG d   1      -6.031  75.156 118.013  0.00  0.00     0.028 C 
ATOM     12  C   LIG d   1      -7.071  74.184 117.435  0.00  0.00     0.006 C 
ENDBRANCH   8  11
ENDBRANCH   7   8
ENDBRANCH   1   7
BRANCH   6  13
ATOM     13  N   LIG d   1      -2.036  75.030 117.796  0.00  0.00    -0.311 N 
ATOM     14  C   LIG d   1      -0.864  75.234 118.395  0.00  0.00     0.210 C 
ATOM     15  C   LIG d   1      -0.638  74.416 119.670  0.00  0.00     0.109 C 
ATOM     16  O   LIG d   1      -0.002  76.038 118.008  0.00  0.00    -0.276 OA
ATOM     17  H   LIG d   1      -2.688  74.384 118.196  0.00  0.00     0.149 HD
ENDBRANCH   6  13
BRANCH   5  18
ATOM     18  N   LIG d   1      -0.732  74.584 115.070  0.00  0.00     0.381 N 
ATOM     19  H   LIG d   1       0.247  74.671 114.882  0.00  0.00    -0.090 HD
ATOM     20  H   LIG d   1      -1.196  74.338 114.214  0.00  0.00    -0.090 HD
ATOM     21  H   LIG d   1      -0.884  73.876 115.754  0.00  0.00    -0.090 HD
ENDBRANCH   5  18
BRANCH   3  22
ATOM     22  C   LIG d   1      -2.317  78.911 113.767  0.00  0.00     0.382 C 
ATOM     23  O   LIG d   1      -1.467  79.818 113.941  0.00  0.00    -0.241 OA
ATOM     24  O   LIG d   1      -3.114  78.992 112.813  0.00  0.00    -0.241 OA
ENDBRANCH   3  22
TORSDOF 7
ENDMDL
MODEL 9
REMARK VINA RESULT:      -4.1      1.598      4.932
REMARK  7 active torsions:
REMARK  status: ('A' for Active; 'I' for Inactive)
REMARK    1  A    between atoms: C_2  and  C_3 
REMARK    2  A    between atoms: C_3  and  O_6 
REMARK    3  A    between atoms: C_3  and  C_4 
REMARK    4  A    between atoms: C_7  and  O_6 
REMARK    5  A    between atoms: C_9  and  C_10 
REMARK    6  A    between atoms: N_15  and  C_14 
REMARK    7  A    between atoms: N_20  and  C_19 
REMARK       I    between atoms: C_22  and  N_20 
ROOT
ATOM      1  C   LIG d   1      -2.876  76.821 115.629  0.00  0.00     0.161 C 
ATOM      2  C   LIG d   1      -3.024  77.469 114.392  0.00  0.00     0.016 C 
ATOM      3  C   LIG d   1      -2.237  78.574 113.994  0.00  0.00     0.038 C 
ATOM      4  C   LIG d   1      -1.139  79.013 114.749  0.00  0.00     0.028 C 
ATOM      5  C   LIG d   1      -1.269  78.712 116.238  0.00  0.00    -0.047 C 
ATOM      6  C   LIG d   1      -1.611  77.215 116.419  0.00  0.00     0.091 C 
ENDROOT
BRANCH   1   7
ATOM      7  O   LIG d   1      -2.925  75.392 115.441  0.00  0.00    -0.368 OA
BRANCH   7   8
ATOM      8  C   LIG d   1      -4.105  74.722 115.948  0.00  0.00     0.119 C 
BRANCH   8   9
ATOM      9  C   LIG d   1      -4.978  74.343 114.737  0.00  0.00     0.028 C 
ATOM     10  C   LIG d   1      -5.889  75.497 114.285  0.00  0.00     0.006 C 
ENDBRANCH   8   9
BRANCH   8  11
ATOM     11  C   LIG d   1      -4.966  75.670 116.788  0.00  0.00     0.028 C 
ATOM     12  C   LIG d   1      -5.771  74.939 117.874  0.00  0.00     0.006 C 
ENDBRANCH   8  11
ENDBRANCH   7   8
ENDBRANCH   1   7
BRANCH   6  13
ATOM     13  N   LIG d   1      -1.838  76.853 117.843  0.00  0.00    -0.311 N 
ATOM     14  C   LIG d   1      -1.170  75.886 118.469  0.00  0.00     0.210 C 
ATOM     15  C   LIG d   1      -1.574  75.663 119.930  0.00  0.00     0.109 C 
ATOM     16  O   LIG d   1      -0.260  75.213 117.963  0.00  0.00    -0.276 OA
ATOM     17  H   LIG d   1      -2.538  77.370 118.338  0.00  0.00     0.149 HD
ENDBRANCH   6  13
BRANCH   5  18
ATOM     18  N   LIG d   1       0.000  79.097 116.884  0.00  0.00     0.381 N 
ATOM     19  H   LIG d   1       0.109  78.596 117.743  0.00  0.00    -0.090 HD
ATOM     20  H   LIG d   1      -0.027  80.079 117.093  0.00  0.00    -0.090 HD
ATOM     21  H   LIG d   1       0.765  78.900 116.277  0.00  0.00    -0.090 HD
ENDBRANCH   5  18
BRANCH   3  22
ATOM     22  C   LIG d   1      -2.570  79.278 112.847  0.00  0.00     0.382 C 
ATOM     23  O   LIG d   1      -3.215  80.351 112.934  0.00  0.00    -0.241 OA
ATOM     24  O   LIG d   1      -2.273  78.831 111.723  0.00  0.00    -0.241 OA
ENDBRANCH   3  22
TORSDOF 7
ENDMDL
