MODEL 1
REMARK VINA RESULT:      -5.4      0.000      0.000
REMARK  7 active torsions:
REMARK  status: ('A' for Active; 'I' for Inactive)
REMARK    1  A    between atoms: C_2  and  C_3 
REMARK    2  A    between atoms: C_3  and  O_6 
REMARK    3  A    between atoms: C_3  and  C_4 
REMARK    4  A    between atoms: C_7  and  O_6 
REMARK    5  A    between atoms: C_9  and  C_10 
REMARK    6  A    between atoms: N_15  and  C_14 
REMARK    7  A    between atoms: N_20  and  C_19 
REMARK       I    between atoms: C_22  and  N_20 
ROOT
ATOM      1  C   LIG d   1      -3.074  77.895 115.033  0.00  0.00     0.161 C 
ATOM      2  C   LIG d   1      -3.154  78.984 114.148  0.00  0.00     0.016 C 
ATOM      3  C   LIG d   1      -2.131  79.319 113.233  0.00  0.00     0.038 C 
ATOM      4  C   LIG d   1      -1.015  78.493 113.033  0.00  0.00     0.028 C 
ATOM      5  C   LIG d   1      -0.651  77.659 114.257  0.00  0.00    -0.047 C 
ATOM      6  C   LIG d   1      -1.914  76.918 114.752  0.00  0.00     0.091 C 
ENDROOT
BRANCH   1   7
ATOM      7  O   LIG d   1      -4.331  77.189 115.053  0.00  0.00    -0.368 OA
BRANCH   7   8
ATOM      8  C   LIG d   1      -4.947  77.022 116.354  0.00  0.00     0.119 C 
BRANCH   8   9
ATOM      9  C   LIG d   1      -6.294  76.304 116.139  0.00  0.00     0.028 C 
ATOM     10  C   LIG d   1      -6.369  75.593 114.777  0.00  0.00     0.006 C 
ENDBRANCH   8   9
BRANCH   8  11
ATOM     11  C   LIG d   1      -5.304  78.374 116.979  0.00  0.00     0.028 C 
ATOM     12  C   LIG d   1      -4.674  78.574 118.367  0.00  0.00     0.006 C 
ENDBRANCH   8  11
ENDBRANCH   7   8
ENDBRANCH   1   7
BRANCH   6  13
ATOM     13  N   LIG d   1      -1.666  76.145 115.998  0.00  0.00    -0.311 N 
ATOM     14  C   LIG d   1      -1.307  74.863 116.005  0.00  0.00     0.210 C 
ATOM     15  C   LIG d   1      -1.121  74.251 117.397  0.00  0.00     0.109 C 
ATOM     16  O   LIG d   1      -1.093  74.182 114.991  0.00  0.00    -0.276 OA
ATOM     17  H   LIG d   1      -1.786  76.629 116.866  0.00  0.00     0.149 HD
ENDBRANCH   6  13
BRANCH   5  18
ATOM     18  N   LIG d   1       0.440  76.747 113.867  0.00  0.00     0.381 N 
ATOM     19  H   LIG d   1       0.236  76.336 112.978  0.00  0.00    -0.090 HD
ATOM     20  H   LIG d   1       0.506  76.010 114.547  0.00  0.00    -0.090 HD
ATOM     21  H   LIG d   1       1.301  77.245 113.821  0.00  0.00    -0.090 HD
ENDBRANCH   5  18
BRANCH   3  22
ATOM     22  C   LIG d   1      -2.199  80.514 112.533  0.00  0.00     0.382 C 
ATOM     23  O   LIG d   1      -1.220  80.895 111.846  0.00  0.00    -0.241 OA
ATOM     24  O   LIG d   1      -3.210  81.237 112.615  0.00  0.00    -0.241 OA
ENDBRANCH   3  22
TORSDOF 7
ENDMDL
MODEL 2
REMARK VINA RESULT:      -5.3      3.796      6.117
REMARK  7 active torsions:
REMARK  status: ('A' for Active; 'I' for Inactive)
REMARK    1  A    between atoms: C_2  and  C_3 
REMARK    2  A    between atoms: C_3  and  O_6 
REMARK    3  A    between atoms: C_3  and  C_4 
REMARK    4  A    between atoms: C_7  and  O_6 
REMARK    5  A    between atoms: C_9  and  C_10 
REMARK    6  A    between atoms: N_15  and  C_14 
REMARK    7  A    between atoms: N_20  and  C_19 
REMARK       I    between atoms: C_22  and  N_20 
ROOT
ATOM      1  C   LIG d   1      -6.715  77.619 117.333  0.00  0.00     0.161 C 
ATOM      2  C   LIG d   1      -6.168  76.728 116.394  0.00  0.00     0.016 C 
ATOM      3  C   LIG d   1      -4.778  76.561 116.199  0.00  0.00     0.038 C 
ATOM      4  C   LIG d   1      -3.833  77.166 117.041  0.00  0.00     0.028 C 
ATOM      5  C   LIG d   1      -4.328  78.462 117.674  0.00  0.00    -0.047 C 
ATOM      6  C   LIG d   1      -5.700  78.205 118.336  0.00  0.00     0.091 C 
ENDROOT
BRANCH   1   7
ATOM      7  O   LIG d   1      -7.802  76.982 118.034  0.00  0.00    -0.368 OA
BRANCH   7   8
ATOM      8  C   LIG d   1      -9.129  77.221 117.503  0.00  0.00     0.119 C 
BRANCH   8   9
ATOM      9  C   LIG d   1      -9.734  78.404 118.283  0.00  0.00     0.028 C 
ATOM     10  C   LIG d   1      -9.676  78.194 119.806  0.00  0.00     0.006 C 
ENDBRANCH   8   9
BRANCH   8  11
ATOM     11  C   LIG d   1     -10.060  76.036 117.777  0.00  0.00     0.028 C 
ATOM     12  C   LIG d   1      -9.368  74.677 117.582  0.00  0.00     0.006 C 
ENDBRANCH   8  11
ENDBRANCH   7   8
ENDBRANCH   1   7
BRANCH   6  13
ATOM     13  N   LIG d   1      -6.295  79.442 118.907  0.00  0.00    -0.311 N 
ATOM     14  C   LIG d   1      -6.778  80.435 118.161  0.00  0.00     0.210 C 
ATOM     15  C   LIG d   1      -7.327  81.627 118.950  0.00  0.00     0.109 C 
ATOM     16  O   LIG d   1      -6.832  80.427 116.922  0.00  0.00    -0.276 OA
ATOM     17  H   LIG d   1      -6.320  79.518 119.905  0.00  0.00     0.149 HD
ENDBRANCH   6  13
BRANCH   5  18
ATOM     18  N   LIG d   1      -3.299  78.912 118.631  0.00  0.00     0.381 N 
ATOM     19  H   LIG d   1      -3.365  78.379 119.475  0.00  0.00    -0.090 HD
ATOM     20  H   LIG d   1      -3.463  79.878 118.854  0.00  0.00    -0.090 HD
ATOM     21  H   LIG d   1      -2.392  78.805 118.232  0.00  0.00    -0.090 HD
ENDBRANCH   5  18
BRANCH   3  22
ATOM     22  C   LIG d   1      -4.319  75.811 115.127  0.00  0.00     0.382 C 
ATOM     23  O   LIG d   1      -3.559  74.832 115.325  0.00  0.00    -0.241 OA
ATOM     24  O   LIG d   1      -4.621  76.127 113.960  0.00  0.00    -0.241 OA
ENDBRANCH   3  22
TORSDOF 7
ENDMDL
MODEL 3
REMARK VINA RESULT:      -5.1      1.978      4.862
REMARK  7 active torsions:
REMARK  status: ('A' for Active; 'I' for Inactive)
REMARK    1  A    between atoms: C_2  and  C_3 
REMARK    2  A    between atoms: C_3  and  O_6 
REMARK    3  A    between atoms: C_3  and  C_4 
REMARK    4  A    between atoms: C_7  and  O_6 
REMARK    5  A    between atoms: C_9  and  C_10 
REMARK    6  A    between atoms: N_15  and  C_14 
REMARK    7  A    between atoms: N_20  and  C_19 
REMARK       I    between atoms: C_22  and  N_20 
ROOT
ATOM      1  C   LIG d   1      -2.149  76.011 115.092  0.00  0.00     0.161 C 
ATOM      2  C   LIG d   1      -2.052  75.295 116.297  0.00  0.00     0.016 C 
ATOM      3  C   LIG d   1      -1.253  75.711 117.387  0.00  0.00     0.038 C 
ATOM      4  C   LIG d   1      -0.611  76.958 117.403  0.00  0.00     0.028 C 
ATOM      5  C   LIG d   1      -0.272  77.482 116.012  0.00  0.00    -0.047 C 
ATOM      6  C   LIG d   1      -1.543  77.430 115.133  0.00  0.00     0.091 C 
ENDROOT
BRANCH   1   7
ATOM      7  O   LIG d   1      -3.524  76.066 114.666  0.00  0.00    -0.368 OA
BRANCH   7   8
ATOM      8  C   LIG d   1      -4.520  75.851 115.696  0.00  0.00     0.119 C 
BRANCH   8   9
ATOM      9  C   LIG d   1      -5.708  75.116 115.046  0.00  0.00     0.028 C 
ATOM     10  C   LIG d   1      -7.064  75.714 115.456  0.00  0.00     0.006 C 
ENDBRANCH   8   9
BRANCH   8  11
ATOM     11  C   LIG d   1      -5.093  77.178 116.203  0.00  0.00     0.028 C 
ATOM     12  C   LIG d   1      -4.568  77.560 117.596  0.00  0.00     0.006 C 
ENDBRANCH   8  11
ENDBRANCH   7   8
ENDBRANCH   1   7
BRANCH   6  13
ATOM     13  N   LIG d   1      -1.280  77.847 113.731  0.00  0.00    -0.311 N 
ATOM     14  C   LIG d   1      -1.998  78.771 113.094  0.00  0.00     0.210 C 
ATOM     15  C   LIG d   1      -1.571  79.036 111.647  0.00  0.00     0.109 C 
ATOM     16  O   LIG d   1      -2.926  79.419 113.601  0.00  0.00    -0.276 OA
ATOM     17  H   LIG d   1      -0.525  77.394 113.254  0.00  0.00     0.149 HD
ENDBRANCH   6  13
BRANCH   5  18
ATOM     18  N   LIG d   1       0.266  78.847 116.168  0.00  0.00     0.381 N 
ATOM     19  H   LIG d   1       1.249  78.804 116.352  0.00  0.00    -0.090 HD
ATOM     20  H   LIG d   1      -0.183  79.285 116.953  0.00  0.00    -0.090 HD
ATOM     21  H   LIG d   1       0.099  79.376 115.342  0.00  0.00    -0.090 HD
ENDBRANCH   5  18
BRANCH   3  22
ATOM     22  C   LIG d   1      -1.058  74.856 118.462  0.00  0.00     0.382 C 
ATOM     23  O   LIG d   1       0.086  74.726 118.960  0.00  0.00    -0.241 OA
ATOM     24  O   LIG d   1      -2.003  74.180 118.910  0.00  0.00    -0.241 OA
ENDBRANCH   3  22
TORSDOF 7
ENDMDL
MODEL 4
REMARK VINA RESULT:      -5.0      1.188      2.078
REMARK  7 active torsions:
REMARK  status: ('A' for Active; 'I' for Inactive)
REMARK    1  A    between atoms: C_2  and  C_3 
REMARK    2  A    between atoms: C_3  and  O_6 
REMARK    3  A    between atoms: C_3  and  C_4 
REMARK    4  A    between atoms: C_7  and  O_6 
REMARK    5  A    between atoms: C_9  and  C_10 
REMARK    6  A    between atoms: N_15  and  C_14 
REMARK    7  A    between atoms: N_20  and  C_19 
REMARK       I    between atoms: C_22  and  N_20 
ROOT
ATOM      1  C   LIG d   1      -2.800  77.921 115.056  0.00  0.00     0.161 C 
ATOM      2  C   LIG d   1      -2.982  79.092 114.303  0.00  0.00     0.016 C 
ATOM      3  C   LIG d   1      -2.258  79.380 113.123  0.00  0.00     0.038 C 
ATOM      4  C   LIG d   1      -1.404  78.439 112.530  0.00  0.00     0.028 C 
ATOM      5  C   LIG d   1      -0.809  77.448 113.525  0.00  0.00    -0.047 C 
ATOM      6  C   LIG d   1      -1.952  76.833 114.364  0.00  0.00     0.091 C 
ENDROOT
BRANCH   1   7
ATOM      7  O   LIG d   1      -4.080  77.386 115.446  0.00  0.00    -0.368 OA
BRANCH   7   8
ATOM      8  C   LIG d   1      -4.651  77.924 116.664  0.00  0.00     0.119 C 
BRANCH   8   9
ATOM      9  C   LIG d   1      -3.861  77.332 117.847  0.00  0.00     0.028 C 
ATOM     10  C   LIG d   1      -4.428  77.768 119.208  0.00  0.00     0.006 C 
ENDBRANCH   8   9
BRANCH   8  11
ATOM     11  C   LIG d   1      -6.094  77.448 116.860  0.00  0.00     0.028 C 
ATOM     12  C   LIG d   1      -6.509  76.371 115.846  0.00  0.00     0.006 C 
ENDBRANCH   8  11
ENDBRANCH   7   8
ENDBRANCH   1   7
BRANCH   6  13
ATOM     13  N   LIG d   1      -1.450  75.915 115.419  0.00  0.00    -0.311 N 
ATOM     14  C   LIG d   1      -0.587  76.286 116.363  0.00  0.00     0.210 C 
ATOM     15  C   LIG d   1      -0.184  75.178 117.342  0.00  0.00     0.109 C 
ATOM     16  O   LIG d   1      -0.143  77.435 116.503  0.00  0.00    -0.276 OA
ATOM     17  H   LIG d   1      -1.783  74.971 115.399  0.00  0.00     0.149 HD
ENDBRANCH   6  13
BRANCH   5  18
ATOM     18  N   LIG d   1      -0.051  76.444 112.755  0.00  0.00     0.381 N 
ATOM     19  H   LIG d   1       0.891  76.756 112.626  0.00  0.00    -0.090 HD
ATOM     20  H   LIG d   1      -0.476  76.339 111.850  0.00  0.00    -0.090 HD
ATOM     21  H   LIG d   1      -0.056  75.571 113.235  0.00  0.00    -0.090 HD
ENDBRANCH   5  18
BRANCH   3  22
ATOM     22  C   LIG d   1      -2.355  80.637 112.546  0.00  0.00     0.382 C 
ATOM     23  O   LIG d   1      -3.403  81.313 112.688  0.00  0.00    -0.241 OA
ATOM     24  O   LIG d   1      -1.426  81.086 111.849  0.00  0.00    -0.241 OA
ENDBRANCH   3  22
TORSDOF 7
ENDMDL
MODEL 5
REMARK VINA RESULT:      -4.8      2.544      5.152
REMARK  7 active torsions:
REMARK  status: ('A' for Active; 'I' for Inactive)
REMARK    1  A    between atoms: C_2  and  C_3 
REMARK    2  A    between atoms: C_3  and  O_6 
REMARK    3  A    between atoms: C_3  and  C_4 
REMARK    4  A    between atoms: C_7  and  O_6 
REMARK    5  A    between atoms: C_9  and  C_10 
REMARK    6  A    between atoms: N_15  and  C_14 
REMARK    7  A    between atoms: N_20  and  C_19 
REMARK       I    between atoms: C_22  and  N_20 
ROOT
ATOM      1  C   LIG d   1      -3.365  75.721 115.614  0.00  0.00     0.161 C 
ATOM      2  C   LIG d   1      -4.706  75.783 115.200  0.00  0.00     0.016 C 
ATOM      3  C   LIG d   1      -5.709  76.481 115.912  0.00  0.00     0.038 C 
ATOM      4  C   LIG d   1      -5.405  77.295 117.014  0.00  0.00     0.028 C 
ATOM      5  C   LIG d   1      -4.151  76.857 117.763  0.00  0.00    -0.047 C 
ATOM      6  C   LIG d   1      -2.994  76.694 116.752  0.00  0.00     0.091 C 
ENDROOT
BRANCH   1   7
ATOM      7  O   LIG d   1      -2.495  75.918 114.482  0.00  0.00    -0.368 OA
BRANCH   7   8
ATOM      8  C   LIG d   1      -2.233  77.294 114.111  0.00  0.00     0.119 C 
BRANCH   8   9
ATOM      9  C   LIG d   1      -2.796  77.506 112.692  0.00  0.00     0.028 C 
ATOM     10  C   LIG d   1      -2.158  78.711 111.982  0.00  0.00     0.006 C 
ENDBRANCH   8   9
BRANCH   8  11
ATOM     11  C   LIG d   1      -0.730  77.564 113.995  0.00  0.00     0.028 C 
ATOM     12  C   LIG d   1       0.116  76.286 114.111  0.00  0.00     0.006 C 
ENDBRANCH   8  11
ENDBRANCH   7   8
ENDBRANCH   1   7
BRANCH   6  13
ATOM     13  N   LIG d   1      -1.751  76.187 117.390  0.00  0.00    -0.311 N 
ATOM     14  C   LIG d   1      -0.761  76.979 117.799  0.00  0.00     0.210 C 
ATOM     15  C   LIG d   1       0.439  76.250 118.412  0.00  0.00     0.109 C 
ATOM     16  O   LIG d   1      -0.776  78.217 117.741  0.00  0.00    -0.276 OA
ATOM     17  H   LIG d   1      -1.669  75.196 117.505  0.00  0.00     0.149 HD
ENDBRANCH   6  13
BRANCH   5  18
ATOM     18  N   LIG d   1      -3.876  77.870 118.800  0.00  0.00     0.381 N 
ATOM     19  H   LIG d   1      -3.009  77.662 119.254  0.00  0.00    -0.090 HD
ATOM     20  H   LIG d   1      -4.607  77.838 119.488  0.00  0.00    -0.090 HD
ATOM     21  H   LIG d   1      -3.835  78.776 118.389  0.00  0.00    -0.090 HD
ENDBRANCH   5  18
BRANCH   3  22
ATOM     22  C   LIG d   1      -7.038  76.336 115.547  0.00  0.00     0.382 C 
ATOM     23  O   LIG d   1      -7.350  76.252 114.334  0.00  0.00    -0.241 OA
ATOM     24  O   LIG d   1      -7.934  76.331 116.412  0.00  0.00    -0.241 OA
ENDBRANCH   3  22
TORSDOF 7
ENDMDL
MODEL 6
REMARK VINA RESULT:      -4.8      2.738      5.261
REMARK  7 active torsions:
REMARK  status: ('A' for Active; 'I' for Inactive)
REMARK    1  A    between atoms: C_2  and  C_3 
REMARK    2  A    between atoms: C_3  and  O_6 
REMARK    3  A    between atoms: C_3  and  C_4 
REMARK    4  A    between atoms: C_7  and  O_6 
REMARK    5  A    between atoms: C_9  and  C_10 
REMARK    6  A    between atoms: N_15  and  C_14 
REMARK    7  A    between atoms: N_20  and  C_19 
REMARK       I    between atoms: C_22  and  N_20 
ROOT
ATOM      1  C   LIG d   1      -2.460  76.759 115.159  0.00  0.00     0.161 C 
ATOM      2  C   LIG d   1      -1.477  77.589 115.724  0.00  0.00     0.016 C 
ATOM      3  C   LIG d   1      -0.864  77.332 116.972  0.00  0.00     0.038 C 
ATOM      4  C   LIG d   1      -1.085  76.139 117.675  0.00  0.00     0.028 C 
ATOM      5  C   LIG d   1      -2.445  75.511 117.389  0.00  0.00    -0.047 C 
ATOM      6  C   LIG d   1      -2.633  75.394 115.859  0.00  0.00     0.091 C 
ENDROOT
BRANCH   1   7
ATOM      7  O   LIG d   1      -2.194  76.571 113.755  0.00  0.00    -0.368 OA
BRANCH   7   8
ATOM      8  C   LIG d   1      -0.935  77.099 113.269  0.00  0.00     0.119 C 
BRANCH   8   9
ATOM      9  C   LIG d   1      -1.179  77.642 111.848  0.00  0.00     0.028 C 
ATOM     10  C   LIG d   1      -2.644  78.053 111.620  0.00  0.00     0.006 C 
ENDBRANCH   8   9
BRANCH   8  11
ATOM     11  C   LIG d   1       0.108  75.990 113.106  0.00  0.00     0.028 C 
ATOM     12  C   LIG d   1       0.388  75.647 111.634  0.00  0.00     0.006 C 
ENDBRANCH   8  11
ENDBRANCH   7   8
ENDBRANCH   1   7
BRANCH   6  13
ATOM     13  N   LIG d   1      -3.973  74.867 115.491  0.00  0.00    -0.311 N 
ATOM     14  C   LIG d   1      -5.081  75.606 115.508  0.00  0.00     0.210 C 
ATOM     15  C   LIG d   1      -6.360  74.861 115.112  0.00  0.00     0.109 C 
ATOM     16  O   LIG d   1      -5.122  76.815 115.781  0.00  0.00    -0.276 OA
ATOM     17  H   LIG d   1      -4.027  73.903 115.226  0.00  0.00     0.149 HD
ENDBRANCH   6  13
BRANCH   5  18
ATOM     18  N   LIG d   1      -2.488  74.207 118.078  0.00  0.00     0.381 N 
ATOM     19  H   LIG d   1      -1.626  74.051 118.561  0.00  0.00    -0.090 HD
ATOM     20  H   LIG d   1      -2.600  73.481 117.393  0.00  0.00    -0.090 HD
ATOM     21  H   LIG d   1      -3.247  74.186 118.723  0.00  0.00    -0.090 HD
ENDBRANCH   5  18
BRANCH   3  22
ATOM     22  C   LIG d   1      -0.049  78.295 117.548  0.00  0.00     0.382 C 
ATOM     23  O   LIG d   1       0.317  78.173 118.741  0.00  0.00    -0.241 OA
ATOM     24  O   LIG d   1       0.288  79.306 116.903  0.00  0.00    -0.241 OA
ENDBRANCH   3  22
TORSDOF 7
ENDMDL
MODEL 7
REMARK VINA RESULT:      -4.7      3.131      4.243
REMARK  7 active torsions:
REMARK  status: ('A' for Active; 'I' for Inactive)
REMARK    1  A    between atoms: C_2  and  C_3 
REMARK    2  A    between atoms: C_3  and  O_6 
REMARK    3  A    between atoms: C_3  and  C_4 
REMARK    4  A    between atoms: C_7  and  O_6 
REMARK    5  A    between atoms: C_9  and  C_10 
REMARK    6  A    between atoms: N_15  and  C_14 
REMARK    7  A    between atoms: N_20  and  C_19 
REMARK       I    between atoms: C_22  and  N_20 
ROOT
ATOM      1  C   LIG d   1      -4.123  78.026 117.365  0.00  0.00     0.161 C 
ATOM      2  C   LIG d   1      -3.063  78.779 117.894  0.00  0.00     0.016 C 
ATOM      3  C   LIG d   1      -1.702  78.506 117.622  0.00  0.00     0.038 C 
ATOM      4  C   LIG d   1      -1.314  77.547 116.675  0.00  0.00     0.028 C 
ATOM      5  C   LIG d   1      -2.331  76.425 116.496  0.00  0.00    -0.047 C 
ATOM      6  C   LIG d   1      -3.723  77.046 116.242  0.00  0.00     0.091 C 
ENDROOT
BRANCH   1   7
ATOM      7  O   LIG d   1      -5.170  78.907 116.912  0.00  0.00    -0.368 OA
BRANCH   7   8
ATOM      8  C   LIG d   1      -6.124  79.333 117.915  0.00  0.00     0.119 C 
BRANCH   8   9
ATOM      9  C   LIG d   1      -6.952  78.098 118.320  0.00  0.00     0.028 C 
ATOM     10  C   LIG d   1      -7.898  77.633 117.200  0.00  0.00     0.006 C 
ENDBRANCH   8   9
BRANCH   8  11
ATOM     11  C   LIG d   1      -7.135  80.327 117.337  0.00  0.00     0.028 C 
ATOM     12  C   LIG d   1      -7.416  81.508 118.281  0.00  0.00     0.006 C 
ENDBRANCH   8  11
ENDBRANCH   7   8
ENDBRANCH   1   7
BRANCH   6  13
ATOM     13  N   LIG d   1      -4.792  76.018 116.140  0.00  0.00    -0.311 N 
ATOM     14  C   LIG d   1      -5.432  75.736 115.006  0.00  0.00     0.210 C 
ATOM     15  C   LIG d   1      -6.513  74.657 115.125  0.00  0.00     0.109 C 
ATOM     16  O   LIG d   1      -5.185  76.254 113.907  0.00  0.00    -0.276 OA
ATOM     17  H   LIG d   1      -5.034  75.527 116.978  0.00  0.00     0.149 HD
ENDBRANCH   6  13
BRANCH   5  18
ATOM     18  N   LIG d   1      -1.865  75.574 115.385  0.00  0.00     0.381 N 
ATOM     19  H   LIG d   1      -1.725  74.639 115.711  0.00  0.00    -0.090 HD
ATOM     20  H   LIG d   1      -0.985  75.927 115.052  0.00  0.00    -0.090 HD
ATOM     21  H   LIG d   1      -2.534  75.580 114.647  0.00  0.00    -0.090 HD
ENDBRANCH   5  18
BRANCH   3  22
ATOM     22  C   LIG d   1      -0.713  79.170 118.332  0.00  0.00     0.382 C 
ATOM     23  O   LIG d   1       0.003  80.026 117.758  0.00  0.00    -0.241 OA
ATOM     24  O   LIG d   1      -0.498  78.892 119.527  0.00  0.00    -0.241 OA
ENDBRANCH   3  22
TORSDOF 7
ENDMDL
MODEL 8
REMARK VINA RESULT:      -4.5      2.479      5.495
REMARK  7 active torsions:
REMARK  status: ('A' for Active; 'I' for Inactive)
REMARK    1  A    between atoms: C_2  and  C_3 
REMARK    2  A    between atoms: C_3  and  O_6 
REMARK    3  A    between atoms: C_3  and  C_4 
REMARK    4  A    between atoms: C_7  and  O_6 
REMARK    5  A    between atoms: C_9  and  C_10 
REMARK    6  A    between atoms: N_15  and  C_14 
REMARK    7  A    between atoms: N_20  and  C_19 
REMARK       I    between atoms: C_22  and  N_20 
ROOT
ATOM      1  C   LIG d   1      -1.502  78.809 114.709  0.00  0.00     0.161 C 
ATOM      2  C   LIG d   1      -2.488  77.911 115.151  0.00  0.00     0.016 C 
ATOM      3  C   LIG d   1      -3.323  77.180 114.275  0.00  0.00     0.038 C 
ATOM      4  C   LIG d   1      -3.126  77.184 112.886  0.00  0.00     0.028 C 
ATOM      5  C   LIG d   1      -2.473  78.462 112.371  0.00  0.00    -0.047 C 
ATOM      6  C   LIG d   1      -1.197  78.743 113.198  0.00  0.00     0.091 C 
ENDROOT
BRANCH   1   7
ATOM      7  O   LIG d   1      -0.294  78.622 115.472  0.00  0.00    -0.368 OA
BRANCH   7   8
ATOM      8  C   LIG d   1      -0.459  78.071 116.802  0.00  0.00     0.119 C 
BRANCH   8   9
ATOM      9  C   LIG d   1       0.043  79.127 117.806  0.00  0.00     0.028 C 
ATOM     10  C   LIG d   1      -1.088  79.681 118.689  0.00  0.00     0.006 C 
ENDBRANCH   8   9
BRANCH   8  11
ATOM     11  C   LIG d   1       0.440  76.850 117.015  0.00  0.00     0.028 C 
ATOM     12  C   LIG d   1      -0.318  75.520 116.871  0.00  0.00     0.006 C 
ENDBRANCH   8  11
ENDBRANCH   7   8
ENDBRANCH   1   7
BRANCH   6  13
ATOM     13  N   LIG d   1      -0.543  80.021 112.814  0.00  0.00    -0.311 N 
ATOM     14  C   LIG d   1      -1.217  81.108 112.444  0.00  0.00     0.210 C 
ATOM     15  C   LIG d   1      -0.348  82.312 112.070  0.00  0.00     0.109 C 
ATOM     16  O   LIG d   1      -2.454  81.199 112.420  0.00  0.00    -0.276 OA
ATOM     17  H   LIG d   1       0.458  80.045 112.835  0.00  0.00     0.149 HD
ENDBRANCH   6  13
BRANCH   5  18
ATOM     18  N   LIG d   1      -2.200  78.275 110.933  0.00  0.00     0.381 N 
ATOM     19  H   LIG d   1      -1.681  77.432 110.794  0.00  0.00    -0.090 HD
ATOM     20  H   LIG d   1      -1.645  79.046 110.605  0.00  0.00    -0.090 HD
ATOM     21  H   LIG d   1      -3.057  78.234 110.426  0.00  0.00    -0.090 HD
ENDBRANCH   5  18
BRANCH   3  22
ATOM     22  C   LIG d   1      -4.396  76.465 114.785  0.00  0.00     0.382 C 
ATOM     23  O   LIG d   1      -4.675  75.335 114.318  0.00  0.00    -0.241 OA
ATOM     24  O   LIG d   1      -5.115  76.955 115.677  0.00  0.00    -0.241 OA
ENDBRANCH   3  22
TORSDOF 7
ENDMDL
MODEL 9
REMARK VINA RESULT:      -4.5      3.525      5.331
REMARK  7 active torsions:
REMARK  status: ('A' for Active; 'I' for Inactive)
REMARK    1  A    between atoms: C_2  and  C_3 
REMARK    2  A    between atoms: C_3  and  O_6 
REMARK    3  A    between atoms: C_3  and  C_4 
REMARK    4  A    between atoms: C_7  and  O_6 
REMARK    5  A    between atoms: C_9  and  C_10 
REMARK    6  A    between atoms: N_15  and  C_14 
REMARK    7  A    between atoms: N_20  and  C_19 
REMARK       I    between atoms: C_22  and  N_20 
ROOT
ATOM      1  C   LIG d   1      -4.349  77.998 117.288  0.00  0.00     0.161 C 
ATOM      2  C   LIG d   1      -5.548  78.660 117.599  0.00  0.00     0.016 C 
ATOM      3  C   LIG d   1      -6.820  78.203 117.184  0.00  0.00     0.038 C 
ATOM      4  C   LIG d   1      -6.992  76.962 116.553  0.00  0.00     0.028 C 
ATOM      5  C   LIG d   1      -5.764  76.503 115.774  0.00  0.00    -0.047 C 
ATOM      6  C   LIG d   1      -4.526  76.584 116.695  0.00  0.00     0.091 C 
ENDROOT
BRANCH   1   7
ATOM      7  O   LIG d   1      -3.500  77.951 118.452  0.00  0.00    -0.368 OA
BRANCH   7   8
ATOM      8  C   LIG d   1      -2.386  78.878 118.466  0.00  0.00     0.119 C 
BRANCH   8   9
ATOM      9  C   LIG d   1      -1.094  78.050 118.329  0.00  0.00     0.028 C 
ATOM     10  C   LIG d   1      -0.269  78.452 117.094  0.00  0.00     0.006 C 
ENDBRANCH   8   9
BRANCH   8  11
ATOM     11  C   LIG d   1      -2.271  79.589 119.818  0.00  0.00     0.028 C 
ATOM     12  C   LIG d   1      -1.649  80.989 119.703  0.00  0.00     0.006 C 
ENDBRANCH   8  11
ENDBRANCH   7   8
ENDBRANCH   1   7
BRANCH   6  13
ATOM     13  N   LIG d   1      -3.268  76.233 115.986  0.00  0.00    -0.311 N 
ATOM     14  C   LIG d   1      -2.467  75.237 116.363  0.00  0.00     0.210 C 
ATOM     15  C   LIG d   1      -1.211  75.058 115.506  0.00  0.00     0.109 C 
ATOM     16  O   LIG d   1      -2.695  74.465 117.306  0.00  0.00    -0.276 OA
ATOM     17  H   LIG d   1      -3.022  76.789 115.191  0.00  0.00     0.149 HD
ENDBRANCH   6  13
BRANCH   5  18
ATOM     18  N   LIG d   1      -6.032  75.138 115.284  0.00  0.00     0.381 N 
ATOM     19  H   LIG d   1      -6.987  75.062 114.998  0.00  0.00    -0.090 HD
ATOM     20  H   LIG d   1      -5.874  74.487 116.032  0.00  0.00    -0.090 HD
ATOM     21  H   LIG d   1      -5.431  74.927 114.518  0.00  0.00    -0.090 HD
ENDBRANCH   5  18
BRANCH   3  22
ATOM     22  C   LIG d   1      -7.933  79.010 117.365  0.00  0.00     0.382 C 
ATOM     23  O   LIG d   1      -9.015  78.508 117.754  0.00  0.00    -0.241 OA
ATOM     24  O   LIG d   1      -7.881  80.226 117.100  0.00  0.00    -0.241 OA
ENDBRANCH   3  22
TORSDOF 7
ENDMDL
