MODEL 1
REMARK VINA RESULT:      -4.9      0.000      0.000
REMARK  7 active torsions:
REMARK  status: ('A' for Active; 'I' for Inactive)
REMARK    1  A    between atoms: C_2  and  C_3 
REMARK    2  A    between atoms: C_3  and  O_6 
REMARK    3  A    between atoms: C_3  and  C_4 
REMARK    4  A    between atoms: C_7  and  O_6 
REMARK    5  A    between atoms: C_9  and  C_10 
REMARK    6  A    between atoms: N_15  and  C_14 
REMARK    7  A    between atoms: N_20  and  C_19 
REMARK       I    between atoms: C_22  and  N_20 
ROOT
ATOM      1  C   LIG d   1      -2.875  76.872 114.852  0.00  0.00     0.161 C 
ATOM      2  C   LIG d   1      -3.045  77.841 113.849  0.00  0.00     0.016 C 
ATOM      3  C   LIG d   1      -2.181  78.948 113.683  0.00  0.00     0.038 C 
ATOM      4  C   LIG d   1      -0.994  79.079 114.419  0.00  0.00     0.028 C 
ATOM      5  C   LIG d   1      -1.047  78.396 115.781  0.00  0.00    -0.047 C 
ATOM      6  C   LIG d   1      -1.523  76.938 115.593  0.00  0.00     0.091 C 
ENDROOT
BRANCH   1   7
ATOM      7  O   LIG d   1      -3.080  75.557 114.299  0.00  0.00    -0.368 OA
BRANCH   7   8
ATOM      8  C   LIG d   1      -4.224  74.825 114.803  0.00  0.00     0.119 C 
BRANCH   8   9
ATOM      9  C   LIG d   1      -5.186  74.597 113.621  0.00  0.00     0.028 C 
ATOM     10  C   LIG d   1      -5.944  75.876 113.227  0.00  0.00     0.006 C 
ENDBRANCH   8   9
BRANCH   8  11
ATOM     11  C   LIG d   1      -5.016  75.657 115.816  0.00  0.00     0.028 C 
ATOM     12  C   LIG d   1      -5.191  74.944 117.166  0.00  0.00     0.006 C 
ENDBRANCH   8  11
ENDBRANCH   7   8
ENDBRANCH   1   7
BRANCH   6  13
ATOM     13  N   LIG d   1      -1.684  76.222 116.885  0.00  0.00    -0.311 N 
ATOM     14  C   LIG d   1      -1.316  74.956 117.073  0.00  0.00     0.210 C 
ATOM     15  C   LIG d   1      -1.589  74.405 118.476  0.00  0.00     0.109 C 
ATOM     16  O   LIG d   1      -0.762  74.247 116.220  0.00  0.00    -0.276 OA
ATOM     17  H   LIG d   1      -2.097  76.733 117.641  0.00  0.00     0.149 HD
ENDBRANCH   6  13
BRANCH   5  18
ATOM     18  N   LIG d   1       0.298  78.492 116.380  0.00  0.00     0.381 N 
ATOM     19  H   LIG d   1       0.680  77.576 116.503  0.00  0.00    -0.090 HD
ATOM     20  H   LIG d   1       0.220  78.925 117.284  0.00  0.00    -0.090 HD
ATOM     21  H   LIG d   1       0.894  79.034 115.794  0.00  0.00    -0.090 HD
ENDBRANCH   5  18
BRANCH   3  22
ATOM     22  C   LIG d   1      -2.523  79.960 112.799  0.00  0.00     0.382 C 
ATOM     23  O   LIG d   1      -3.371  80.823 113.132  0.00  0.00    -0.241 OA
ATOM     24  O   LIG d   1      -2.028  79.995 111.656  0.00  0.00    -0.241 OA
ENDBRANCH   3  22
TORSDOF 7
ENDMDL
MODEL 2
REMARK VINA RESULT:      -4.8      2.005      2.667
REMARK  7 active torsions:
REMARK  status: ('A' for Active; 'I' for Inactive)
REMARK    1  A    between atoms: C_2  and  C_3 
REMARK    2  A    between atoms: C_3  and  O_6 
REMARK    3  A    between atoms: C_3  and  C_4 
REMARK    4  A    between atoms: C_7  and  O_6 
REMARK    5  A    between atoms: C_9  and  C_10 
REMARK    6  A    between atoms: N_15  and  C_14 
REMARK    7  A    between atoms: N_20  and  C_19 
REMARK       I    between atoms: C_22  and  N_20 
ROOT
ATOM      1  C   LIG d   1      -2.451  78.230 116.412  0.00  0.00     0.161 C 
ATOM      2  C   LIG d   1      -2.857  79.031 115.331  0.00  0.00     0.016 C 
ATOM      3  C   LIG d   1      -2.430  78.817 114.000  0.00  0.00     0.038 C 
ATOM      4  C   LIG d   1      -1.683  77.688 113.634  0.00  0.00     0.028 C 
ATOM      5  C   LIG d   1      -0.831  77.131 114.769  0.00  0.00    -0.047 C 
ATOM      6  C   LIG d   1      -1.725  76.928 116.014  0.00  0.00     0.091 C 
ENDROOT
BRANCH   1   7
ATOM      7  O   LIG d   1      -3.583  77.935 117.254  0.00  0.00    -0.368 OA
BRANCH   7   8
ATOM      8  C   LIG d   1      -4.872  77.883 116.594  0.00  0.00     0.119 C 
BRANCH   8   9
ATOM      9  C   LIG d   1      -5.904  78.522 117.543  0.00  0.00     0.028 C 
ATOM     10  C   LIG d   1      -5.804  80.056 117.571  0.00  0.00     0.006 C 
ENDBRANCH   8   9
BRANCH   8  11
ATOM     11  C   LIG d   1      -5.339  76.437 116.400  0.00  0.00     0.028 C 
ATOM     12  C   LIG d   1      -5.203  75.957 114.947  0.00  0.00     0.006 C 
ENDBRANCH   8  11
ENDBRANCH   7   8
ENDBRANCH   1   7
BRANCH   6  13
ATOM     13  N   LIG d   1      -0.953  76.464 117.196  0.00  0.00    -0.311 N 
ATOM     14  C   LIG d   1      -0.793  75.179 117.510  0.00  0.00     0.210 C 
ATOM     15  C   LIG d   1       0.021  74.920 118.781  0.00  0.00     0.109 C 
ATOM     16  O   LIG d   1      -1.222  74.229 116.838  0.00  0.00    -0.276 OA
ATOM     17  H   LIG d   1      -0.545  77.168 117.779  0.00  0.00     0.149 HD
ENDBRANCH   6  13
BRANCH   5  18
ATOM     18  N   LIG d   1      -0.213  75.880 114.290  0.00  0.00     0.381 N 
ATOM     19  H   LIG d   1       0.438  76.082 113.558  0.00  0.00    -0.090 HD
ATOM     20  H   LIG d   1      -0.932  75.285 113.918  0.00  0.00    -0.090 HD
ATOM     21  H   LIG d   1       0.252  75.420 115.041  0.00  0.00    -0.090 HD
ENDBRANCH   5  18
BRANCH   3  22
ATOM     22  C   LIG d   1      -2.718  79.761 113.027  0.00  0.00     0.382 C 
ATOM     23  O   LIG d   1      -2.266  79.621 111.865  0.00  0.00    -0.241 OA
ATOM     24  O   LIG d   1      -3.387  80.774 113.306  0.00  0.00    -0.241 OA
ENDBRANCH   3  22
TORSDOF 7
ENDMDL
MODEL 3
REMARK VINA RESULT:      -4.7      3.186      4.361
REMARK  7 active torsions:
REMARK  status: ('A' for Active; 'I' for Inactive)
REMARK    1  A    between atoms: C_2  and  C_3 
REMARK    2  A    between atoms: C_3  and  O_6 
REMARK    3  A    between atoms: C_3  and  C_4 
REMARK    4  A    between atoms: C_7  and  O_6 
REMARK    5  A    between atoms: C_9  and  C_10 
REMARK    6  A    between atoms: N_15  and  C_14 
REMARK    7  A    between atoms: N_20  and  C_19 
REMARK       I    between atoms: C_22  and  N_20 
ROOT
ATOM      1  C   LIG d   1      -3.639  78.087 116.697  0.00  0.00     0.161 C 
ATOM      2  C   LIG d   1      -2.806  79.018 117.340  0.00  0.00     0.016 C 
ATOM      3  C   LIG d   1      -1.500  79.328 116.898  0.00  0.00     0.038 C 
ATOM      4  C   LIG d   1      -0.990  78.836 115.687  0.00  0.00     0.028 C 
ATOM      5  C   LIG d   1      -1.602  77.503 115.269  0.00  0.00    -0.047 C 
ATOM      6  C   LIG d   1      -3.143  77.623 115.312  0.00  0.00     0.091 C 
ENDROOT
BRANCH   1   7
ATOM      7  O   LIG d   1      -4.977  78.614 116.599  0.00  0.00    -0.368 OA
BRANCH   7   8
ATOM      8  C   LIG d   1      -5.938  78.097 117.553  0.00  0.00     0.119 C 
BRANCH   8   9
ATOM      9  C   LIG d   1      -6.767  77.016 116.834  0.00  0.00     0.028 C 
ATOM     10  C   LIG d   1      -6.465  75.601 117.357  0.00  0.00     0.006 C 
ENDBRANCH   8   9
BRANCH   8  11
ATOM     11  C   LIG d   1      -6.946  79.173 117.967  0.00  0.00     0.028 C 
ATOM     12  C   LIG d   1      -6.404  80.600 117.783  0.00  0.00     0.006 C 
ENDBRANCH   8  11
ENDBRANCH   7   8
ENDBRANCH   1   7
BRANCH   6  13
ATOM     13  N   LIG d   1      -3.821  76.338 114.998  0.00  0.00    -0.311 N 
ATOM     14  C   LIG d   1      -4.324  76.048 113.800  0.00  0.00     0.210 C 
ATOM     15  C   LIG d   1      -4.999  74.677 113.696  0.00  0.00     0.109 C 
ATOM     16  O   LIG d   1      -4.248  76.784 112.804  0.00  0.00    -0.276 OA
ATOM     17  H   LIG d   1      -3.899  75.670 115.740  0.00  0.00     0.149 HD
ENDBRANCH   6  13
BRANCH   5  18
ATOM     18  N   LIG d   1      -1.085  77.176 113.927  0.00  0.00     0.381 N 
ATOM     19  H   LIG d   1      -1.024  78.008 113.376  0.00  0.00    -0.090 HD
ATOM     20  H   LIG d   1      -1.724  76.545 113.477  0.00  0.00    -0.090 HD
ATOM     21  H   LIG d   1      -0.186  76.752 114.002  0.00  0.00    -0.090 HD
ENDBRANCH   5  18
BRANCH   3  22
ATOM     22  C   LIG d   1      -0.673  80.108 117.692  0.00  0.00     0.382 C 
ATOM     23  O   LIG d   1       0.121  80.921 117.161  0.00  0.00    -0.241 OA
ATOM     24  O   LIG d   1      -0.679  79.976 118.930  0.00  0.00    -0.241 OA
ENDBRANCH   3  22
TORSDOF 7
ENDMDL
MODEL 4
REMARK VINA RESULT:      -4.6      2.626      3.272
REMARK  7 active torsions:
REMARK  status: ('A' for Active; 'I' for Inactive)
REMARK    1  A    between atoms: C_2  and  C_3 
REMARK    2  A    between atoms: C_3  and  O_6 
REMARK    3  A    between atoms: C_3  and  C_4 
REMARK    4  A    between atoms: C_7  and  O_6 
REMARK    5  A    between atoms: C_9  and  C_10 
REMARK    6  A    between atoms: N_15  and  C_14 
REMARK    7  A    between atoms: N_20  and  C_19 
REMARK       I    between atoms: C_22  and  N_20 
ROOT
ATOM      1  C   LIG d   1      -3.113  78.491 115.838  0.00  0.00     0.161 C 
ATOM      2  C   LIG d   1      -3.249  79.420 114.793  0.00  0.00     0.016 C 
ATOM      3  C   LIG d   1      -2.572  79.306 113.557  0.00  0.00     0.038 C 
ATOM      4  C   LIG d   1      -1.825  78.166 113.224  0.00  0.00     0.028 C 
ATOM      5  C   LIG d   1      -1.252  77.441 114.437  0.00  0.00    -0.047 C 
ATOM      6  C   LIG d   1      -2.390  77.184 115.451  0.00  0.00     0.091 C 
ENDROOT
BRANCH   1   7
ATOM      7  O   LIG d   1      -4.407  78.199 116.403  0.00  0.00    -0.368 OA
BRANCH   7   8
ATOM      8  C   LIG d   1      -4.658  78.730 117.728  0.00  0.00     0.119 C 
BRANCH   8   9
ATOM      9  C   LIG d   1      -5.632  79.914 117.576  0.00  0.00     0.028 C 
ATOM     10  C   LIG d   1      -7.072  79.544 117.968  0.00  0.00     0.006 C 
ENDBRANCH   8   9
BRANCH   8  11
ATOM     11  C   LIG d   1      -3.387  79.326 118.339  0.00  0.00     0.028 C 
ATOM     12  C   LIG d   1      -3.682  80.385 119.414  0.00  0.00     0.006 C 
ENDBRANCH   8  11
ENDBRANCH   7   8
ENDBRANCH   1   7
BRANCH   6  13
ATOM     13  N   LIG d   1      -1.901  76.553 116.705  0.00  0.00    -0.311 N 
ATOM     14  C   LIG d   1      -2.448  75.463 117.239  0.00  0.00     0.210 C 
ATOM     15  C   LIG d   1      -1.803  74.988 118.545  0.00  0.00     0.109 C 
ATOM     16  O   LIG d   1      -3.387  74.825 116.739  0.00  0.00    -0.276 OA
ATOM     17  H   LIG d   1      -1.122  76.987 117.160  0.00  0.00     0.149 HD
ENDBRANCH   6  13
BRANCH   5  18
ATOM     18  N   LIG d   1      -0.616  76.200 113.955  0.00  0.00     0.381 N 
ATOM     19  H   LIG d   1      -0.698  76.142 112.960  0.00  0.00    -0.090 HD
ATOM     20  H   LIG d   1      -1.094  75.413 114.357  0.00  0.00    -0.090 HD
ATOM     21  H   LIG d   1       0.345  76.185 114.219  0.00  0.00    -0.090 HD
ENDBRANCH   5  18
BRANCH   3  22
ATOM     22  C   LIG d   1      -2.606  80.358 112.655  0.00  0.00     0.382 C 
ATOM     23  O   LIG d   1      -3.445  81.280 112.799  0.00  0.00    -0.241 OA
ATOM     24  O   LIG d   1      -1.838  80.375 111.675  0.00  0.00    -0.241 OA
ENDBRANCH   3  22
TORSDOF 7
ENDMDL
MODEL 5
REMARK VINA RESULT:      -4.5      2.953      4.034
REMARK  7 active torsions:
REMARK  status: ('A' for Active; 'I' for Inactive)
REMARK    1  A    between atoms: C_2  and  C_3 
REMARK    2  A    between atoms: C_3  and  O_6 
REMARK    3  A    between atoms: C_3  and  C_4 
REMARK    4  A    between atoms: C_7  and  O_6 
REMARK    5  A    between atoms: C_9  and  C_10 
REMARK    6  A    between atoms: N_15  and  C_14 
REMARK    7  A    between atoms: N_20  and  C_19 
REMARK       I    between atoms: C_22  and  N_20 
ROOT
ATOM      1  C   LIG d   1      -3.932  76.333 117.025  0.00  0.00     0.161 C 
ATOM      2  C   LIG d   1      -4.970  77.090 117.592  0.00  0.00     0.016 C 
ATOM      3  C   LIG d   1      -5.127  78.479 117.377  0.00  0.00     0.038 C 
ATOM      4  C   LIG d   1      -4.338  79.180 116.454  0.00  0.00     0.028 C 
ATOM      5  C   LIG d   1      -2.960  78.562 116.242  0.00  0.00    -0.047 C 
ATOM      6  C   LIG d   1      -3.127  77.059 115.926  0.00  0.00     0.091 C 
ENDROOT
BRANCH   1   7
ATOM      7  O   LIG d   1      -4.454  75.086 116.523  0.00  0.00    -0.368 OA
BRANCH   7   8
ATOM      8  C   LIG d   1      -5.618  75.182 115.666  0.00  0.00     0.119 C 
BRANCH   8   9
ATOM      9  C   LIG d   1      -6.664  74.181 116.193  0.00  0.00     0.028 C 
ATOM     10  C   LIG d   1      -7.818  74.874 116.937  0.00  0.00     0.006 C 
ENDBRANCH   8   9
BRANCH   8  11
ATOM     11  C   LIG d   1      -5.300  74.723 114.240  0.00  0.00     0.028 C 
ATOM     12  C   LIG d   1      -5.305  75.879 113.227  0.00  0.00     0.006 C 
ENDBRANCH   8  11
ENDBRANCH   7   8
ENDBRANCH   1   7
BRANCH   6  13
ATOM     13  N   LIG d   1      -1.823  76.360 115.788  0.00  0.00    -0.311 N 
ATOM     14  C   LIG d   1      -1.213  76.170 114.619  0.00  0.00     0.210 C 
ATOM     15  C   LIG d   1       0.114  75.408 114.698  0.00  0.00     0.109 C 
ATOM     16  O   LIG d   1      -1.630  76.587 113.528  0.00  0.00    -0.276 OA
ATOM     17  H   LIG d   1      -1.399  76.016 116.627  0.00  0.00     0.149 HD
ENDBRANCH   6  13
BRANCH   5  18
ATOM     18  N   LIG d   1      -2.298  79.311 115.157  0.00  0.00     0.381 N 
ATOM     19  H   LIG d   1      -2.318  78.774 114.313  0.00  0.00    -0.090 HD
ATOM     20  H   LIG d   1      -1.338  79.467 115.409  0.00  0.00    -0.090 HD
ATOM     21  H   LIG d   1      -2.757  80.184 115.015  0.00  0.00    -0.090 HD
ENDBRANCH   5  18
BRANCH   3  22
ATOM     22  C   LIG d   1      -6.057  79.188 118.122  0.00  0.00     0.382 C 
ATOM     23  O   LIG d   1      -7.033  79.733 117.552  0.00  0.00    -0.241 OA
ATOM     24  O   LIG d   1      -5.909  79.327 119.351  0.00  0.00    -0.241 OA
ENDBRANCH   3  22
TORSDOF 7
ENDMDL
MODEL 6
REMARK VINA RESULT:      -4.5      4.990      7.587
REMARK  7 active torsions:
REMARK  status: ('A' for Active; 'I' for Inactive)
REMARK    1  A    between atoms: C_2  and  C_3 
REMARK    2  A    between atoms: C_3  and  O_6 
REMARK    3  A    between atoms: C_3  and  C_4 
REMARK    4  A    between atoms: C_7  and  O_6 
REMARK    5  A    between atoms: C_9  and  C_10 
REMARK    6  A    between atoms: N_15  and  C_14 
REMARK    7  A    between atoms: N_20  and  C_19 
REMARK       I    between atoms: C_22  and  N_20 
ROOT
ATOM      1  C   LIG d   1      -6.366  78.028 117.709  0.00  0.00     0.161 C 
ATOM      2  C   LIG d   1      -6.648  76.720 117.282  0.00  0.00     0.016 C 
ATOM      3  C   LIG d   1      -7.951  76.171 117.263  0.00  0.00     0.038 C 
ATOM      4  C   LIG d   1      -9.087  76.949 117.530  0.00  0.00     0.028 C 
ATOM      5  C   LIG d   1      -8.809  78.131 118.452  0.00  0.00    -0.047 C 
ATOM      6  C   LIG d   1      -7.606  78.928 117.899  0.00  0.00     0.091 C 
ENDROOT
BRANCH   1   7
ATOM      7  O   LIG d   1      -5.431  78.647 116.804  0.00  0.00    -0.368 OA
BRANCH   7   8
ATOM      8  C   LIG d   1      -4.028  78.449 117.103  0.00  0.00     0.119 C 
BRANCH   8   9
ATOM      9  C   LIG d   1      -3.652  79.426 118.234  0.00  0.00     0.028 C 
ATOM     10  C   LIG d   1      -2.137  79.675 118.316  0.00  0.00     0.006 C 
ENDBRANCH   8   9
BRANCH   8  11
ATOM     11  C   LIG d   1      -3.144  78.843 115.916  0.00  0.00     0.028 C 
ATOM     12  C   LIG d   1      -2.890  77.676 114.949  0.00  0.00     0.006 C 
ENDBRANCH   8  11
ENDBRANCH   7   8
ENDBRANCH   1   7
BRANCH   6  13
ATOM     13  N   LIG d   1      -7.213  80.053 118.787  0.00  0.00    -0.311 N 
ATOM     14  C   LIG d   1      -7.160  81.321 118.384  0.00  0.00     0.210 C 
ATOM     15  C   LIG d   1      -6.712  82.321 119.454  0.00  0.00     0.109 C 
ATOM     16  O   LIG d   1      -7.472  81.717 117.251  0.00  0.00    -0.276 OA
ATOM     17  H   LIG d   1      -6.974  79.825 119.732  0.00  0.00     0.149 HD
ENDBRANCH   6  13
BRANCH   5  18
ATOM     18  N   LIG d   1     -10.045  78.933 118.535  0.00  0.00     0.381 N 
ATOM     19  H   LIG d   1     -10.836  78.359 118.321  0.00  0.00    -0.090 HD
ATOM     20  H   LIG d   1      -9.998  79.672 117.856  0.00  0.00    -0.090 HD
ATOM     21  H   LIG d   1     -10.141  79.317 119.449  0.00  0.00    -0.090 HD
ENDBRANCH   5  18
BRANCH   3  22
ATOM     22  C   LIG d   1      -8.123  74.818 117.013  0.00  0.00     0.382 C 
ATOM     23  O   LIG d   1      -9.125  74.218 117.471  0.00  0.00    -0.241 OA
ATOM     24  O   LIG d   1      -7.266  74.180 116.372  0.00  0.00    -0.241 OA
ENDBRANCH   3  22
TORSDOF 7
ENDMDL
MODEL 7
REMARK VINA RESULT:      -4.4      2.921      5.985
REMARK  7 active torsions:
REMARK  status: ('A' for Active; 'I' for Inactive)
REMARK    1  A    between atoms: C_2  and  C_3 
REMARK    2  A    between atoms: C_3  and  O_6 
REMARK    3  A    between atoms: C_3  and  C_4 
REMARK    4  A    between atoms: C_7  and  O_6 
REMARK    5  A    between atoms: C_9  and  C_10 
REMARK    6  A    between atoms: N_15  and  C_14 
REMARK    7  A    between atoms: N_20  and  C_19 
REMARK       I    between atoms: C_22  and  N_20 
ROOT
ATOM      1  C   LIG d   1      -4.503  76.662 116.696  0.00  0.00     0.161 C 
ATOM      2  C   LIG d   1      -5.514  75.992 117.406  0.00  0.00     0.016 C 
ATOM      3  C   LIG d   1      -6.400  75.066 116.810  0.00  0.00     0.038 C 
ATOM      4  C   LIG d   1      -6.237  74.630 115.486  0.00  0.00     0.028 C 
ATOM      5  C   LIG d   1      -5.545  75.654 114.592  0.00  0.00    -0.047 C 
ATOM      6  C   LIG d   1      -4.239  76.117 115.277  0.00  0.00     0.091 C 
ENDROOT
BRANCH   1   7
ATOM      7  O   LIG d   1      -3.285  76.665 117.467  0.00  0.00    -0.368 OA
BRANCH   7   8
ATOM      8  C   LIG d   1      -3.098  75.546 118.367  0.00  0.00     0.119 C 
BRANCH   8   9
ATOM      9  C   LIG d   1      -2.460  76.092 119.659  0.00  0.00     0.028 C 
ATOM     10  C   LIG d   1      -2.845  77.556 119.930  0.00  0.00     0.006 C 
ENDBRANCH   8   9
BRANCH   8  11
ATOM     11  C   LIG d   1      -2.084  74.543 117.807  0.00  0.00     0.028 C 
ATOM     12  C   LIG d   1      -0.864  75.224 117.167  0.00  0.00     0.006 C 
ENDBRANCH   8  11
ENDBRANCH   7   8
ENDBRANCH   1   7
BRANCH   6  13
ATOM     13  N   LIG d   1      -3.543  77.181 114.509  0.00  0.00    -0.311 N 
ATOM     14  C   LIG d   1      -2.364  77.004 113.914  0.00  0.00     0.210 C 
ATOM     15  C   LIG d   1      -1.813  78.237 113.191  0.00  0.00     0.109 C 
ATOM     16  O   LIG d   1      -1.738  75.934 113.889  0.00  0.00    -0.276 OA
ATOM     17  H   LIG d   1      -3.995  78.072 114.451  0.00  0.00     0.149 HD
ENDBRANCH   6  13
BRANCH   5  18
ATOM     18  N   LIG d   1      -5.316  75.018 113.281  0.00  0.00     0.381 N 
ATOM     19  H   LIG d   1      -5.385  75.703 112.556  0.00  0.00    -0.090 HD
ATOM     20  H   LIG d   1      -6.027  74.324 113.128  0.00  0.00    -0.090 HD
ATOM     21  H   LIG d   1      -4.416  74.592 113.261  0.00  0.00    -0.090 HD
ENDBRANCH   5  18
BRANCH   3  22
ATOM     22  C   LIG d   1      -7.488  74.595 117.529  0.00  0.00     0.382 C 
ATOM     23  O   LIG d   1      -7.436  74.542 118.781  0.00  0.00    -0.241 OA
ATOM     24  O   LIG d   1      -8.503  74.180 116.939  0.00  0.00    -0.241 OA
ENDBRANCH   3  22
TORSDOF 7
ENDMDL
MODEL 8
REMARK VINA RESULT:      -4.3      3.129      5.264
REMARK  7 active torsions:
REMARK  status: ('A' for Active; 'I' for Inactive)
REMARK    1  A    between atoms: C_2  and  C_3 
REMARK    2  A    between atoms: C_3  and  O_6 
REMARK    3  A    between atoms: C_3  and  C_4 
REMARK    4  A    between atoms: C_7  and  O_6 
REMARK    5  A    between atoms: C_9  and  C_10 
REMARK    6  A    between atoms: N_15  and  C_14 
REMARK    7  A    between atoms: N_20  and  C_19 
REMARK       I    between atoms: C_22  and  N_20 
ROOT
ATOM      1  C   LIG d   1      -4.673  75.774 117.322  0.00  0.00     0.161 C 
ATOM      2  C   LIG d   1      -5.999  75.320 117.217  0.00  0.00     0.016 C 
ATOM      3  C   LIG d   1      -7.117  76.184 117.187  0.00  0.00     0.038 C 
ATOM      4  C   LIG d   1      -6.975  77.578 117.108  0.00  0.00     0.028 C 
ATOM      5  C   LIG d   1      -5.676  78.090 117.719  0.00  0.00    -0.047 C 
ATOM      6  C   LIG d   1      -4.493  77.293 117.124  0.00  0.00     0.091 C 
ENDROOT
BRANCH   1   7
ATOM      7  O   LIG d   1      -3.834  75.046 116.404  0.00  0.00    -0.368 OA
BRANCH   7   8
ATOM      8  C   LIG d   1      -3.585  75.681 115.126  0.00  0.00     0.119 C 
BRANCH   8   9
ATOM      9  C   LIG d   1      -4.384  74.907 114.060  0.00  0.00     0.028 C 
ATOM     10  C   LIG d   1      -5.545  75.733 113.482  0.00  0.00     0.006 C 
ENDBRANCH   8   9
BRANCH   8  11
ATOM     11  C   LIG d   1      -2.117  75.544 114.712  0.00  0.00     0.028 C 
ATOM     12  C   LIG d   1      -1.197  75.184 115.889  0.00  0.00     0.006 C 
ENDBRANCH   8  11
ENDBRANCH   7   8
ENDBRANCH   1   7
BRANCH   6  13
ATOM     13  N   LIG d   1      -3.191  77.674 117.731  0.00  0.00    -0.311 N 
ATOM     14  C   LIG d   1      -2.344  78.536 117.170  0.00  0.00     0.210 C 
ATOM     15  C   LIG d   1      -1.049  78.773 117.952  0.00  0.00     0.109 C 
ATOM     16  O   LIG d   1      -2.558  79.152 116.115  0.00  0.00    -0.276 OA
ATOM     17  H   LIG d   1      -2.951  77.245 118.603  0.00  0.00     0.149 HD
ENDBRANCH   6  13
BRANCH   5  18
ATOM     18  N   LIG d   1      -5.595  79.537 117.445  0.00  0.00     0.381 N 
ATOM     19  H   LIG d   1      -6.467  79.862 117.079  0.00  0.00    -0.090 HD
ATOM     20  H   LIG d   1      -4.883  79.698 116.754  0.00  0.00    -0.090 HD
ATOM     21  H   LIG d   1      -5.373  80.031 118.282  0.00  0.00    -0.090 HD
ENDBRANCH   5  18
BRANCH   3  22
ATOM     22  C   LIG d   1      -8.396  75.656 117.277  0.00  0.00     0.382 C 
ATOM     23  O   LIG d   1      -9.392  76.380 117.034  0.00  0.00    -0.241 OA
ATOM     24  O   LIG d   1      -8.569  74.478 117.642  0.00  0.00    -0.241 OA
ENDBRANCH   3  22
TORSDOF 7
ENDMDL
MODEL 9
REMARK VINA RESULT:      -4.2      3.399      6.274
REMARK  7 active torsions:
REMARK  status: ('A' for Active; 'I' for Inactive)
REMARK    1  A    between atoms: C_2  and  C_3 
REMARK    2  A    between atoms: C_3  and  O_6 
REMARK    3  A    between atoms: C_3  and  C_4 
REMARK    4  A    between atoms: C_7  and  O_6 
REMARK    5  A    between atoms: C_9  and  C_10 
REMARK    6  A    between atoms: N_15  and  C_14 
REMARK    7  A    between atoms: N_20  and  C_19 
REMARK       I    between atoms: C_22  and  N_20 
ROOT
ATOM      1  C   LIG d   1      -5.075  76.790 116.848  0.00  0.00     0.161 C 
ATOM      2  C   LIG d   1      -6.057  76.099 117.577  0.00  0.00     0.016 C 
ATOM      3  C   LIG d   1      -6.668  74.907 117.125  0.00  0.00     0.038 C 
ATOM      4  C   LIG d   1      -6.227  74.239 115.972  0.00  0.00     0.028 C 
ATOM      5  C   LIG d   1      -5.587  75.165 114.943  0.00  0.00    -0.047 C 
ATOM      6  C   LIG d   1      -4.502  76.017 115.641  0.00  0.00     0.091 C 
ENDROOT
BRANCH   1   7
ATOM      7  O   LIG d   1      -4.012  77.203 117.729  0.00  0.00    -0.368 OA
BRANCH   7   8
ATOM      8  C   LIG d   1      -3.869  78.631 117.930  0.00  0.00     0.119 C 
BRANCH   8   9
ATOM      9  C   LIG d   1      -2.391  78.988 117.684  0.00  0.00     0.028 C 
ATOM     10  C   LIG d   1      -1.517  77.743 117.453  0.00  0.00     0.006 C 
ENDBRANCH   8   9
BRANCH   8  11
ATOM     11  C   LIG d   1      -4.144  79.019 119.385  0.00  0.00     0.028 C 
ATOM     12  C   LIG d   1      -3.634  80.426 119.734  0.00  0.00     0.006 C 
ENDBRANCH   8  11
ENDBRANCH   7   8
ENDBRANCH   1   7
BRANCH   6  13
ATOM     13  N   LIG d   1      -3.884  77.010 114.724  0.00  0.00    -0.311 N 
ATOM     14  C   LIG d   1      -2.763  76.779 114.043  0.00  0.00     0.210 C 
ATOM     15  C   LIG d   1      -2.286  77.944 113.169  0.00  0.00     0.109 C 
ATOM     16  O   LIG d   1      -2.135  75.710 114.055  0.00  0.00    -0.276 OA
ATOM     17  H   LIG d   1      -4.345  77.893 114.630  0.00  0.00     0.149 HD
ENDBRANCH   6  13
BRANCH   5  18
ATOM     18  N   LIG d   1      -5.050  74.322 113.859  0.00  0.00     0.381 N 
ATOM     19  H   LIG d   1      -4.291  73.768 114.203  0.00  0.00    -0.090 HD
ATOM     20  H   LIG d   1      -4.700  74.916 113.128  0.00  0.00    -0.090 HD
ATOM     21  H   LIG d   1      -5.767  73.729 113.501  0.00  0.00    -0.090 HD
ENDBRANCH   5  18
BRANCH   3  22
ATOM     22  C   LIG d   1      -7.760  74.393 117.807  0.00  0.00     0.382 C 
ATOM     23  O   LIG d   1      -8.836  74.180 117.198  0.00  0.00    -0.241 OA
ATOM     24  O   LIG d   1      -7.696  74.180 119.033  0.00  0.00    -0.241 OA
ENDBRANCH   3  22
TORSDOF 7
ENDMDL
