MODEL 1
REMARK VINA RESULT:      -5.1      0.000      0.000
REMARK  7 active torsions:
REMARK  status: ('A' for Active; 'I' for Inactive)
REMARK    1  A    between atoms: C_2  and  C_3 
REMARK    2  A    between atoms: C_3  and  O_6 
REMARK    3  A    between atoms: C_3  and  C_4 
REMARK    4  A    between atoms: C_7  and  O_6 
REMARK    5  A    between atoms: C_9  and  C_10 
REMARK    6  A    between atoms: N_15  and  C_14 
REMARK    7  A    between atoms: N_20  and  C_19 
REMARK       I    between atoms: C_22  and  N_20 
ROOT
ATOM      1  C   LIG d   1      -3.238  77.026 116.659  0.00  0.00     0.161 C 
ATOM      2  C   LIG d   1      -4.009  78.138 117.035  0.00  0.00     0.016 C 
ATOM      3  C   LIG d   1      -3.680  79.467 116.683  0.00  0.00     0.038 C 
ATOM      4  C   LIG d   1      -2.633  79.763 115.797  0.00  0.00     0.028 C 
ATOM      5  C   LIG d   1      -1.525  78.715 115.798  0.00  0.00    -0.047 C 
ATOM      6  C   LIG d   1      -2.155  77.318 115.599  0.00  0.00     0.091 C 
ENDROOT
BRANCH   1   7
ATOM      7  O   LIG d   1      -4.101  75.961 116.213  0.00  0.00    -0.368 OA
BRANCH   7   8
ATOM      8  C   LIG d   1      -5.353  76.368 115.608  0.00  0.00     0.119 C 
BRANCH   8   9
ATOM      9  C   LIG d   1      -6.487  75.643 116.359  0.00  0.00     0.028 C 
ATOM     10  C   LIG d   1      -7.312  76.597 117.238  0.00  0.00     0.006 C 
ENDBRANCH   8   9
BRANCH   8  11
ATOM     11  C   LIG d   1      -5.454  75.885 114.158  0.00  0.00     0.028 C 
ATOM     12  C   LIG d   1      -5.197  74.377 114.012  0.00  0.00     0.006 C 
ENDBRANCH   8  11
ENDBRANCH   7   8
ENDBRANCH   1   7
BRANCH   6  13
ATOM     13  N   LIG d   1      -1.148  76.227 115.673  0.00  0.00    -0.311 N 
ATOM     14  C   LIG d   1      -0.554  75.704 114.601  0.00  0.00     0.210 C 
ATOM     15  C   LIG d   1       0.437  74.575 114.898  0.00  0.00     0.109 C 
ATOM     16  O   LIG d   1      -0.731  76.091 113.436  0.00  0.00    -0.276 OA
ATOM     17  H   LIG d   1      -0.922  75.875 116.582  0.00  0.00     0.149 HD
ENDBRANCH   6  13
BRANCH   5  18
ATOM     18  N   LIG d   1      -0.570  79.076 114.734  0.00  0.00     0.381 N 
ATOM     19  H   LIG d   1       0.359  79.097 115.105  0.00  0.00    -0.090 HD
ATOM     20  H   LIG d   1      -0.794  79.994 114.393  0.00  0.00    -0.090 HD
ATOM     21  H   LIG d   1      -0.622  78.415 113.990  0.00  0.00    -0.090 HD
ENDBRANCH   5  18
BRANCH   3  22
ATOM     22  C   LIG d   1      -4.378  80.522 117.252  0.00  0.00     0.382 C 
ATOM     23  O   LIG d   1      -5.234  80.299 118.142  0.00  0.00    -0.241 OA
ATOM     24  O   LIG d   1      -4.196  81.688 116.855  0.00  0.00    -0.241 OA
ENDBRANCH   3  22
TORSDOF 7
ENDMDL
MODEL 2
REMARK VINA RESULT:      -5.1      2.726      4.463
REMARK  7 active torsions:
REMARK  status: ('A' for Active; 'I' for Inactive)
REMARK    1  A    between atoms: C_2  and  C_3 
REMARK    2  A    between atoms: C_3  and  O_6 
REMARK    3  A    between atoms: C_3  and  C_4 
REMARK    4  A    between atoms: C_7  and  O_6 
REMARK    5  A    between atoms: C_9  and  C_10 
REMARK    6  A    between atoms: N_15  and  C_14 
REMARK    7  A    between atoms: N_20  and  C_19 
REMARK       I    between atoms: C_22  and  N_20 
ROOT
ATOM      1  C   LIG d   1      -2.524  79.928 115.309  0.00  0.00     0.161 C 
ATOM      2  C   LIG d   1      -2.350  81.133 114.609  0.00  0.00     0.016 C 
ATOM      3  C   LIG d   1      -1.829  81.202 113.296  0.00  0.00     0.038 C 
ATOM      4  C   LIG d   1      -1.585  80.050 112.534  0.00  0.00     0.028 C 
ATOM      5  C   LIG d   1      -1.270  78.820 113.378  0.00  0.00    -0.047 C 
ATOM      6  C   LIG d   1      -2.368  78.654 114.453  0.00  0.00     0.091 C 
ENDROOT
BRANCH   1   7
ATOM      7  O   LIG d   1      -3.802  79.930 115.976  0.00  0.00    -0.368 OA
BRANCH   7   8
ATOM      8  C   LIG d   1      -3.765  79.869 117.423  0.00  0.00     0.119 C 
BRANCH   8   9
ATOM      9  C   LIG d   1      -5.028  79.117 117.887  0.00  0.00     0.028 C 
ATOM     10  C   LIG d   1      -5.330  77.885 117.017  0.00  0.00     0.006 C 
ENDBRANCH   8   9
BRANCH   8  11
ATOM     11  C   LIG d   1      -3.875  81.266 118.043  0.00  0.00     0.028 C 
ATOM     12  C   LIG d   1      -2.525  81.804 118.543  0.00  0.00     0.006 C 
ENDBRANCH   8  11
ENDBRANCH   7   8
ENDBRANCH   1   7
BRANCH   6  13
ATOM     13  N   LIG d   1      -2.091  77.523 115.376  0.00  0.00    -0.311 N 
ATOM     14  C   LIG d   1      -2.521  76.280 115.162  0.00  0.00     0.210 C 
ATOM     15  C   LIG d   1      -2.142  75.269 116.249  0.00  0.00     0.109 C 
ATOM     16  O   LIG d   1      -3.152  75.913 114.160  0.00  0.00    -0.276 OA
ATOM     17  H   LIG d   1      -1.558  77.725 116.199  0.00  0.00     0.149 HD
ENDBRANCH   6  13
BRANCH   5  18
ATOM     18  N   LIG d   1      -1.174  77.665 112.466  0.00  0.00     0.381 N 
ATOM     19  H   LIG d   1      -1.633  77.877 111.602  0.00  0.00    -0.090 HD
ATOM     20  H   LIG d   1      -1.639  76.880 112.885  0.00  0.00    -0.090 HD
ATOM     21  H   LIG d   1      -0.218  77.443 112.296  0.00  0.00    -0.090 HD
ENDBRANCH   5  18
BRANCH   3  22
ATOM     22  C   LIG d   1      -1.508  82.435 112.748  0.00  0.00     0.382 C 
ATOM     23  O   LIG d   1      -1.374  83.436 113.492  0.00  0.00    -0.241 OA
ATOM     24  O   LIG d   1      -1.395  82.568 111.515  0.00  0.00    -0.241 OA
ENDBRANCH   3  22
TORSDOF 7
ENDMDL
MODEL 3
REMARK VINA RESULT:      -5.0      3.036      4.733
REMARK  7 active torsions:
REMARK  status: ('A' for Active; 'I' for Inactive)
REMARK    1  A    between atoms: C_2  and  C_3 
REMARK    2  A    between atoms: C_3  and  O_6 
REMARK    3  A    between atoms: C_3  and  C_4 
REMARK    4  A    between atoms: C_7  and  O_6 
REMARK    5  A    between atoms: C_9  and  C_10 
REMARK    6  A    between atoms: N_15  and  C_14 
REMARK    7  A    between atoms: N_20  and  C_19 
REMARK       I    between atoms: C_22  and  N_20 
ROOT
ATOM      1  C   LIG d   1      -0.809  80.611 115.349  0.00  0.00     0.161 C 
ATOM      2  C   LIG d   1      -0.846  81.994 115.105  0.00  0.00     0.016 C 
ATOM      3  C   LIG d   1      -0.947  82.554 113.811  0.00  0.00     0.038 C 
ATOM      4  C   LIG d   1      -1.172  81.761 112.676  0.00  0.00     0.028 C 
ATOM      5  C   LIG d   1      -0.637  80.340 112.814  0.00  0.00    -0.047 C 
ATOM      6  C   LIG d   1      -1.165  79.731 114.133  0.00  0.00     0.091 C 
ENDROOT
BRANCH   1   7
ATOM      7  O   LIG d   1      -1.660  80.290 116.467  0.00  0.00    -0.368 OA
BRANCH   7   8
ATOM      8  C   LIG d   1      -3.085  80.287 116.203  0.00  0.00     0.119 C 
BRANCH   8   9
ATOM      9  C   LIG d   1      -3.736  81.297 117.168  0.00  0.00     0.028 C 
ATOM     10  C   LIG d   1      -2.798  81.696 118.320  0.00  0.00     0.006 C 
ENDBRANCH   8   9
BRANCH   8  11
ATOM     11  C   LIG d   1      -3.713  78.934 116.548  0.00  0.00     0.028 C 
ATOM     12  C   LIG d   1      -2.772  78.031 117.362  0.00  0.00     0.006 C 
ENDBRANCH   8  11
ENDBRANCH   7   8
ENDBRANCH   1   7
BRANCH   6  13
ATOM     13  N   LIG d   1      -0.621  78.371 114.387  0.00  0.00    -0.311 N 
ATOM     14  C   LIG d   1      -1.245  77.252 114.023  0.00  0.00     0.210 C 
ATOM     15  C   LIG d   1      -0.520  75.956 114.400  0.00  0.00     0.109 C 
ATOM     16  O   LIG d   1      -2.314  77.210 113.396  0.00  0.00    -0.276 OA
ATOM     17  H   LIG d   1       0.257  78.313 114.864  0.00  0.00     0.149 HD
ENDBRANCH   6  13
BRANCH   5  18
ATOM     18  N   LIG d   1      -1.060  79.586 111.619  0.00  0.00     0.381 N 
ATOM     19  H   LIG d   1      -0.311  79.002 111.304  0.00  0.00    -0.090 HD
ATOM     20  H   LIG d   1      -1.282  80.237 110.886  0.00  0.00    -0.090 HD
ATOM     21  H   LIG d   1      -1.858  79.029 111.832  0.00  0.00    -0.090 HD
ENDBRANCH   5  18
BRANCH   3  22
ATOM     22  C   LIG d   1      -0.782  83.920 113.638  0.00  0.00     0.382 C 
ATOM     23  O   LIG d   1      -0.653  84.667 114.637  0.00  0.00    -0.241 OA
ATOM     24  O   LIG d   1      -0.807  84.420 112.497  0.00  0.00    -0.241 OA
ENDBRANCH   3  22
TORSDOF 7
ENDMDL
MODEL 4
REMARK VINA RESULT:      -5.0      2.081      3.163
REMARK  7 active torsions:
REMARK  status: ('A' for Active; 'I' for Inactive)
REMARK    1  A    between atoms: C_2  and  C_3 
REMARK    2  A    between atoms: C_3  and  O_6 
REMARK    3  A    between atoms: C_3  and  C_4 
REMARK    4  A    between atoms: C_7  and  O_6 
REMARK    5  A    between atoms: C_9  and  C_10 
REMARK    6  A    between atoms: N_15  and  C_14 
REMARK    7  A    between atoms: N_20  and  C_19 
REMARK       I    between atoms: C_22  and  N_20 
ROOT
ATOM      1  C   LIG d   1      -1.516  79.526 115.904  0.00  0.00     0.161 C 
ATOM      2  C   LIG d   1      -2.018  80.837 115.872  0.00  0.00     0.016 C 
ATOM      3  C   LIG d   1      -2.191  81.575 114.678  0.00  0.00     0.038 C 
ATOM      4  C   LIG d   1      -2.015  80.993 113.414  0.00  0.00     0.028 C 
ATOM      5  C   LIG d   1      -1.026  79.832 113.415  0.00  0.00    -0.047 C 
ATOM      6  C   LIG d   1      -1.423  78.835 114.527  0.00  0.00     0.091 C 
ENDROOT
BRANCH   1   7
ATOM      7  O   LIG d   1      -2.296  78.726 116.814  0.00  0.00    -0.368 OA
BRANCH   7   8
ATOM      8  C   LIG d   1      -3.724  78.693 116.570  0.00  0.00     0.119 C 
BRANCH   8   9
ATOM      9  C   LIG d   1      -4.428  79.077 117.886  0.00  0.00     0.028 C 
ATOM     10  C   LIG d   1      -5.040  80.487 117.835  0.00  0.00     0.006 C 
ENDBRANCH   8   9
BRANCH   8  11
ATOM     11  C   LIG d   1      -4.203  77.274 116.253  0.00  0.00     0.028 C 
ATOM     12  C   LIG d   1      -5.687  77.057 116.588  0.00  0.00     0.006 C 
ENDBRANCH   8  11
ENDBRANCH   7   8
ENDBRANCH   1   7
BRANCH   6  13
ATOM     13  N   LIG d   1      -0.459  77.711 114.652  0.00  0.00    -0.311 N 
ATOM     14  C   LIG d   1      -0.778  76.441 114.411  0.00  0.00     0.210 C 
ATOM     15  C   LIG d   1       0.360  75.437 114.618  0.00  0.00     0.109 C 
ATOM     16  O   LIG d   1      -1.888  76.053 114.014  0.00  0.00    -0.276 OA
ATOM     17  H   LIG d   1       0.473  77.939 114.939  0.00  0.00     0.149 HD
ENDBRANCH   6  13
BRANCH   5  18
ATOM     18  N   LIG d   1      -1.043  79.232 112.067  0.00  0.00     0.381 N 
ATOM     19  H   LIG d   1      -1.707  78.485 112.037  0.00  0.00    -0.090 HD
ATOM     20  H   LIG d   1      -0.133  78.853 111.869  0.00  0.00    -0.090 HD
ATOM     21  H   LIG d   1      -1.278  79.923 111.389  0.00  0.00    -0.090 HD
ENDBRANCH   5  18
BRANCH   3  22
ATOM     22  C   LIG d   1      -2.506  82.924 114.744  0.00  0.00     0.382 C 
ATOM     23  O   LIG d   1      -3.628  83.285 115.174  0.00  0.00    -0.241 OA
ATOM     24  O   LIG d   1      -1.700  83.782 114.336  0.00  0.00    -0.241 OA
ENDBRANCH   3  22
TORSDOF 7
ENDMDL
MODEL 5
REMARK VINA RESULT:      -4.9      2.190      4.538
REMARK  7 active torsions:
REMARK  status: ('A' for Active; 'I' for Inactive)
REMARK    1  A    between atoms: C_2  and  C_3 
REMARK    2  A    between atoms: C_3  and  O_6 
REMARK    3  A    between atoms: C_3  and  C_4 
REMARK    4  A    between atoms: C_7  and  O_6 
REMARK    5  A    between atoms: C_9  and  C_10 
REMARK    6  A    between atoms: N_15  and  C_14 
REMARK    7  A    between atoms: N_20  and  C_19 
REMARK       I    between atoms: C_22  and  N_20 
ROOT
ATOM      1  C   LIG d   1      -2.636  77.161 114.785  0.00  0.00     0.161 C 
ATOM      2  C   LIG d   1      -2.198  76.077 115.564  0.00  0.00     0.016 C 
ATOM      3  C   LIG d   1      -1.102  76.152 116.454  0.00  0.00     0.038 C 
ATOM      4  C   LIG d   1      -0.460  77.366 116.740  0.00  0.00     0.028 C 
ATOM      5  C   LIG d   1      -0.543  78.378 115.601  0.00  0.00    -0.047 C 
ATOM      6  C   LIG d   1      -2.019  78.523 115.166  0.00  0.00     0.091 C 
ENDROOT
BRANCH   1   7
ATOM      7  O   LIG d   1      -4.075  77.236 114.819  0.00  0.00    -0.368 OA
BRANCH   7   8
ATOM      8  C   LIG d   1      -4.743  76.279 115.677  0.00  0.00     0.119 C 
BRANCH   8   9
ATOM      9  C   LIG d   1      -5.755  75.506 114.809  0.00  0.00     0.028 C 
ATOM     10  C   LIG d   1      -5.141  74.250 114.169  0.00  0.00     0.006 C 
ENDBRANCH   8   9
BRANCH   8  11
ATOM     11  C   LIG d   1      -5.582  76.981 116.749  0.00  0.00     0.028 C 
ATOM     12  C   LIG d   1      -6.818  76.169 117.166  0.00  0.00     0.006 C 
ENDBRANCH   8  11
ENDBRANCH   7   8
ENDBRANCH   1   7
BRANCH   6  13
ATOM     13  N   LIG d   1      -2.179  79.431 114.000  0.00  0.00    -0.311 N 
ATOM     14  C   LIG d   1      -2.524  80.712 114.111  0.00  0.00     0.210 C 
ATOM     15  C   LIG d   1      -2.654  81.464 112.783  0.00  0.00     0.109 C 
ATOM     16  O   LIG d   1      -2.703  81.306 115.185  0.00  0.00    -0.276 OA
ATOM     17  H   LIG d   1      -2.022  79.039 113.092  0.00  0.00     0.149 HD
ENDBRANCH   6  13
BRANCH   5  18
ATOM     18  N   LIG d   1       0.044  79.642 116.084  0.00  0.00     0.381 N 
ATOM     19  H   LIG d   1      -0.568  80.403 115.869  0.00  0.00    -0.090 HD
ATOM     20  H   LIG d   1       0.918  79.796 115.612  0.00  0.00    -0.090 HD
ATOM     21  H   LIG d   1       0.194  79.594 117.068  0.00  0.00    -0.090 HD
ENDBRANCH   5  18
BRANCH   3  22
ATOM     22  C   LIG d   1      -0.611  74.994 117.039  0.00  0.00     0.382 C 
ATOM     23  O   LIG d   1       0.055  74.180 116.356  0.00  0.00    -0.241 OA
ATOM     24  O   LIG d   1      -0.864  74.733 118.231  0.00  0.00    -0.241 OA
ENDBRANCH   3  22
TORSDOF 7
ENDMDL
MODEL 6
REMARK VINA RESULT:      -4.8      2.642      6.281
REMARK  7 active torsions:
REMARK  status: ('A' for Active; 'I' for Inactive)
REMARK    1  A    between atoms: C_2  and  C_3 
REMARK    2  A    between atoms: C_3  and  O_6 
REMARK    3  A    between atoms: C_3  and  C_4 
REMARK    4  A    between atoms: C_7  and  O_6 
REMARK    5  A    between atoms: C_9  and  C_10 
REMARK    6  A    between atoms: N_15  and  C_14 
REMARK    7  A    between atoms: N_20  and  C_19 
REMARK       I    between atoms: C_22  and  N_20 
ROOT
ATOM      1  C   LIG d   1      -3.464  79.118 116.281  0.00  0.00     0.161 C 
ATOM      2  C   LIG d   1      -3.224  78.042 115.411  0.00  0.00     0.016 C 
ATOM      3  C   LIG d   1      -3.983  76.849 115.420  0.00  0.00     0.038 C 
ATOM      4  C   LIG d   1      -5.139  76.712 116.203  0.00  0.00     0.028 C 
ATOM      5  C   LIG d   1      -5.124  77.574 117.461  0.00  0.00    -0.047 C 
ATOM      6  C   LIG d   1      -4.790  79.031 117.066  0.00  0.00     0.091 C 
ENDROOT
BRANCH   1   7
ATOM      7  O   LIG d   1      -3.394  80.360 115.553  0.00  0.00    -0.368 OA
BRANCH   7   8
ATOM      8  C   LIG d   1      -2.111  81.033 115.565  0.00  0.00     0.119 C 
BRANCH   8   9
ATOM      9  C   LIG d   1      -2.178  82.138 116.637  0.00  0.00     0.028 C 
ATOM     10  C   LIG d   1      -1.449  81.744 117.932  0.00  0.00     0.006 C 
ENDBRANCH   8   9
BRANCH   8  11
ATOM     11  C   LIG d   1      -1.854  81.765 114.244  0.00  0.00     0.028 C 
ATOM     12  C   LIG d   1      -2.508  81.069 113.040  0.00  0.00     0.006 C 
ENDBRANCH   8  11
ENDBRANCH   7   8
ENDBRANCH   1   7
BRANCH   6  13
ATOM     13  N   LIG d   1      -4.672  79.925 118.248  0.00  0.00    -0.311 N 
ATOM     14  C   LIG d   1      -5.297  81.097 118.345  0.00  0.00     0.210 C 
ATOM     15  C   LIG d   1      -5.023  81.871 119.639  0.00  0.00     0.109 C 
ATOM     16  O   LIG d   1      -6.079  81.555 117.497  0.00  0.00    -0.276 OA
ATOM     17  H   LIG d   1      -4.082  79.617 118.996  0.00  0.00     0.149 HD
ENDBRANCH   6  13
BRANCH   5  18
ATOM     18  N   LIG d   1      -6.442  77.439 118.110  0.00  0.00     0.381 N 
ATOM     19  H   LIG d   1      -6.327  77.397 119.103  0.00  0.00    -0.090 HD
ATOM     20  H   LIG d   1      -6.867  76.581 117.805  0.00  0.00    -0.090 HD
ATOM     21  H   LIG d   1      -7.022  78.211 117.867  0.00  0.00    -0.090 HD
ENDBRANCH   5  18
BRANCH   3  22
ATOM     22  C   LIG d   1      -3.565  75.762 114.667  0.00  0.00     0.382 C 
ATOM     23  O   LIG d   1      -2.365  75.397 114.706  0.00  0.00    -0.241 OA
ATOM     24  O   LIG d   1      -4.363  75.170 113.916  0.00  0.00    -0.241 OA
ENDBRANCH   3  22
TORSDOF 7
ENDMDL
MODEL 7
REMARK VINA RESULT:      -4.7      2.329      3.589
REMARK  7 active torsions:
REMARK  status: ('A' for Active; 'I' for Inactive)
REMARK    1  A    between atoms: C_2  and  C_3 
REMARK    2  A    between atoms: C_3  and  O_6 
REMARK    3  A    between atoms: C_3  and  C_4 
REMARK    4  A    between atoms: C_7  and  O_6 
REMARK    5  A    between atoms: C_9  and  C_10 
REMARK    6  A    between atoms: N_15  and  C_14 
REMARK    7  A    between atoms: N_20  and  C_19 
REMARK       I    between atoms: C_22  and  N_20 
ROOT
ATOM      1  C   LIG d   1      -2.898  79.065 115.773  0.00  0.00     0.161 C 
ATOM      2  C   LIG d   1      -3.547  79.113 117.018  0.00  0.00     0.016 C 
ATOM      3  C   LIG d   1      -3.868  80.319 117.683  0.00  0.00     0.038 C 
ATOM      4  C   LIG d   1      -3.696  81.570 117.073  0.00  0.00     0.028 C 
ATOM      5  C   LIG d   1      -2.584  81.588 116.030  0.00  0.00    -0.047 C 
ATOM      6  C   LIG d   1      -2.804  80.421 115.041  0.00  0.00     0.091 C 
ENDROOT
BRANCH   1   7
ATOM      7  O   LIG d   1      -3.532  78.084 114.929  0.00  0.00    -0.368 OA
BRANCH   7   8
ATOM      8  C   LIG d   1      -3.914  76.842 115.572  0.00  0.00     0.119 C 
BRANCH   8   9
ATOM      9  C   LIG d   1      -2.872  75.778 115.178  0.00  0.00     0.028 C 
ATOM     10  C   LIG d   1      -1.863  75.500 116.305  0.00  0.00     0.006 C 
ENDBRANCH   8   9
BRANCH   8  11
ATOM     11  C   LIG d   1      -5.249  76.323 115.030  0.00  0.00     0.028 C 
ATOM     12  C   LIG d   1      -5.094  75.047 114.187  0.00  0.00     0.006 C 
ENDBRANCH   8  11
ENDBRANCH   7   8
ENDBRANCH   1   7
BRANCH   6  13
ATOM     13  N   LIG d   1      -1.713  80.314 114.038  0.00  0.00    -0.311 N 
ATOM     14  C   LIG d   1      -1.776  80.861 112.825  0.00  0.00     0.210 C 
ATOM     15  C   LIG d   1      -0.551  80.614 111.939  0.00  0.00     0.109 C 
ATOM     16  O   LIG d   1      -2.718  81.553 112.410  0.00  0.00    -0.276 OA
ATOM     17  H   LIG d   1      -0.898  79.796 114.303  0.00  0.00     0.149 HD
ENDBRANCH   6  13
BRANCH   5  18
ATOM     18  N   LIG d   1      -2.606  82.911 115.377  0.00  0.00     0.381 N 
ATOM     19  H   LIG d   1      -2.078  82.878 114.528  0.00  0.00    -0.090 HD
ATOM     20  H   LIG d   1      -2.177  83.582 115.989  0.00  0.00    -0.090 HD
ATOM     21  H   LIG d   1      -3.545  83.179 115.183  0.00  0.00    -0.090 HD
ENDBRANCH   5  18
BRANCH   3  22
ATOM     22  C   LIG d   1      -4.330  80.281 118.990  0.00  0.00     0.382 C 
ATOM     23  O   LIG d   1      -3.885  79.421 119.788  0.00  0.00    -0.241 OA
ATOM     24  O   LIG d   1      -5.219  81.068 119.368  0.00  0.00    -0.241 OA
ENDBRANCH   3  22
TORSDOF 7
ENDMDL
MODEL 8
REMARK VINA RESULT:      -4.6      2.526      5.610
REMARK  7 active torsions:
REMARK  status: ('A' for Active; 'I' for Inactive)
REMARK    1  A    between atoms: C_2  and  C_3 
REMARK    2  A    between atoms: C_3  and  O_6 
REMARK    3  A    between atoms: C_3  and  C_4 
REMARK    4  A    between atoms: C_7  and  O_6 
REMARK    5  A    between atoms: C_9  and  C_10 
REMARK    6  A    between atoms: N_15  and  C_14 
REMARK    7  A    between atoms: N_20  and  C_19 
REMARK       I    between atoms: C_22  and  N_20 
ROOT
ATOM      1  C   LIG d   1      -3.662  77.537 116.274  0.00  0.00     0.161 C 
ATOM      2  C   LIG d   1      -4.310  76.366 115.850  0.00  0.00     0.016 C 
ATOM      3  C   LIG d   1      -5.652  76.058 116.174  0.00  0.00     0.038 C 
ATOM      4  C   LIG d   1      -6.488  76.980 116.822  0.00  0.00     0.028 C 
ATOM      5  C   LIG d   1      -5.733  77.964 117.709  0.00  0.00    -0.047 C 
ATOM      6  C   LIG d   1      -4.591  78.606 116.887  0.00  0.00     0.091 C 
ENDROOT
BRANCH   1   7
ATOM      7  O   LIG d   1      -2.905  78.099 115.183  0.00  0.00    -0.368 OA
BRANCH   7   8
ATOM      8  C   LIG d   1      -2.564  77.188 114.109  0.00  0.00     0.119 C 
BRANCH   8   9
ATOM      9  C   LIG d   1      -1.059  76.876 114.227  0.00  0.00     0.028 C 
ATOM     10  C   LIG d   1      -0.790  75.567 114.989  0.00  0.00     0.006 C 
ENDBRANCH   8   9
BRANCH   8  11
ATOM     11  C   LIG d   1      -2.733  77.853 112.740  0.00  0.00     0.028 C 
ATOM     12  C   LIG d   1      -2.419  79.358 112.765  0.00  0.00     0.006 C 
ENDBRANCH   8  11
ENDBRANCH   7   8
ENDBRANCH   1   7
BRANCH   6  13
ATOM     13  N   LIG d   1      -3.750  79.519 117.704  0.00  0.00    -0.311 N 
ATOM     14  C   LIG d   1      -3.968  80.829 117.797  0.00  0.00     0.210 C 
ATOM     15  C   LIG d   1      -2.970  81.590 118.676  0.00  0.00     0.109 C 
ATOM     16  O   LIG d   1      -4.912  81.429 117.261  0.00  0.00    -0.276 OA
ATOM     17  H   LIG d   1      -2.980  79.111 118.197  0.00  0.00     0.149 HD
ENDBRANCH   6  13
BRANCH   5  18
ATOM     18  N   LIG d   1      -6.708  78.950 118.212  0.00  0.00     0.381 N 
ATOM     19  H   LIG d   1      -6.606  79.811 117.714  0.00  0.00    -0.090 HD
ATOM     20  H   LIG d   1      -6.522  79.124 119.184  0.00  0.00    -0.090 HD
ATOM     21  H   LIG d   1      -7.634  78.600 118.100  0.00  0.00    -0.090 HD
ENDBRANCH   5  18
BRANCH   3  22
ATOM     22  C   LIG d   1      -6.158  74.801 115.884  0.00  0.00     0.382 C 
ATOM     23  O   LIG d   1      -5.754  74.181 114.870  0.00  0.00    -0.241 OA
ATOM     24  O   LIG d   1      -7.046  74.297 116.597  0.00  0.00    -0.241 OA
ENDBRANCH   3  22
TORSDOF 7
ENDMDL
MODEL 9
REMARK VINA RESULT:      -4.5      2.766      5.328
REMARK  7 active torsions:
REMARK  status: ('A' for Active; 'I' for Inactive)
REMARK    1  A    between atoms: C_2  and  C_3 
REMARK    2  A    between atoms: C_3  and  O_6 
REMARK    3  A    between atoms: C_3  and  C_4 
REMARK    4  A    between atoms: C_7  and  O_6 
REMARK    5  A    between atoms: C_9  and  C_10 
REMARK    6  A    between atoms: N_15  and  C_14 
REMARK    7  A    between atoms: N_20  and  C_19 
REMARK       I    between atoms: C_22  and  N_20 
ROOT
ATOM      1  C   LIG d   1      -2.098  79.196 115.378  0.00  0.00     0.161 C 
ATOM      2  C   LIG d   1      -2.882  78.044 115.198  0.00  0.00     0.016 C 
ATOM      3  C   LIG d   1      -3.071  77.419 113.944  0.00  0.00     0.038 C 
ATOM      4  C   LIG d   1      -2.360  77.818 112.802  0.00  0.00     0.028 C 
ATOM      5  C   LIG d   1      -1.947  79.286 112.828  0.00  0.00    -0.047 C 
ATOM      6  C   LIG d   1      -1.226  79.580 114.164  0.00  0.00     0.091 C 
ENDROOT
BRANCH   1   7
ATOM      7  O   LIG d   1      -1.280  79.051 116.556  0.00  0.00    -0.368 OA
BRANCH   7   8
ATOM      8  C   LIG d   1      -1.065  77.696 117.019  0.00  0.00     0.119 C 
BRANCH   8   9
ATOM      9  C   LIG d   1      -1.101  77.722 118.560  0.00  0.00     0.028 C 
ATOM     10  C   LIG d   1      -0.677  76.380 119.180  0.00  0.00     0.006 C 
ENDBRANCH   8   9
BRANCH   8  11
ATOM     11  C   LIG d   1       0.338  77.199 116.656  0.00  0.00     0.028 C 
ATOM     12  C   LIG d   1       0.329  76.178 115.507  0.00  0.00     0.006 C 
ENDBRANCH   8  11
ENDBRANCH   7   8
ENDBRANCH   1   7
BRANCH   6  13
ATOM     13  N   LIG d   1      -0.863  81.014 114.307  0.00  0.00    -0.311 N 
ATOM     14  C   LIG d   1      -1.732  82.010 114.149  0.00  0.00     0.210 C 
ATOM     15  C   LIG d   1      -1.145  83.415 114.322  0.00  0.00     0.109 C 
ATOM     16  O   LIG d   1      -2.941  81.863 113.914  0.00  0.00    -0.276 OA
ATOM     17  H   LIG d   1       0.091  81.223 114.528  0.00  0.00     0.149 HD
ENDBRANCH   6  13
BRANCH   5  18
ATOM     18  N   LIG d   1      -1.098  79.531 111.647  0.00  0.00     0.381 N 
ATOM     19  H   LIG d   1      -0.364  78.852 111.610  0.00  0.00    -0.090 HD
ATOM     20  H   LIG d   1      -0.682  80.442 111.729  0.00  0.00    -0.090 HD
ATOM     21  H   LIG d   1      -1.647  79.482 110.817  0.00  0.00    -0.090 HD
ENDBRANCH   5  18
BRANCH   3  22
ATOM     22  C   LIG d   1      -4.009  76.406 113.815  0.00  0.00     0.382 C 
ATOM     23  O   LIG d   1      -5.054  76.601 113.149  0.00  0.00    -0.241 OA
ATOM     24  O   LIG d   1      -3.845  75.315 114.393  0.00  0.00    -0.241 OA
ENDBRANCH   3  22
TORSDOF 7
ENDMDL
