MODEL 1
REMARK VINA RESULT:      -5.1      0.000      0.000
REMARK  7 active torsions:
REMARK  status: ('A' for Active; 'I' for Inactive)
REMARK    1  A    between atoms: C_2  and  C_3 
REMARK    2  A    between atoms: C_3  and  O_6 
REMARK    3  A    between atoms: C_3  and  C_4 
REMARK    4  A    between atoms: C_7  and  O_6 
REMARK    5  A    between atoms: C_9  and  C_10 
REMARK    6  A    between atoms: N_15  and  C_14 
REMARK    7  A    between atoms: N_20  and  C_19 
REMARK       I    between atoms: C_22  and  N_20 
ROOT
ATOM      1  C   LIG d   1      -5.491  78.700 116.747  0.00  0.00     0.161 C 
ATOM      2  C   LIG d   1      -6.738  78.075 116.913  0.00  0.00     0.016 C 
ATOM      3  C   LIG d   1      -7.865  78.721 117.471  0.00  0.00     0.038 C 
ATOM      4  C   LIG d   1      -7.863  80.093 117.764  0.00  0.00     0.028 C 
ATOM      5  C   LIG d   1      -6.477  80.642 118.084  0.00  0.00    -0.047 C 
ATOM      6  C   LIG d   1      -5.502  80.229 116.958  0.00  0.00     0.091 C 
ENDROOT
BRANCH   1   7
ATOM      7  O   LIG d   1      -4.951  78.378 115.451  0.00  0.00    -0.368 OA
BRANCH   7   8
ATOM      8  C   LIG d   1      -3.883  77.399 115.431  0.00  0.00     0.119 C 
BRANCH   8   9
ATOM      9  C   LIG d   1      -2.570  78.151 115.141  0.00  0.00     0.028 C 
ATOM     10  C   LIG d   1      -2.650  78.999 113.860  0.00  0.00     0.006 C 
ENDBRANCH   8   9
BRANCH   8  11
ATOM     11  C   LIG d   1      -4.051  76.414 114.270  0.00  0.00     0.028 C 
ATOM     12  C   LIG d   1      -5.522  76.073 113.986  0.00  0.00     0.006 C 
ENDBRANCH   8  11
ENDBRANCH   7   8
ENDBRANCH   1   7
BRANCH   6  13
ATOM     13  N   LIG d   1      -4.105  80.654 117.235  0.00  0.00    -0.311 N 
ATOM     14  C   LIG d   1      -3.449  81.545 116.493  0.00  0.00     0.210 C 
ATOM     15  C   LIG d   1      -2.011  81.826 116.940  0.00  0.00     0.109 C 
ATOM     16  O   LIG d   1      -3.932  82.153 115.526  0.00  0.00    -0.276 OA
ATOM     17  H   LIG d   1      -3.647  80.234 118.020  0.00  0.00     0.149 HD
ENDBRANCH   6  13
BRANCH   5  18
ATOM     18  N   LIG d   1      -6.601  82.104 118.234  0.00  0.00     0.381 N 
ATOM     19  H   LIG d   1      -6.527  82.544 117.338  0.00  0.00    -0.090 HD
ATOM     20  H   LIG d   1      -5.849  82.437 118.812  0.00  0.00    -0.090 HD
ATOM     21  H   LIG d   1      -7.476  82.331 118.652  0.00  0.00    -0.090 HD
ENDBRANCH   5  18
BRANCH   3  22
ATOM     22  C   LIG d   1      -8.998  77.983 117.778  0.00  0.00     0.382 C 
ATOM     23  O   LIG d   1     -10.022  78.560 118.218  0.00  0.00    -0.241 OA
ATOM     24  O   LIG d   1      -8.995  76.743 117.662  0.00  0.00    -0.241 OA
ENDBRANCH   3  22
TORSDOF 7
ENDMDL
MODEL 2
REMARK VINA RESULT:      -5.0      1.788      2.678
REMARK  7 active torsions:
REMARK  status: ('A' for Active; 'I' for Inactive)
REMARK    1  A    between atoms: C_2  and  C_3 
REMARK    2  A    between atoms: C_3  and  O_6 
REMARK    3  A    between atoms: C_3  and  C_4 
REMARK    4  A    between atoms: C_7  and  O_6 
REMARK    5  A    between atoms: C_9  and  C_10 
REMARK    6  A    between atoms: N_15  and  C_14 
REMARK    7  A    between atoms: N_20  and  C_19 
REMARK       I    between atoms: C_22  and  N_20 
ROOT
ATOM      1  C   LIG d   1      -6.569  77.714 117.050  0.00  0.00     0.161 C 
ATOM      2  C   LIG d   1      -7.861  78.037 117.498  0.00  0.00     0.016 C 
ATOM      3  C   LIG d   1      -8.288  79.361 117.750  0.00  0.00     0.038 C 
ATOM      4  C   LIG d   1      -7.495  80.471 117.424  0.00  0.00     0.028 C 
ATOM      5  C   LIG d   1      -5.999  80.173 117.443  0.00  0.00    -0.047 C 
ATOM      6  C   LIG d   1      -5.726  78.919 116.583  0.00  0.00     0.091 C 
ENDROOT
BRANCH   1   7
ATOM      7  O   LIG d   1      -6.648  76.723 116.007  0.00  0.00    -0.368 OA
BRANCH   7   8
ATOM      8  C   LIG d   1      -5.891  75.506 116.224  0.00  0.00     0.119 C 
BRANCH   8   9
ATOM      9  C   LIG d   1      -5.047  75.254 114.960  0.00  0.00     0.028 C 
ATOM     10  C   LIG d   1      -5.525  76.088 113.759  0.00  0.00     0.006 C 
ENDBRANCH   8   9
BRANCH   8  11
ATOM     11  C   LIG d   1      -6.814  74.290 116.345  0.00  0.00     0.028 C 
ATOM     12  C   LIG d   1      -7.484  74.185 117.724  0.00  0.00     0.006 C 
ENDBRANCH   8  11
ENDBRANCH   7   8
ENDBRANCH   1   7
BRANCH   6  13
ATOM     13  N   LIG d   1      -4.298  78.508 116.616  0.00  0.00    -0.311 N 
ATOM     14  C   LIG d   1      -3.417  78.843 115.675  0.00  0.00     0.210 C 
ATOM     15  C   LIG d   1      -2.001  78.299 115.892  0.00  0.00     0.109 C 
ATOM     16  O   LIG d   1      -3.666  79.565 114.698  0.00  0.00    -0.276 OA
ATOM     17  H   LIG d   1      -4.003  77.947 117.391  0.00  0.00     0.149 HD
ENDBRANCH   6  13
BRANCH   5  18
ATOM     18  N   LIG d   1      -5.299  81.375 116.952  0.00  0.00     0.381 N 
ATOM     19  H   LIG d   1      -5.385  82.114 117.621  0.00  0.00    -0.090 HD
ATOM     20  H   LIG d   1      -5.729  81.674 116.094  0.00  0.00    -0.090 HD
ATOM     21  H   LIG d   1      -4.337  81.169 116.796  0.00  0.00    -0.090 HD
ENDBRANCH   5  18
BRANCH   3  22
ATOM     22  C   LIG d   1      -9.508  79.583 118.372  0.00  0.00     0.382 C 
ATOM     23  O   LIG d   1     -10.040  80.718 118.319  0.00  0.00    -0.241 OA
ATOM     24  O   LIG d   1     -10.060  78.675 119.021  0.00  0.00    -0.241 OA
ENDBRANCH   3  22
TORSDOF 7
ENDMDL
MODEL 3
REMARK VINA RESULT:      -4.8      3.939      6.361
REMARK  7 active torsions:
REMARK  status: ('A' for Active; 'I' for Inactive)
REMARK    1  A    between atoms: C_2  and  C_3 
REMARK    2  A    between atoms: C_3  and  O_6 
REMARK    3  A    between atoms: C_3  and  C_4 
REMARK    4  A    between atoms: C_7  and  O_6 
REMARK    5  A    between atoms: C_9  and  C_10 
REMARK    6  A    between atoms: N_15  and  C_14 
REMARK    7  A    between atoms: N_20  and  C_19 
REMARK       I    between atoms: C_22  and  N_20 
ROOT
ATOM      1  C   LIG d   1      -3.135  77.838 115.953  0.00  0.00     0.161 C 
ATOM      2  C   LIG d   1      -3.310  78.664 114.830  0.00  0.00     0.016 C 
ATOM      3  C   LIG d   1      -2.404  78.707 113.746  0.00  0.00     0.038 C 
ATOM      4  C   LIG d   1      -1.332  77.809 113.641  0.00  0.00     0.028 C 
ATOM      5  C   LIG d   1      -0.829  77.304 114.989  0.00  0.00    -0.047 C 
ATOM      6  C   LIG d   1      -2.030  76.772 115.804  0.00  0.00     0.091 C 
ENDROOT
BRANCH   1   7
ATOM      7  O   LIG d   1      -4.387  77.217 116.303  0.00  0.00    -0.368 OA
BRANCH   7   8
ATOM      8  C   LIG d   1      -4.604  75.882 115.783  0.00  0.00     0.119 C 
BRANCH   8   9
ATOM      9  C   LIG d   1      -5.833  75.941 114.855  0.00  0.00     0.028 C 
ATOM     10  C   LIG d   1      -5.444  76.023 113.369  0.00  0.00     0.006 C 
ENDBRANCH   8   9
BRANCH   8  11
ATOM     11  C   LIG d   1      -4.984  74.904 116.898  0.00  0.00     0.028 C 
ATOM     12  C   LIG d   1      -6.398  74.327 116.727  0.00  0.00     0.006 C 
ENDBRANCH   8  11
ENDBRANCH   7   8
ENDBRANCH   1   7
BRANCH   6  13
ATOM     13  N   LIG d   1      -1.638  76.336 117.170  0.00  0.00    -0.311 N 
ATOM     14  C   LIG d   1      -1.251  75.095 117.461  0.00  0.00     0.210 C 
ATOM     15  C   LIG d   1      -0.911  74.853 118.935  0.00  0.00     0.109 C 
ATOM     16  O   LIG d   1      -1.126  74.181 116.633  0.00  0.00    -0.276 OA
ATOM     17  H   LIG d   1      -1.680  77.023 117.898  0.00  0.00     0.149 HD
ENDBRANCH   6  13
BRANCH   5  18
ATOM     18  N   LIG d   1       0.194  76.275 114.727  0.00  0.00     0.381 N 
ATOM     19  H   LIG d   1       0.131  75.552 115.415  0.00  0.00    -0.090 HD
ATOM     20  H   LIG d   1       1.104  76.696 114.794  0.00  0.00    -0.090 HD
ATOM     21  H   LIG d   1       0.065  75.890 113.817  0.00  0.00    -0.090 HD
ENDBRANCH   5  18
BRANCH   3  22
ATOM     22  C   LIG d   1      -2.544  79.683 112.771  0.00  0.00     0.382 C 
ATOM     23  O   LIG d   1      -1.814  79.660 111.751  0.00  0.00    -0.241 OA
ATOM     24  O   LIG d   1      -3.361  80.611 112.920  0.00  0.00    -0.241 OA
ENDBRANCH   3  22
TORSDOF 7
ENDMDL
MODEL 4
REMARK VINA RESULT:      -4.8      3.178      7.142
REMARK  7 active torsions:
REMARK  status: ('A' for Active; 'I' for Inactive)
REMARK    1  A    between atoms: C_2  and  C_3 
REMARK    2  A    between atoms: C_3  and  O_6 
REMARK    3  A    between atoms: C_3  and  C_4 
REMARK    4  A    between atoms: C_7  and  O_6 
REMARK    5  A    between atoms: C_9  and  C_10 
REMARK    6  A    between atoms: N_15  and  C_14 
REMARK    7  A    between atoms: N_20  and  C_19 
REMARK       I    between atoms: C_22  and  N_20 
ROOT
ATOM      1  C   LIG d   1      -2.712  80.174 114.815  0.00  0.00     0.161 C 
ATOM      2  C   LIG d   1      -2.223  81.436 114.437  0.00  0.00     0.016 C 
ATOM      3  C   LIG d   1      -1.517  81.669 113.234  0.00  0.00     0.038 C 
ATOM      4  C   LIG d   1      -1.385  80.679 112.249  0.00  0.00     0.028 C 
ATOM      5  C   LIG d   1      -1.424  79.260 112.807  0.00  0.00    -0.047 C 
ATOM      6  C   LIG d   1      -2.675  79.106 113.701  0.00  0.00     0.091 C 
ENDROOT
BRANCH   1   7
ATOM      7  O   LIG d   1      -4.049  80.306 115.338  0.00  0.00    -0.368 OA
BRANCH   7   8
ATOM      8  C   LIG d   1      -4.215  80.006 116.745  0.00  0.00     0.119 C 
BRANCH   8   9
ATOM      9  C   LIG d   1      -5.577  79.305 116.912  0.00  0.00     0.028 C 
ATOM     10  C   LIG d   1      -6.675  80.266 117.399  0.00  0.00     0.006 C 
ENDBRANCH   8   9
BRANCH   8  11
ATOM     11  C   LIG d   1      -4.313  81.286 117.580  0.00  0.00     0.028 C 
ATOM     12  C   LIG d   1      -3.100  81.490 118.503  0.00  0.00     0.006 C 
ENDBRANCH   8  11
ENDBRANCH   7   8
ENDBRANCH   1   7
BRANCH   6  13
ATOM     13  N   LIG d   1      -2.744  77.773 114.355  0.00  0.00    -0.311 N 
ATOM     14  C   LIG d   1      -3.551  76.797 113.944  0.00  0.00     0.210 C 
ATOM     15  C   LIG d   1      -3.481  75.509 114.770  0.00  0.00     0.109 C 
ATOM     16  O   LIG d   1      -4.295  76.864 112.953  0.00  0.00    -0.276 OA
ATOM     17  H   LIG d   1      -2.151  77.622 115.147  0.00  0.00     0.149 HD
ENDBRANCH   6  13
BRANCH   5  18
ATOM     18  N   LIG d   1      -1.414  78.330 111.661  0.00  0.00     0.381 N 
ATOM     19  H   LIG d   1      -1.751  77.434 111.950  0.00  0.00    -0.090 HD
ATOM     20  H   LIG d   1      -0.469  78.223 111.337  0.00  0.00    -0.090 HD
ATOM     21  H   LIG d   1      -1.986  78.688 110.928  0.00  0.00    -0.090 HD
ENDBRANCH   5  18
BRANCH   3  22
ATOM     22  C   LIG d   1      -0.901  82.893 113.025  0.00  0.00     0.382 C 
ATOM     23  O   LIG d   1      -0.973  83.447 111.902  0.00  0.00    -0.241 OA
ATOM     24  O   LIG d   1      -0.236  83.429 113.932  0.00  0.00    -0.241 OA
ENDBRANCH   3  22
TORSDOF 7
ENDMDL
MODEL 5
REMARK VINA RESULT:      -4.7      2.143      4.112
REMARK  7 active torsions:
REMARK  status: ('A' for Active; 'I' for Inactive)
REMARK    1  A    between atoms: C_2  and  C_3 
REMARK    2  A    between atoms: C_3  and  O_6 
REMARK    3  A    between atoms: C_3  and  C_4 
REMARK    4  A    between atoms: C_7  and  O_6 
REMARK    5  A    between atoms: C_9  and  C_10 
REMARK    6  A    between atoms: N_15  and  C_14 
REMARK    7  A    between atoms: N_20  and  C_19 
REMARK       I    between atoms: C_22  and  N_20 
ROOT
ATOM      1  C   LIG d   1      -4.575  78.692 116.089  0.00  0.00     0.161 C 
ATOM      2  C   LIG d   1      -4.461  77.483 115.384  0.00  0.00     0.016 C 
ATOM      3  C   LIG d   1      -5.492  76.517 115.324  0.00  0.00     0.038 C 
ATOM      4  C   LIG d   1      -6.771  76.765 115.844  0.00  0.00     0.028 C 
ATOM      5  C   LIG d   1      -6.773  77.760 117.000  0.00  0.00    -0.047 C 
ATOM      6  C   LIG d   1      -6.002  79.029 116.570  0.00  0.00     0.091 C 
ENDROOT
BRANCH   1   7
ATOM      7  O   LIG d   1      -4.045  79.772 115.295  0.00  0.00    -0.368 OA
BRANCH   7   8
ATOM      8  C   LIG d   1      -2.757  80.294 115.706  0.00  0.00     0.119 C 
BRANCH   8   9
ATOM      9  C   LIG d   1      -3.001  81.668 116.359  0.00  0.00     0.028 C 
ATOM     10  C   LIG d   1      -2.621  81.685 117.849  0.00  0.00     0.006 C 
ENDBRANCH   8   9
BRANCH   8  11
ATOM     11  C   LIG d   1      -1.858  80.573 114.498  0.00  0.00     0.028 C 
ATOM     12  C   LIG d   1      -1.983  79.502 113.402  0.00  0.00     0.006 C 
ENDBRANCH   8  11
ENDBRANCH   7   8
ENDBRANCH   1   7
BRANCH   6  13
ATOM     13  N   LIG d   1      -5.883  80.021 117.671  0.00  0.00    -0.311 N 
ATOM     14  C   LIG d   1      -6.693  81.070 117.802  0.00  0.00     0.210 C 
ATOM     15  C   LIG d   1      -6.384  81.979 118.996  0.00  0.00     0.109 C 
ATOM     16  O   LIG d   1      -7.657  81.317 117.063  0.00  0.00    -0.276 OA
ATOM     17  H   LIG d   1      -5.147  79.880 118.334  0.00  0.00     0.149 HD
ENDBRANCH   6  13
BRANCH   5  18
ATOM     18  N   LIG d   1      -8.179  78.031 117.353  0.00  0.00     0.381 N 
ATOM     19  H   LIG d   1      -8.457  77.440 118.112  0.00  0.00    -0.090 HD
ATOM     20  H   LIG d   1      -8.760  77.820 116.561  0.00  0.00    -0.090 HD
ATOM     21  H   LIG d   1      -8.289  78.987 117.610  0.00  0.00    -0.090 HD
ENDBRANCH   5  18
BRANCH   3  22
ATOM     22  C   LIG d   1      -5.235  75.271 114.773  0.00  0.00     0.382 C 
ATOM     23  O   LIG d   1      -5.909  74.276 115.133  0.00  0.00    -0.241 OA
ATOM     24  O   LIG d   1      -4.309  75.121 113.954  0.00  0.00    -0.241 OA
ENDBRANCH   3  22
TORSDOF 7
ENDMDL
MODEL 6
REMARK VINA RESULT:      -4.6      4.244      6.397
REMARK  7 active torsions:
REMARK  status: ('A' for Active; 'I' for Inactive)
REMARK    1  A    between atoms: C_2  and  C_3 
REMARK    2  A    between atoms: C_3  and  O_6 
REMARK    3  A    between atoms: C_3  and  C_4 
REMARK    4  A    between atoms: C_7  and  O_6 
REMARK    5  A    between atoms: C_9  and  C_10 
REMARK    6  A    between atoms: N_15  and  C_14 
REMARK    7  A    between atoms: N_20  and  C_19 
REMARK       I    between atoms: C_22  and  N_20 
ROOT
ATOM      1  C   LIG d   1      -1.554  80.313 114.522  0.00  0.00     0.161 C 
ATOM      2  C   LIG d   1      -2.422  79.249 114.820  0.00  0.00     0.016 C 
ATOM      3  C   LIG d   1      -2.696  78.193 113.921  0.00  0.00     0.038 C 
ATOM      4  C   LIG d   1      -2.000  78.049 112.711  0.00  0.00     0.028 C 
ATOM      5  C   LIG d   1      -1.486  79.370 112.148  0.00  0.00    -0.047 C 
ATOM      6  C   LIG d   1      -0.701  80.115 113.252  0.00  0.00     0.091 C 
ENDROOT
BRANCH   1   7
ATOM      7  O   LIG d   1      -0.708  80.586 115.657  0.00  0.00    -0.368 OA
BRANCH   7   8
ATOM      8  C   LIG d   1      -0.821  81.911 116.232  0.00  0.00     0.119 C 
BRANCH   8   9
ATOM      9  C   LIG d   1      -1.071  81.740 117.743  0.00  0.00     0.028 C 
ATOM     10  C   LIG d   1      -2.569  81.679 118.086  0.00  0.00     0.006 C 
ENDBRANCH   8   9
BRANCH   8  11
ATOM     11  C   LIG d   1      -2.053  82.647 115.697  0.00  0.00     0.028 C 
ATOM     12  C   LIG d   1      -1.708  84.003 115.062  0.00  0.00     0.006 C 
ENDBRANCH   8  11
ENDBRANCH   7   8
ENDBRANCH   1   7
BRANCH   6  13
ATOM     13  N   LIG d   1      -0.235  81.455 112.810  0.00  0.00    -0.311 N 
ATOM     14  C   LIG d   1      -0.973  82.281 112.070  0.00  0.00     0.210 C 
ATOM     15  C   LIG d   1      -0.294  83.605 111.708  0.00  0.00     0.109 C 
ATOM     16  O   LIG d   1      -2.137  82.055 111.707  0.00  0.00    -0.276 OA
ATOM     17  H   LIG d   1       0.687  81.731 113.087  0.00  0.00     0.149 HD
ENDBRANCH   6  13
BRANCH   5  18
ATOM     18  N   LIG d   1      -0.664  79.059 110.963  0.00  0.00     0.381 N 
ATOM     19  H   LIG d   1      -1.256  78.793 110.201  0.00  0.00    -0.090 HD
ATOM     20  H   LIG d   1      -0.061  78.286 111.180  0.00  0.00    -0.090 HD
ATOM     21  H   LIG d   1      -0.120  79.854 110.708  0.00  0.00    -0.090 HD
ENDBRANCH   5  18
BRANCH   3  22
ATOM     22  C   LIG d   1      -3.706  77.288 114.211  0.00  0.00     0.382 C 
ATOM     23  O   LIG d   1      -3.571  76.079 113.906  0.00  0.00    -0.241 OA
ATOM     24  O   LIG d   1      -4.769  77.674 114.734  0.00  0.00    -0.241 OA
ENDBRANCH   3  22
TORSDOF 7
ENDMDL
MODEL 7
REMARK VINA RESULT:      -4.5      2.159      4.852
REMARK  7 active torsions:
REMARK  status: ('A' for Active; 'I' for Inactive)
REMARK    1  A    between atoms: C_2  and  C_3 
REMARK    2  A    between atoms: C_3  and  O_6 
REMARK    3  A    between atoms: C_3  and  C_4 
REMARK    4  A    between atoms: C_7  and  O_6 
REMARK    5  A    between atoms: C_9  and  C_10 
REMARK    6  A    between atoms: N_15  and  C_14 
REMARK    7  A    between atoms: N_20  and  C_19 
REMARK       I    between atoms: C_22  and  N_20 
ROOT
ATOM      1  C   LIG d   1      -4.074  79.395 116.127  0.00  0.00     0.161 C 
ATOM      2  C   LIG d   1      -3.539  78.394 115.299  0.00  0.00     0.016 C 
ATOM      3  C   LIG d   1      -4.199  77.173 115.028  0.00  0.00     0.038 C 
ATOM      4  C   LIG d   1      -5.515  76.932 115.450  0.00  0.00     0.028 C 
ATOM      5  C   LIG d   1      -5.899  77.703 116.708  0.00  0.00    -0.047 C 
ATOM      6  C   LIG d   1      -5.557  79.197 116.505  0.00  0.00     0.091 C 
ENDROOT
BRANCH   1   7
ATOM      7  O   LIG d   1      -3.881  80.687 115.518  0.00  0.00    -0.368 OA
BRANCH   7   8
ATOM      8  C   LIG d   1      -3.290  81.706 116.362  0.00  0.00     0.119 C 
BRANCH   8   9
ATOM      9  C   LIG d   1      -2.371  82.567 115.473  0.00  0.00     0.028 C 
ATOM     10  C   LIG d   1      -2.184  81.968 114.069  0.00  0.00     0.006 C 
ENDBRANCH   8   9
BRANCH   8  11
ATOM     11  C   LIG d   1      -2.370  81.090 117.419  0.00  0.00     0.028 C 
ATOM     12  C   LIG d   1      -2.573  81.702 118.815  0.00  0.00     0.006 C 
ENDBRANCH   8  11
ENDBRANCH   7   8
ENDBRANCH   1   7
BRANCH   6  13
ATOM     13  N   LIG d   1      -5.823  80.010 117.720  0.00  0.00    -0.311 N 
ATOM     14  C   LIG d   1      -6.661  81.045 117.741  0.00  0.00     0.210 C 
ATOM     15  C   LIG d   1      -6.775  81.758 119.092  0.00  0.00     0.109 C 
ATOM     16  O   LIG d   1      -7.345  81.420 116.777  0.00  0.00    -0.276 OA
ATOM     17  H   LIG d   1      -5.334  79.755 118.556  0.00  0.00     0.149 HD
ENDBRANCH   6  13
BRANCH   5  18
ATOM     18  N   LIG d   1      -7.334  77.467 116.955  0.00  0.00     0.381 N 
ATOM     19  H   LIG d   1      -7.871  77.807 116.182  0.00  0.00    -0.090 HD
ATOM     20  H   LIG d   1      -7.610  77.973 117.778  0.00  0.00    -0.090 HD
ATOM     21  H   LIG d   1      -7.502  76.493 117.083  0.00  0.00    -0.090 HD
ENDBRANCH   5  18
BRANCH   3  22
ATOM     22  C   LIG d   1      -3.525  76.160 114.362  0.00  0.00     0.382 C 
ATOM     23  O   LIG d   1      -2.298  76.274 114.125  0.00  0.00    -0.241 OA
ATOM     24  O   LIG d   1      -4.137  75.155 113.956  0.00  0.00    -0.241 OA
ENDBRANCH   3  22
TORSDOF 7
ENDMDL
MODEL 8
REMARK VINA RESULT:      -4.4      4.258      6.245
REMARK  7 active torsions:
REMARK  status: ('A' for Active; 'I' for Inactive)
REMARK    1  A    between atoms: C_2  and  C_3 
REMARK    2  A    between atoms: C_3  and  O_6 
REMARK    3  A    between atoms: C_3  and  C_4 
REMARK    4  A    between atoms: C_7  and  O_6 
REMARK    5  A    between atoms: C_9  and  C_10 
REMARK    6  A    between atoms: N_15  and  C_14 
REMARK    7  A    between atoms: N_20  and  C_19 
REMARK       I    between atoms: C_22  and  N_20 
ROOT
ATOM      1  C   LIG d   1      -1.743  80.093 114.657  0.00  0.00     0.161 C 
ATOM      2  C   LIG d   1      -2.646  79.035 114.851  0.00  0.00     0.016 C 
ATOM      3  C   LIG d   1      -2.939  78.070 113.860  0.00  0.00     0.038 C 
ATOM      4  C   LIG d   1      -2.230  78.011 112.650  0.00  0.00     0.028 C 
ATOM      5  C   LIG d   1      -1.669  79.359 112.211  0.00  0.00    -0.047 C 
ATOM      6  C   LIG d   1      -0.878  79.980 113.385  0.00  0.00     0.091 C 
ENDROOT
BRANCH   1   7
ATOM      7  O   LIG d   1      -0.906  80.240 115.821  0.00  0.00    -0.368 OA
BRANCH   7   8
ATOM      8  C   LIG d   1      -1.204  81.365 116.683  0.00  0.00     0.119 C 
BRANCH   8   9
ATOM      9  C   LIG d   1       0.083  82.202 116.815  0.00  0.00     0.028 C 
ATOM     10  C   LIG d   1       0.085  83.426 115.884  0.00  0.00     0.006 C 
ENDBRANCH   8   9
BRANCH   8  11
ATOM     11  C   LIG d   1      -1.536  80.905 118.106  0.00  0.00     0.028 C 
ATOM     12  C   LIG d   1      -1.767  82.077 119.073  0.00  0.00     0.006 C 
ENDBRANCH   8  11
ENDBRANCH   7   8
ENDBRANCH   1   7
BRANCH   6  13
ATOM     13  N   LIG d   1      -0.366  81.339 113.067  0.00  0.00    -0.311 N 
ATOM     14  C   LIG d   1      -1.041  82.225 112.337  0.00  0.00     0.210 C 
ATOM     15  C   LIG d   1      -0.323  83.559 112.112  0.00  0.00     0.109 C 
ATOM     16  O   LIG d   1      -2.180  82.044 111.882  0.00  0.00    -0.276 OA
ATOM     17  H   LIG d   1       0.538  81.580 113.424  0.00  0.00     0.149 HD
ENDBRANCH   6  13
BRANCH   5  18
ATOM     18  N   LIG d   1      -0.840  79.128 111.013  0.00  0.00     0.381 N 
ATOM     19  H   LIG d   1      -0.024  79.706 111.049  0.00  0.00    -0.090 HD
ATOM     20  H   LIG d   1      -1.370  79.380 110.197  0.00  0.00    -0.090 HD
ATOM     21  H   LIG d   1      -0.574  78.169 110.962  0.00  0.00    -0.090 HD
ENDBRANCH   5  18
BRANCH   3  22
ATOM     22  C   LIG d   1      -3.979  77.175 114.057  0.00  0.00     0.382 C 
ATOM     23  O   LIG d   1      -3.981  76.073 113.458  0.00  0.00    -0.241 OA
ATOM     24  O   LIG d   1      -4.938  77.474 114.794  0.00  0.00    -0.241 OA
ENDBRANCH   3  22
TORSDOF 7
ENDMDL
MODEL 9
REMARK VINA RESULT:      -4.4      3.526      5.730
REMARK  7 active torsions:
REMARK  status: ('A' for Active; 'I' for Inactive)
REMARK    1  A    between atoms: C_2  and  C_3 
REMARK    2  A    between atoms: C_3  and  O_6 
REMARK    3  A    between atoms: C_3  and  C_4 
REMARK    4  A    between atoms: C_7  and  O_6 
REMARK    5  A    between atoms: C_9  and  C_10 
REMARK    6  A    between atoms: N_15  and  C_14 
REMARK    7  A    between atoms: N_20  and  C_19 
REMARK       I    between atoms: C_22  and  N_20 
ROOT
ATOM      1  C   LIG d   1      -2.896  80.154 115.177  0.00  0.00     0.161 C 
ATOM      2  C   LIG d   1      -3.347  78.834 115.004  0.00  0.00     0.016 C 
ATOM      3  C   LIG d   1      -3.124  78.084 113.826  0.00  0.00     0.038 C 
ATOM      4  C   LIG d   1      -2.298  78.554 112.793  0.00  0.00     0.028 C 
ATOM      5  C   LIG d   1      -2.239  80.075 112.709  0.00  0.00    -0.047 C 
ATOM      6  C   LIG d   1      -1.899  80.643 114.106  0.00  0.00     0.091 C 
ENDROOT
BRANCH   1   7
ATOM      7  O   LIG d   1      -2.332  80.308 116.495  0.00  0.00    -0.368 OA
BRANCH   7   8
ATOM      8  C   LIG d   1      -2.843  81.412 117.281  0.00  0.00     0.119 C 
BRANCH   8   9
ATOM      9  C   LIG d   1      -1.679  81.948 118.137  0.00  0.00     0.028 C 
ATOM     10  C   LIG d   1      -2.040  82.037 119.630  0.00  0.00     0.006 C 
ENDBRANCH   8   9
BRANCH   8  11
ATOM     11  C   LIG d   1      -3.900  80.940 118.284  0.00  0.00     0.028 C 
ATOM     12  C   LIG d   1      -5.333  81.274 117.841  0.00  0.00     0.006 C 
ENDBRANCH   8  11
ENDBRANCH   7   8
ENDBRANCH   1   7
BRANCH   6  13
ATOM     13  N   LIG d   1      -1.904  82.129 114.132  0.00  0.00    -0.311 N 
ATOM     14  C   LIG d   1      -0.871  82.859 114.548  0.00  0.00     0.210 C 
ATOM     15  C   LIG d   1      -1.093  84.374 114.511  0.00  0.00     0.109 C 
ATOM     16  O   LIG d   1       0.220  82.396 114.913  0.00  0.00    -0.276 OA
ATOM     17  H   LIG d   1      -2.739  82.587 113.822  0.00  0.00     0.149 HD
ENDBRANCH   6  13
BRANCH   5  18
ATOM     18  N   LIG d   1      -1.239  80.427 111.683  0.00  0.00     0.381 N 
ATOM     19  H   LIG d   1      -0.323  80.418 112.086  0.00  0.00    -0.090 HD
ATOM     20  H   LIG d   1      -1.428  81.356 111.350  0.00  0.00    -0.090 HD
ATOM     21  H   LIG d   1      -1.284  79.779 110.927  0.00  0.00    -0.090 HD
ENDBRANCH   5  18
BRANCH   3  22
ATOM     22  C   LIG d   1      -3.763  76.866 113.656  0.00  0.00     0.382 C 
ATOM     23  O   LIG d   1      -3.260  75.822 114.137  0.00  0.00    -0.241 OA
ATOM     24  O   LIG d   1      -4.812  76.791 112.989  0.00  0.00    -0.241 OA
ENDBRANCH   3  22
TORSDOF 7
ENDMDL
