MODEL 1
REMARK VINA RESULT:      -5.1      0.000      0.000
REMARK  7 active torsions:
REMARK  status: ('A' for Active; 'I' for Inactive)
REMARK    1  A    between atoms: C_2  and  C_3 
REMARK    2  A    between atoms: C_3  and  O_6 
REMARK    3  A    between atoms: C_3  and  C_4 
REMARK    4  A    between atoms: C_7  and  O_6 
REMARK    5  A    between atoms: C_9  and  C_10 
REMARK    6  A    between atoms: N_15  and  C_14 
REMARK    7  A    between atoms: N_20  and  C_19 
REMARK       I    between atoms: C_22  and  N_20 
ROOT
ATOM      1  C   LIG d   1      -3.236  77.191 117.257  0.00  0.00     0.161 C 
ATOM      2  C   LIG d   1      -2.369  77.918 118.090  0.00  0.00     0.016 C 
ATOM      3  C   LIG d   1      -0.961  77.802 118.038  0.00  0.00     0.038 C 
ATOM      4  C   LIG d   1      -0.315  77.058 117.039  0.00  0.00     0.028 C 
ATOM      5  C   LIG d   1      -1.160  75.911 116.497  0.00  0.00    -0.047 C 
ATOM      6  C   LIG d   1      -2.546  76.458 116.088  0.00  0.00     0.091 C 
ENDROOT
BRANCH   1   7
ATOM      7  O   LIG d   1      -4.278  78.056 116.762  0.00  0.00    -0.368 OA
BRANCH   7   8
ATOM      8  C   LIG d   1      -5.527  78.033 117.496  0.00  0.00     0.119 C 
BRANCH   8   9
ATOM      9  C   LIG d   1      -6.499  77.117 116.727  0.00  0.00     0.028 C 
ATOM     10  C   LIG d   1      -6.654  75.738 117.391  0.00  0.00     0.006 C 
ENDBRANCH   8   9
BRANCH   8  11
ATOM     11  C   LIG d   1      -6.192  79.413 117.505  0.00  0.00     0.028 C 
ATOM     12  C   LIG d   1      -7.693  79.348 117.829  0.00  0.00     0.006 C 
ENDBRANCH   8  11
ENDBRANCH   7   8
ENDBRANCH   1   7
BRANCH   6  13
ATOM     13  N   LIG d   1      -3.465  75.386 115.625  0.00  0.00    -0.311 N 
ATOM     14  C   LIG d   1      -4.020  75.368 114.414  0.00  0.00     0.210 C 
ATOM     15  C   LIG d   1      -4.952  74.182 114.147  0.00  0.00     0.109 C 
ATOM     16  O   LIG d   1      -3.804  76.205 113.525  0.00  0.00    -0.276 OA
ATOM     17  H   LIG d   1      -3.671  74.650 116.272  0.00  0.00     0.149 HD
ENDBRANCH   6  13
BRANCH   5  18
ATOM     18  N   LIG d   1      -0.421  75.307 115.371  0.00  0.00     0.381 N 
ATOM     19  H   LIG d   1      -0.245  74.341 115.562  0.00  0.00    -0.090 HD
ATOM     20  H   LIG d   1       0.462  75.776 115.273  0.00  0.00    -0.090 HD
ATOM     21  H   LIG d   1      -0.948  75.397 114.531  0.00  0.00    -0.090 HD
ENDBRANCH   5  18
BRANCH   3  22
ATOM     22  C   LIG d   1      -0.185  78.404 119.017  0.00  0.00     0.382 C 
ATOM     23  O   LIG d   1       0.043  79.637 118.966  0.00  0.00    -0.241 OA
ATOM     24  O   LIG d   1       0.326  77.723 119.925  0.00  0.00    -0.241 OA
ENDBRANCH   3  22
TORSDOF 7
ENDMDL
MODEL 2
REMARK VINA RESULT:      -5.0      2.638      5.536
REMARK  7 active torsions:
REMARK  status: ('A' for Active; 'I' for Inactive)
REMARK    1  A    between atoms: C_2  and  C_3 
REMARK    2  A    between atoms: C_3  and  O_6 
REMARK    3  A    between atoms: C_3  and  C_4 
REMARK    4  A    between atoms: C_7  and  O_6 
REMARK    5  A    between atoms: C_9  and  C_10 
REMARK    6  A    between atoms: N_15  and  C_14 
REMARK    7  A    between atoms: N_20  and  C_19 
REMARK       I    between atoms: C_22  and  N_20 
ROOT
ATOM      1  C   LIG d   1      -4.905  77.571 117.363  0.00  0.00     0.161 C 
ATOM      2  C   LIG d   1      -6.172  78.169 117.257  0.00  0.00     0.016 C 
ATOM      3  C   LIG d   1      -6.538  79.345 117.951  0.00  0.00     0.038 C 
ATOM      4  C   LIG d   1      -5.606  80.092 118.687  0.00  0.00     0.028 C 
ATOM      5  C   LIG d   1      -4.452  79.256 119.230  0.00  0.00    -0.047 C 
ATOM      6  C   LIG d   1      -3.840  78.434 118.073  0.00  0.00     0.091 C 
ENDROOT
BRANCH   1   7
ATOM      7  O   LIG d   1      -4.440  77.176 116.057  0.00  0.00    -0.368 OA
BRANCH   7   8
ATOM      8  C   LIG d   1      -4.287  75.752 115.839  0.00  0.00     0.119 C 
BRANCH   8   9
ATOM      9  C   LIG d   1      -3.060  75.553 114.927  0.00  0.00     0.028 C 
ATOM     10  C   LIG d   1      -2.763  76.791 114.064  0.00  0.00     0.006 C 
ENDBRANCH   8   9
BRANCH   8  11
ATOM     11  C   LIG d   1      -5.471  75.178 115.056  0.00  0.00     0.028 C 
ATOM     12  C   LIG d   1      -6.490  74.462 115.957  0.00  0.00     0.006 C 
ENDBRANCH   8  11
ENDBRANCH   7   8
ENDBRANCH   1   7
BRANCH   6  13
ATOM     13  N   LIG d   1      -2.759  77.524 118.534  0.00  0.00    -0.311 N 
ATOM     14  C   LIG d   1      -1.582  77.414 117.921  0.00  0.00     0.210 C 
ATOM     15  C   LIG d   1      -0.617  76.404 118.549  0.00  0.00     0.109 C 
ATOM     16  O   LIG d   1      -1.233  78.081 116.935  0.00  0.00    -0.276 OA
ATOM     17  H   LIG d   1      -2.945  76.969 119.346  0.00  0.00     0.149 HD
ENDBRANCH   6  13
BRANCH   5  18
ATOM     18  N   LIG d   1      -3.488  80.181 119.855  0.00  0.00     0.381 N 
ATOM     19  H   LIG d   1      -3.655  80.229 120.841  0.00  0.00    -0.090 HD
ATOM     20  H   LIG d   1      -3.619  81.099 119.468  0.00  0.00    -0.090 HD
ATOM     21  H   LIG d   1      -2.557  79.870 119.684  0.00  0.00    -0.090 HD
ENDBRANCH   5  18
BRANCH   3  22
ATOM     22  C   LIG d   1      -7.860  79.762 117.946  0.00  0.00     0.382 C 
ATOM     23  O   LIG d   1      -8.192  80.784 117.299  0.00  0.00    -0.241 OA
ATOM     24  O   LIG d   1      -8.717  79.155 118.616  0.00  0.00    -0.241 OA
ENDBRANCH   3  22
TORSDOF 7
ENDMDL
MODEL 3
REMARK VINA RESULT:      -4.9      2.416      3.276
REMARK  7 active torsions:
REMARK  status: ('A' for Active; 'I' for Inactive)
REMARK    1  A    between atoms: C_2  and  C_3 
REMARK    2  A    between atoms: C_3  and  O_6 
REMARK    3  A    between atoms: C_3  and  C_4 
REMARK    4  A    between atoms: C_7  and  O_6 
REMARK    5  A    between atoms: C_9  and  C_10 
REMARK    6  A    between atoms: N_15  and  C_14 
REMARK    7  A    between atoms: N_20  and  C_19 
REMARK       I    between atoms: C_22  and  N_20 
ROOT
ATOM      1  C   LIG d   1      -1.966  75.566 115.058  0.00  0.00     0.161 C 
ATOM      2  C   LIG d   1      -1.642  75.214 116.379  0.00  0.00     0.016 C 
ATOM      3  C   LIG d   1      -0.818  76.002 117.215  0.00  0.00     0.038 C 
ATOM      4  C   LIG d   1      -0.382  77.280 116.834  0.00  0.00     0.028 C 
ATOM      5  C   LIG d   1      -0.266  77.455 115.323  0.00  0.00    -0.047 C 
ATOM      6  C   LIG d   1      -1.591  77.010 114.663  0.00  0.00     0.091 C 
ENDROOT
BRANCH   1   7
ATOM      7  O   LIG d   1      -3.368  75.329 114.819  0.00  0.00    -0.368 OA
BRANCH   7   8
ATOM      8  C   LIG d   1      -4.214  75.277 115.994  0.00  0.00     0.119 C 
BRANCH   8   9
ATOM      9  C   LIG d   1      -5.270  74.180 115.755  0.00  0.00     0.028 C 
ATOM     10  C   LIG d   1      -6.699  74.666 116.051  0.00  0.00     0.006 C 
ENDBRANCH   8   9
BRANCH   8  11
ATOM     11  C   LIG d   1      -5.010  76.574 116.166  0.00  0.00     0.028 C 
ATOM     12  C   LIG d   1      -4.448  77.474 117.278  0.00  0.00     0.006 C 
ENDBRANCH   8  11
ENDBRANCH   7   8
ENDBRANCH   1   7
BRANCH   6  13
ATOM     13  N   LIG d   1      -1.533  77.069 113.179  0.00  0.00    -0.311 N 
ATOM     14  C   LIG d   1      -2.029  78.079 112.466  0.00  0.00     0.210 C 
ATOM     15  C   LIG d   1      -1.882  77.932 110.949  0.00  0.00     0.109 C 
ATOM     16  O   LIG d   1      -2.547  79.098 112.948  0.00  0.00    -0.276 OA
ATOM     17  H   LIG d   1      -1.101  76.298 112.708  0.00  0.00     0.149 HD
ENDBRANCH   6  13
BRANCH   5  18
ATOM     18  N   LIG d   1       0.063  78.869 115.062  0.00  0.00     0.381 N 
ATOM     19  H   LIG d   1      -0.541  79.461 115.596  0.00  0.00    -0.090 HD
ATOM     20  H   LIG d   1      -0.085  79.063 114.088  0.00  0.00    -0.090 HD
ATOM     21  H   LIG d   1       1.013  79.048 115.303  0.00  0.00    -0.090 HD
ENDBRANCH   5  18
BRANCH   3  22
ATOM     22  C   LIG d   1      -0.389  75.496 118.432  0.00  0.00     0.382 C 
ATOM     23  O   LIG d   1      -0.788  76.014 119.502  0.00  0.00    -0.241 OA
ATOM     24  O   LIG d   1       0.428  74.556 118.473  0.00  0.00    -0.241 OA
ENDBRANCH   3  22
TORSDOF 7
ENDMDL
MODEL 4
REMARK VINA RESULT:      -4.9      2.218      4.402
REMARK  7 active torsions:
REMARK  status: ('A' for Active; 'I' for Inactive)
REMARK    1  A    between atoms: C_2  and  C_3 
REMARK    2  A    between atoms: C_3  and  O_6 
REMARK    3  A    between atoms: C_3  and  C_4 
REMARK    4  A    between atoms: C_7  and  O_6 
REMARK    5  A    between atoms: C_9  and  C_10 
REMARK    6  A    between atoms: N_15  and  C_14 
REMARK    7  A    between atoms: N_20  and  C_19 
REMARK       I    between atoms: C_22  and  N_20 
ROOT
ATOM      1  C   LIG d   1      -2.387  76.941 116.411  0.00  0.00     0.161 C 
ATOM      2  C   LIG d   1      -2.666  77.923 115.445  0.00  0.00     0.016 C 
ATOM      3  C   LIG d   1      -2.013  77.990 114.193  0.00  0.00     0.038 C 
ATOM      4  C   LIG d   1      -1.139  76.983 113.758  0.00  0.00     0.028 C 
ATOM      5  C   LIG d   1      -0.448  76.245 114.900  0.00  0.00    -0.047 C 
ATOM      6  C   LIG d   1      -1.517  75.770 115.910  0.00  0.00     0.091 C 
ENDROOT
BRANCH   1   7
ATOM      7  O   LIG d   1      -3.619  76.446 116.973  0.00  0.00    -0.368 OA
BRANCH   7   8
ATOM      8  C   LIG d   1      -4.783  76.512 116.114  0.00  0.00     0.119 C 
BRANCH   8   9
ATOM      9  C   LIG d   1      -5.975  76.956 116.984  0.00  0.00     0.028 C 
ATOM     10  C   LIG d   1      -5.890  78.439 117.383  0.00  0.00     0.006 C 
ENDBRANCH   8   9
BRANCH   8  11
ATOM     11  C   LIG d   1      -5.163  75.126 115.583  0.00  0.00     0.028 C 
ATOM     12  C   LIG d   1      -4.921  74.980 114.073  0.00  0.00     0.006 C 
ENDBRANCH   8  11
ENDBRANCH   7   8
ENDBRANCH   1   7
BRANCH   6  13
ATOM     13  N   LIG d   1      -0.919  75.112 117.101  0.00  0.00    -0.311 N 
ATOM     14  C   LIG d   1      -0.077  75.725 117.931  0.00  0.00     0.210 C 
ATOM     15  C   LIG d   1       0.438  74.859 119.085  0.00  0.00     0.109 C 
ATOM     16  O   LIG d   1       0.267  76.913 117.840  0.00  0.00    -0.276 OA
ATOM     17  H   LIG d   1      -1.169  74.157 117.268  0.00  0.00     0.149 HD
ENDBRANCH   6  13
BRANCH   5  18
ATOM     18  N   LIG d   1       0.325  75.136 114.311  0.00  0.00     0.381 N 
ATOM     19  H   LIG d   1       1.130  75.497 113.838  0.00  0.00    -0.090 HD
ATOM     20  H   LIG d   1      -0.249  74.661 113.637  0.00  0.00    -0.090 HD
ATOM     21  H   LIG d   1       0.608  74.500 115.025  0.00  0.00    -0.090 HD
ENDBRANCH   5  18
BRANCH   3  22
ATOM     22  C   LIG d   1      -2.202  79.095 113.377  0.00  0.00     0.382 C 
ATOM     23  O   LIG d   1      -3.010  79.036 112.419  0.00  0.00    -0.241 OA
ATOM     24  O   LIG d   1      -1.543  80.136 113.561  0.00  0.00    -0.241 OA
ENDBRANCH   3  22
TORSDOF 7
ENDMDL
MODEL 5
REMARK VINA RESULT:      -4.8      2.393      4.099
REMARK  7 active torsions:
REMARK  status: ('A' for Active; 'I' for Inactive)
REMARK    1  A    between atoms: C_2  and  C_3 
REMARK    2  A    between atoms: C_3  and  O_6 
REMARK    3  A    between atoms: C_3  and  C_4 
REMARK    4  A    between atoms: C_7  and  O_6 
REMARK    5  A    between atoms: C_9  and  C_10 
REMARK    6  A    between atoms: N_15  and  C_14 
REMARK    7  A    between atoms: N_20  and  C_19 
REMARK       I    between atoms: C_22  and  N_20 
ROOT
ATOM      1  C   LIG d   1      -3.849  77.419 116.207  0.00  0.00     0.161 C 
ATOM      2  C   LIG d   1      -2.606  76.765 116.191  0.00  0.00     0.016 C 
ATOM      3  C   LIG d   1      -1.697  76.794 117.273  0.00  0.00     0.038 C 
ATOM      4  C   LIG d   1      -2.037  77.358 118.512  0.00  0.00     0.028 C 
ATOM      5  C   LIG d   1      -3.080  78.465 118.408  0.00  0.00    -0.047 C 
ATOM      6  C   LIG d   1      -4.285  77.945 117.591  0.00  0.00     0.091 C 
ENDROOT
BRANCH   1   7
ATOM      7  O   LIG d   1      -4.864  76.554 115.658  0.00  0.00    -0.368 OA
BRANCH   7   8
ATOM      8  C   LIG d   1      -5.151  75.351 116.412  0.00  0.00     0.119 C 
BRANCH   8   9
ATOM      9  C   LIG d   1      -5.208  74.180 115.411  0.00  0.00     0.028 C 
ATOM     10  C   LIG d   1      -4.823  74.609 113.985  0.00  0.00     0.006 C 
ENDBRANCH   8   9
BRANCH   8  11
ATOM     11  C   LIG d   1      -6.544  75.410 117.046  0.00  0.00     0.028 C 
ATOM     12  C   LIG d   1      -7.623  75.905 116.070  0.00  0.00     0.006 C 
ENDBRANCH   8  11
ENDBRANCH   7   8
ENDBRANCH   1   7
BRANCH   6  13
ATOM     13  N   LIG d   1      -5.315  78.994 117.369  0.00  0.00    -0.311 N 
ATOM     14  C   LIG d   1      -6.391  79.139 118.141  0.00  0.00     0.210 C 
ATOM     15  C   LIG d   1      -7.336  80.271 117.725  0.00  0.00     0.109 C 
ATOM     16  O   LIG d   1      -6.635  78.459 119.149  0.00  0.00    -0.276 OA
ATOM     17  H   LIG d   1      -5.179  79.610 116.592  0.00  0.00     0.149 HD
ENDBRANCH   6  13
BRANCH   5  18
ATOM     18  N   LIG d   1      -3.442  78.867 119.780  0.00  0.00     0.381 N 
ATOM     19  H   LIG d   1      -4.065  78.193 120.177  0.00  0.00    -0.090 HD
ATOM     20  H   LIG d   1      -3.916  79.753 119.745  0.00  0.00    -0.090 HD
ATOM     21  H   LIG d   1      -2.622  78.943 120.341  0.00  0.00    -0.090 HD
ENDBRANCH   5  18
BRANCH   3  22
ATOM     22  C   LIG d   1      -0.416  76.289 117.109  0.00  0.00     0.382 C 
ATOM     23  O   LIG d   1       0.438  76.945 116.465  0.00  0.00    -0.241 OA
ATOM     24  O   LIG d   1      -0.117  75.167 117.558  0.00  0.00    -0.241 OA
ENDBRANCH   3  22
TORSDOF 7
ENDMDL
MODEL 6
REMARK VINA RESULT:      -4.6      1.301      1.958
REMARK  7 active torsions:
REMARK  status: ('A' for Active; 'I' for Inactive)
REMARK    1  A    between atoms: C_2  and  C_3 
REMARK    2  A    between atoms: C_3  and  O_6 
REMARK    3  A    between atoms: C_3  and  C_4 
REMARK    4  A    between atoms: C_7  and  O_6 
REMARK    5  A    between atoms: C_9  and  C_10 
REMARK    6  A    between atoms: N_15  and  C_14 
REMARK    7  A    between atoms: N_20  and  C_19 
REMARK       I    between atoms: C_22  and  N_20 
ROOT
ATOM      1  C   LIG d   1      -4.014  77.708 117.537  0.00  0.00     0.161 C 
ATOM      2  C   LIG d   1      -2.939  78.407 118.111  0.00  0.00     0.016 C 
ATOM      3  C   LIG d   1      -1.588  78.024 117.949  0.00  0.00     0.038 C 
ATOM      4  C   LIG d   1      -1.208  76.997 117.072  0.00  0.00     0.028 C 
ATOM      5  C   LIG d   1      -2.291  75.944 116.867  0.00  0.00    -0.047 C 
ATOM      6  C   LIG d   1      -3.612  76.651 116.487  0.00  0.00     0.091 C 
ENDROOT
BRANCH   1   7
ATOM      7  O   LIG d   1      -4.958  78.640 116.974  0.00  0.00    -0.368 OA
BRANCH   7   8
ATOM      8  C   LIG d   1      -6.307  78.578 117.499  0.00  0.00     0.119 C 
BRANCH   8   9
ATOM      9  C   LIG d   1      -6.743  80.019 117.826  0.00  0.00     0.028 C 
ATOM     10  C   LIG d   1      -6.200  80.504 119.181  0.00  0.00     0.006 C 
ENDBRANCH   8   9
BRANCH   8  11
ATOM     11  C   LIG d   1      -6.351  77.829 118.834  0.00  0.00     0.028 C 
ATOM     12  C   LIG d   1      -7.320  76.636 118.817  0.00  0.00     0.006 C 
ENDBRANCH   8  11
ENDBRANCH   7   8
ENDBRANCH   1   7
BRANCH   6  13
ATOM     13  N   LIG d   1      -4.746  75.700 116.350  0.00  0.00    -0.311 N 
ATOM     14  C   LIG d   1      -5.414  75.514 115.213  0.00  0.00     0.210 C 
ATOM     15  C   LIG d   1      -6.560  74.501 115.294  0.00  0.00     0.109 C 
ATOM     16  O   LIG d   1      -5.145  76.068 114.136  0.00  0.00    -0.276 OA
ATOM     17  H   LIG d   1      -5.011  75.185 117.167  0.00  0.00     0.149 HD
ENDBRANCH   6  13
BRANCH   5  18
ATOM     18  N   LIG d   1      -1.815  75.012 115.828  0.00  0.00     0.381 N 
ATOM     19  H   LIG d   1      -0.920  75.306 115.493  0.00  0.00    -0.090 HD
ATOM     20  H   LIG d   1      -2.461  75.026 115.058  0.00  0.00    -0.090 HD
ATOM     21  H   LIG d   1      -1.752  74.090 116.200  0.00  0.00    -0.090 HD
ENDBRANCH   5  18
BRANCH   3  22
ATOM     22  C   LIG d   1      -0.603  78.646 118.701  0.00  0.00     0.382 C 
ATOM     23  O   LIG d   1      -0.774  78.831 119.930  0.00  0.00    -0.241 OA
ATOM     24  O   LIG d   1       0.437  79.065 118.157  0.00  0.00    -0.241 OA
ENDBRANCH   3  22
TORSDOF 7
ENDMDL
MODEL 7
REMARK VINA RESULT:      -4.4      2.372      5.163
REMARK  7 active torsions:
REMARK  status: ('A' for Active; 'I' for Inactive)
REMARK    1  A    between atoms: C_2  and  C_3 
REMARK    2  A    between atoms: C_3  and  O_6 
REMARK    3  A    between atoms: C_3  and  C_4 
REMARK    4  A    between atoms: C_7  and  O_6 
REMARK    5  A    between atoms: C_9  and  C_10 
REMARK    6  A    between atoms: N_15  and  C_14 
REMARK    7  A    between atoms: N_20  and  C_19 
REMARK       I    between atoms: C_22  and  N_20 
ROOT
ATOM      1  C   LIG d   1      -4.648  77.562 117.395  0.00  0.00     0.161 C 
ATOM      2  C   LIG d   1      -5.858  77.637 118.105  0.00  0.00     0.016 C 
ATOM      3  C   LIG d   1      -7.019  76.917 117.742  0.00  0.00     0.038 C 
ATOM      4  C   LIG d   1      -7.005  75.950 116.726  0.00  0.00     0.028 C 
ATOM      5  C   LIG d   1      -5.946  76.208 115.659  0.00  0.00    -0.047 C 
ATOM      6  C   LIG d   1      -4.581  76.428 116.350  0.00  0.00     0.091 C 
ENDROOT
BRANCH   1   7
ATOM      7  O   LIG d   1      -3.546  77.459 118.318  0.00  0.00    -0.368 OA
BRANCH   7   8
ATOM      8  C   LIG d   1      -2.809  78.681 118.569  0.00  0.00     0.119 C 
BRANCH   8   9
ATOM      9  C   LIG d   1      -1.317  78.309 118.674  0.00  0.00     0.028 C 
ATOM     10  C   LIG d   1      -1.077  76.798 118.515  0.00  0.00     0.006 C 
ENDBRANCH   8   9
BRANCH   8  11
ATOM     11  C   LIG d   1      -3.174  79.282 119.930  0.00  0.00     0.028 C 
ATOM     12  C   LIG d   1      -4.091  80.509 119.813  0.00  0.00     0.006 C 
ENDBRANCH   8  11
ENDBRANCH   7   8
ENDBRANCH   1   7
BRANCH   6  13
ATOM     13  N   LIG d   1      -3.505  76.770 115.384  0.00  0.00    -0.311 N 
ATOM     14  C   LIG d   1      -2.420  76.020 115.199  0.00  0.00     0.210 C 
ATOM     15  C   LIG d   1      -1.425  76.565 114.169  0.00  0.00     0.109 C 
ATOM     16  O   LIG d   1      -2.203  74.939 115.766  0.00  0.00    -0.276 OA
ATOM     17  H   LIG d   1      -3.616  77.615 114.859  0.00  0.00     0.149 HD
ENDBRANCH   6  13
BRANCH   5  18
ATOM     18  N   LIG d   1      -5.949  75.055 114.740  0.00  0.00     0.381 N 
ATOM     19  H   LIG d   1      -5.031  74.916 114.367  0.00  0.00    -0.090 HD
ATOM     20  H   LIG d   1      -6.574  75.249 113.977  0.00  0.00    -0.090 HD
ATOM     21  H   LIG d   1      -6.247  74.235 115.222  0.00  0.00    -0.090 HD
ENDBRANCH   5  18
BRANCH   3  22
ATOM     22  C   LIG d   1      -8.223  77.191 118.374  0.00  0.00     0.382 C 
ATOM     23  O   LIG d   1      -9.089  77.890 117.795  0.00  0.00    -0.241 OA
ATOM     24  O   LIG d   1      -8.436  76.784 119.532  0.00  0.00    -0.241 OA
ENDBRANCH   3  22
TORSDOF 7
ENDMDL
MODEL 8
REMARK VINA RESULT:      -4.2      2.171      5.117
REMARK  7 active torsions:
REMARK  status: ('A' for Active; 'I' for Inactive)
REMARK    1  A    between atoms: C_2  and  C_3 
REMARK    2  A    between atoms: C_3  and  O_6 
REMARK    3  A    between atoms: C_3  and  C_4 
REMARK    4  A    between atoms: C_7  and  O_6 
REMARK    5  A    between atoms: C_9  and  C_10 
REMARK    6  A    between atoms: N_15  and  C_14 
REMARK    7  A    between atoms: N_20  and  C_19 
REMARK       I    between atoms: C_22  and  N_20 
ROOT
ATOM      1  C   LIG d   1      -4.228  78.026 116.872  0.00  0.00     0.161 C 
ATOM      2  C   LIG d   1      -5.297  77.797 117.755  0.00  0.00     0.016 C 
ATOM      3  C   LIG d   1      -6.134  76.660 117.684  0.00  0.00     0.038 C 
ATOM      4  C   LIG d   1      -5.862  75.593 116.815  0.00  0.00     0.028 C 
ATOM      5  C   LIG d   1      -5.095  76.009 115.565  0.00  0.00    -0.047 C 
ATOM      6  C   LIG d   1      -3.848  76.820 115.989  0.00  0.00     0.091 C 
ENDROOT
BRANCH   1   7
ATOM      7  O   LIG d   1      -3.078  78.490 117.608  0.00  0.00    -0.368 OA
BRANCH   7   8
ATOM      8  C   LIG d   1      -2.401  77.501 118.422  0.00  0.00     0.119 C 
BRANCH   8   9
ATOM      9  C   LIG d   1      -2.244  78.095 119.836  0.00  0.00     0.028 C 
ATOM     10  C   LIG d   1      -2.711  79.558 119.913  0.00  0.00     0.006 C 
ENDBRANCH   8   9
BRANCH   8  11
ATOM     11  C   LIG d   1      -0.974  77.253 117.926  0.00  0.00     0.028 C 
ATOM     12  C   LIG d   1      -0.566  75.773 118.001  0.00  0.00     0.006 C 
ENDBRANCH   8  11
ENDBRANCH   7   8
ENDBRANCH   1   7
BRANCH   6  13
ATOM     13  N   LIG d   1      -3.086  77.338 114.823  0.00  0.00    -0.311 N 
ATOM     14  C   LIG d   1      -2.081  76.676 114.251  0.00  0.00     0.210 C 
ATOM     15  C   LIG d   1      -1.418  77.399 113.075  0.00  0.00     0.109 C 
ATOM     16  O   LIG d   1      -1.697  75.546 114.587  0.00  0.00    -0.276 OA
ATOM     17  H   LIG d   1      -3.352  78.235 114.466  0.00  0.00     0.149 HD
ENDBRANCH   6  13
BRANCH   5  18
ATOM     18  N   LIG d   1      -4.760  74.782 114.818  0.00  0.00     0.381 N 
ATOM     19  H   LIG d   1      -3.821  74.839 114.476  0.00  0.00    -0.090 HD
ATOM     20  H   LIG d   1      -5.378  74.702 114.030  0.00  0.00    -0.090 HD
ATOM     21  H   LIG d   1      -4.858  73.986 115.409  0.00  0.00    -0.090 HD
ENDBRANCH   5  18
BRANCH   3  22
ATOM     22  C   LIG d   1      -7.280  76.601 118.462  0.00  0.00     0.382 C 
ATOM     23  O   LIG d   1      -7.279  75.941 119.530  0.00  0.00    -0.241 OA
ATOM     24  O   LIG d   1      -8.327  77.162 118.089  0.00  0.00    -0.241 OA
ENDBRANCH   3  22
TORSDOF 7
ENDMDL
MODEL 9
REMARK VINA RESULT:      -4.1      2.445      4.056
REMARK  7 active torsions:
REMARK  status: ('A' for Active; 'I' for Inactive)
REMARK    1  A    between atoms: C_2  and  C_3 
REMARK    2  A    between atoms: C_3  and  O_6 
REMARK    3  A    between atoms: C_3  and  C_4 
REMARK    4  A    between atoms: C_7  and  O_6 
REMARK    5  A    between atoms: C_9  and  C_10 
REMARK    6  A    between atoms: N_15  and  C_14 
REMARK    7  A    between atoms: N_20  and  C_19 
REMARK       I    between atoms: C_22  and  N_20 
ROOT
ATOM      1  C   LIG d   1      -4.021  76.719 116.518  0.00  0.00     0.161 C 
ATOM      2  C   LIG d   1      -4.940  77.415 117.319  0.00  0.00     0.016 C 
ATOM      3  C   LIG d   1      -4.557  78.330 118.327  0.00  0.00     0.038 C 
ATOM      4  C   LIG d   1      -3.223  78.726 118.501  0.00  0.00     0.028 C 
ATOM      5  C   LIG d   1      -2.215  77.673 118.054  0.00  0.00    -0.047 C 
ATOM      6  C   LIG d   1      -2.565  77.221 116.617  0.00  0.00     0.091 C 
ENDROOT
BRANCH   1   7
ATOM      7  O   LIG d   1      -4.462  76.730 115.145  0.00  0.00    -0.368 OA
BRANCH   7   8
ATOM      8  C   LIG d   1      -4.820  75.445 114.580  0.00  0.00     0.119 C 
BRANCH   8   9
ATOM      9  C   LIG d   1      -6.238  75.578 113.992  0.00  0.00     0.028 C 
ATOM     10  C   LIG d   1      -6.253  76.359 112.667  0.00  0.00     0.006 C 
ENDBRANCH   8   9
BRANCH   8  11
ATOM     11  C   LIG d   1      -4.931  74.371 115.666  0.00  0.00     0.028 C 
ATOM     12  C   LIG d   1      -6.367  74.190 116.181  0.00  0.00     0.006 C 
ENDBRANCH   8  11
ENDBRANCH   7   8
ENDBRANCH   1   7
BRANCH   6  13
ATOM     13  N   LIG d   1      -1.679  76.131 116.134  0.00  0.00    -0.311 N 
ATOM     14  C   LIG d   1      -1.149  76.103 114.912  0.00  0.00     0.210 C 
ATOM     15  C   LIG d   1      -0.280  74.878 114.612  0.00  0.00     0.109 C 
ATOM     16  O   LIG d   1      -1.290  76.993 114.060  0.00  0.00    -0.276 OA
ATOM     17  H   LIG d   1      -1.486  75.383 116.772  0.00  0.00     0.149 HD
ENDBRANCH   6  13
BRANCH   5  18
ATOM     18  N   LIG d   1      -0.870  78.269 118.161  0.00  0.00     0.381 N 
ATOM     19  H   LIG d   1      -0.600  78.325 119.123  0.00  0.00    -0.090 HD
ATOM     20  H   LIG d   1      -0.897  79.200 117.786  0.00  0.00    -0.090 HD
ATOM     21  H   LIG d   1      -0.212  77.718 117.656  0.00  0.00    -0.090 HD
ENDBRANCH   5  18
BRANCH   3  22
ATOM     22  C   LIG d   1      -5.512  78.828 119.201  0.00  0.00     0.382 C 
ATOM     23  O   LIG d   1      -6.522  78.141 119.484  0.00  0.00    -0.241 OA
ATOM     24  O   LIG d   1      -5.397  79.974 119.675  0.00  0.00    -0.241 OA
ENDBRANCH   3  22
TORSDOF 7
ENDMDL
