MODEL 1
REMARK VINA RESULT:      -4.8      0.000      0.000
REMARK  7 active torsions:
REMARK  status: ('A' for Active; 'I' for Inactive)
REMARK    1  A    between atoms: C_2  and  C_3 
REMARK    2  A    between atoms: C_3  and  O_6 
REMARK    3  A    between atoms: C_3  and  C_4 
REMARK    4  A    between atoms: C_7  and  O_6 
REMARK    5  A    between atoms: C_9  and  C_10 
REMARK    6  A    between atoms: N_15  and  C_14 
REMARK    7  A    between atoms: N_20  and  C_19 
REMARK       I    between atoms: C_22  and  N_20 
ROOT
ATOM      1  C   LIG d   1      -2.808  78.410 115.785  0.00  0.00     0.161 C 
ATOM      2  C   LIG d   1      -3.030  79.563 115.014  0.00  0.00     0.016 C 
ATOM      3  C   LIG d   1      -2.479  79.756 113.726  0.00  0.00     0.038 C 
ATOM      4  C   LIG d   1      -1.788  78.735 113.055  0.00  0.00     0.028 C 
ATOM      5  C   LIG d   1      -1.112  77.743 113.995  0.00  0.00    -0.047 C 
ATOM      6  C   LIG d   1      -2.149  77.241 115.025  0.00  0.00     0.091 C 
ENDROOT
BRANCH   1   7
ATOM      7  O   LIG d   1      -4.045  77.982 116.389  0.00  0.00    -0.368 OA
BRANCH   7   8
ATOM      8  C   LIG d   1      -4.293  78.453 117.737  0.00  0.00     0.119 C 
BRANCH   8   9
ATOM      9  C   LIG d   1      -4.589  77.220 118.612  0.00  0.00     0.028 C 
ATOM     10  C   LIG d   1      -5.064  76.014 117.784  0.00  0.00     0.006 C 
ENDBRANCH   8   9
BRANCH   8  11
ATOM     11  C   LIG d   1      -5.560  79.311 117.802  0.00  0.00     0.028 C 
ATOM     12  C   LIG d   1      -5.259  80.818 117.829  0.00  0.00     0.006 C 
ENDBRANCH   8  11
ENDBRANCH   7   8
ENDBRANCH   1   7
BRANCH   6  13
ATOM     13  N   LIG d   1      -1.549  76.330 116.035  0.00  0.00    -0.311 N 
ATOM     14  C   LIG d   1      -1.871  75.041 116.142  0.00  0.00     0.210 C 
ATOM     15  C   LIG d   1      -1.150  74.287 117.264  0.00  0.00     0.109 C 
ATOM     16  O   LIG d   1      -2.660  74.445 115.395  0.00  0.00    -0.276 OA
ATOM     17  H   LIG d   1      -0.875  76.724 116.662  0.00  0.00     0.149 HD
ENDBRANCH   6  13
BRANCH   5  18
ATOM     18  N   LIG d   1      -0.547  76.660 113.168  0.00  0.00     0.381 N 
ATOM     19  H   LIG d   1       0.248  76.262 113.627  0.00  0.00    -0.090 HD
ATOM     20  H   LIG d   1      -0.244  77.045 112.290  0.00  0.00    -0.090 HD
ATOM     21  H   LIG d   1      -1.235  75.957 113.010  0.00  0.00    -0.090 HD
ENDBRANCH   5  18
BRANCH   3  22
ATOM     22  C   LIG d   1      -2.584  80.994 113.111  0.00  0.00     0.382 C 
ATOM     23  O   LIG d   1      -3.686  81.371 112.645  0.00  0.00    -0.241 OA
ATOM     24  O   LIG d   1      -1.581  81.720 112.978  0.00  0.00    -0.241 OA
ENDBRANCH   3  22
TORSDOF 7
ENDMDL
MODEL 2
REMARK VINA RESULT:      -4.6      1.610      2.111
REMARK  7 active torsions:
REMARK  status: ('A' for Active; 'I' for Inactive)
REMARK    1  A    between atoms: C_2  and  C_3 
REMARK    2  A    between atoms: C_3  and  O_6 
REMARK    3  A    between atoms: C_3  and  C_4 
REMARK    4  A    between atoms: C_7  and  O_6 
REMARK    5  A    between atoms: C_9  and  C_10 
REMARK    6  A    between atoms: N_15  and  C_14 
REMARK    7  A    between atoms: N_20  and  C_19 
REMARK       I    between atoms: C_22  and  N_20 
ROOT
ATOM      1  C   LIG d   1      -2.432  79.520 115.181  0.00  0.00     0.161 C 
ATOM      2  C   LIG d   1      -2.073  80.624 114.389  0.00  0.00     0.016 C 
ATOM      3  C   LIG d   1      -1.437  80.505 113.131  0.00  0.00     0.038 C 
ATOM      4  C   LIG d   1      -1.253  79.262 112.508  0.00  0.00     0.028 C 
ATOM      5  C   LIG d   1      -1.142  78.102 113.491  0.00  0.00    -0.047 C 
ATOM      6  C   LIG d   1      -2.339  78.155 114.468  0.00  0.00     0.091 C 
ENDROOT
BRANCH   1   7
ATOM      7  O   LIG d   1      -3.754  79.715 115.720  0.00  0.00    -0.368 OA
BRANCH   7   8
ATOM      8  C   LIG d   1      -3.836  80.489 116.942  0.00  0.00     0.119 C 
BRANCH   8   9
ATOM      9  C   LIG d   1      -2.791  79.920 117.921  0.00  0.00     0.028 C 
ATOM     10  C   LIG d   1      -1.939  81.021 118.576  0.00  0.00     0.006 C 
ENDBRANCH   8   9
BRANCH   8  11
ATOM     11  C   LIG d   1      -5.188  80.295 117.635  0.00  0.00     0.028 C 
ATOM     12  C   LIG d   1      -5.859  81.625 118.016  0.00  0.00     0.006 C 
ENDBRANCH   8  11
ENDBRANCH   7   8
ENDBRANCH   1   7
BRANCH   6  13
ATOM     13  N   LIG d   1      -2.263  77.104 115.516  0.00  0.00    -0.311 N 
ATOM     14  C   LIG d   1      -2.906  75.941 115.436  0.00  0.00     0.210 C 
ATOM     15  C   LIG d   1      -2.707  75.008 116.635  0.00  0.00     0.109 C 
ATOM     16  O   LIG d   1      -3.597  75.579 114.472  0.00  0.00    -0.276 OA
ATOM     17  H   LIG d   1      -1.699  77.302 116.320  0.00  0.00     0.149 HD
ENDBRANCH   6  13
BRANCH   5  18
ATOM     18  N   LIG d   1      -1.092  76.854 112.706  0.00  0.00     0.381 N 
ATOM     19  H   LIG d   1      -0.402  76.240 113.089  0.00  0.00    -0.090 HD
ATOM     20  H   LIG d   1      -0.827  77.075 111.762  0.00  0.00    -0.090 HD
ATOM     21  H   LIG d   1      -1.984  76.411 112.713  0.00  0.00    -0.090 HD
ENDBRANCH   5  18
BRANCH   3  22
ATOM     22  C   LIG d   1      -0.943  81.637 112.502  0.00  0.00     0.382 C 
ATOM     23  O   LIG d   1      -1.712  82.371 111.837  0.00  0.00    -0.241 OA
ATOM     24  O   LIG d   1       0.272  81.909 112.554  0.00  0.00    -0.241 OA
ENDBRANCH   3  22
TORSDOF 7
ENDMDL
MODEL 3
REMARK VINA RESULT:      -4.5      1.506      1.857
REMARK  7 active torsions:
REMARK  status: ('A' for Active; 'I' for Inactive)
REMARK    1  A    between atoms: C_2  and  C_3 
REMARK    2  A    between atoms: C_3  and  O_6 
REMARK    3  A    between atoms: C_3  and  C_4 
REMARK    4  A    between atoms: C_7  and  O_6 
REMARK    5  A    between atoms: C_9  and  C_10 
REMARK    6  A    between atoms: N_15  and  C_14 
REMARK    7  A    between atoms: N_20  and  C_19 
REMARK       I    between atoms: C_22  and  N_20 
ROOT
ATOM      1  C   LIG d   1      -2.414  79.315 116.271  0.00  0.00     0.161 C 
ATOM      2  C   LIG d   1      -2.806  80.220 115.270  0.00  0.00     0.016 C 
ATOM      3  C   LIG d   1      -2.512  80.040 113.899  0.00  0.00     0.038 C 
ATOM      4  C   LIG d   1      -1.933  78.857 113.414  0.00  0.00     0.028 C 
ATOM      5  C   LIG d   1      -1.067  78.140 114.445  0.00  0.00    -0.047 C 
ATOM      6  C   LIG d   1      -1.879  77.965 115.748  0.00  0.00     0.091 C 
ENDROOT
BRANCH   1   7
ATOM      7  O   LIG d   1      -3.504  79.100 117.189  0.00  0.00    -0.368 OA
BRANCH   7   8
ATOM      8  C   LIG d   1      -4.310  80.262 117.505  0.00  0.00     0.119 C 
BRANCH   8   9
ATOM      9  C   LIG d   1      -3.701  80.921 118.758  0.00  0.00     0.028 C 
ATOM     10  C   LIG d   1      -3.544  79.931 119.925  0.00  0.00     0.006 C 
ENDBRANCH   8   9
BRANCH   8  11
ATOM     11  C   LIG d   1      -5.732  79.861 117.909  0.00  0.00     0.028 C 
ATOM     12  C   LIG d   1      -6.666  81.070 118.078  0.00  0.00     0.006 C 
ENDBRANCH   8  11
ENDBRANCH   7   8
ENDBRANCH   1   7
BRANCH   6  13
ATOM     13  N   LIG d   1      -1.078  77.348 116.837  0.00  0.00    -0.311 N 
ATOM     14  C   LIG d   1      -1.057  76.038 117.079  0.00  0.00     0.210 C 
ATOM     15  C   LIG d   1      -0.180  75.614 118.261  0.00  0.00     0.109 C 
ATOM     16  O   LIG d   1      -1.655  75.185 116.407  0.00  0.00    -0.276 OA
ATOM     17  H   LIG d   1      -0.537  77.964 117.411  0.00  0.00     0.149 HD
ENDBRANCH   6  13
BRANCH   5  18
ATOM     18  N   LIG d   1      -0.640  76.859 113.853  0.00  0.00     0.381 N 
ATOM     19  H   LIG d   1      -0.779  76.118 114.512  0.00  0.00    -0.090 HD
ATOM     20  H   LIG d   1       0.341  76.910 113.639  0.00  0.00    -0.090 HD
ATOM     21  H   LIG d   1      -1.159  76.676 113.023  0.00  0.00    -0.090 HD
ENDBRANCH   5  18
BRANCH   3  22
ATOM     22  C   LIG d   1      -2.762  81.066 113.001  0.00  0.00     0.382 C 
ATOM     23  O   LIG d   1      -1.843  81.859 112.684  0.00  0.00    -0.241 OA
ATOM     24  O   LIG d   1      -3.906  81.237 112.539  0.00  0.00    -0.241 OA
ENDBRANCH   3  22
TORSDOF 7
ENDMDL
MODEL 4
REMARK VINA RESULT:      -4.4      3.108      5.582
REMARK  7 active torsions:
REMARK  status: ('A' for Active; 'I' for Inactive)
REMARK    1  A    between atoms: C_2  and  C_3 
REMARK    2  A    between atoms: C_3  and  O_6 
REMARK    3  A    between atoms: C_3  and  C_4 
REMARK    4  A    between atoms: C_7  and  O_6 
REMARK    5  A    between atoms: C_9  and  C_10 
REMARK    6  A    between atoms: N_15  and  C_14 
REMARK    7  A    between atoms: N_20  and  C_19 
REMARK       I    between atoms: C_22  and  N_20 
ROOT
ATOM      1  C   LIG d   1      -1.374  80.255 114.170  0.00  0.00     0.161 C 
ATOM      2  C   LIG d   1      -2.167  79.143 114.498  0.00  0.00     0.016 C 
ATOM      3  C   LIG d   1      -2.207  77.960 113.724  0.00  0.00     0.038 C 
ATOM      4  C   LIG d   1      -1.335  77.750 112.645  0.00  0.00     0.028 C 
ATOM      5  C   LIG d   1      -0.877  79.042 111.976  0.00  0.00    -0.047 C 
ATOM      6  C   LIG d   1      -0.333  80.002 113.059  0.00  0.00     0.091 C 
ENDROOT
BRANCH   1   7
ATOM      7  O   LIG d   1      -0.729  80.761 115.355  0.00  0.00    -0.368 OA
BRANCH   7   8
ATOM      8  C   LIG d   1      -0.862  79.951 116.549  0.00  0.00     0.119 C 
BRANCH   8   9
ATOM      9  C   LIG d   1      -1.060  80.909 117.739  0.00  0.00     0.028 C 
ATOM     10  C   LIG d   1       0.161  81.813 117.975  0.00  0.00     0.006 C 
ENDBRANCH   8   9
BRANCH   8  11
ATOM     11  C   LIG d   1       0.432  79.189 116.852  0.00  0.00     0.028 C 
ATOM     12  C   LIG d   1       0.225  77.668 116.923  0.00  0.00     0.006 C 
ENDBRANCH   8  11
ENDBRANCH   7   8
ENDBRANCH   1   7
BRANCH   6  13
ATOM     13  N   LIG d   1       0.058  81.322 112.501  0.00  0.00    -0.311 N 
ATOM     14  C   LIG d   1      -0.815  82.196 112.003  0.00  0.00     0.210 C 
ATOM     15  C   LIG d   1      -0.198  83.489 111.460  0.00  0.00     0.109 C 
ATOM     16  O   LIG d   1      -2.045  82.037 111.989  0.00  0.00    -0.276 OA
ATOM     17  H   LIG d   1       1.034  81.547 112.501  0.00  0.00     0.149 HD
ENDBRANCH   6  13
BRANCH   5  18
ATOM     18  N   LIG d   1       0.131  78.685 110.961  0.00  0.00     0.381 N 
ATOM     19  H   LIG d   1       0.773  78.017 111.341  0.00  0.00    -0.090 HD
ATOM     20  H   LIG d   1       0.647  79.510 110.710  0.00  0.00    -0.090 HD
ATOM     21  H   LIG d   1      -0.315  78.306 110.155  0.00  0.00    -0.090 HD
ENDBRANCH   5  18
BRANCH   3  22
ATOM     22  C   LIG d   1      -3.155  76.987 114.004  0.00  0.00     0.382 C 
ATOM     23  O   LIG d   1      -2.860  76.019 114.745  0.00  0.00    -0.241 OA
ATOM     24  O   LIG d   1      -4.288  77.042 113.489  0.00  0.00    -0.241 OA
ENDBRANCH   3  22
TORSDOF 7
ENDMDL
MODEL 5
REMARK VINA RESULT:      -4.4      4.206      7.417
REMARK  7 active torsions:
REMARK  status: ('A' for Active; 'I' for Inactive)
REMARK    1  A    between atoms: C_2  and  C_3 
REMARK    2  A    between atoms: C_3  and  O_6 
REMARK    3  A    between atoms: C_3  and  C_4 
REMARK    4  A    between atoms: C_7  and  O_6 
REMARK    5  A    between atoms: C_9  and  C_10 
REMARK    6  A    between atoms: N_15  and  C_14 
REMARK    7  A    between atoms: N_20  and  C_19 
REMARK       I    between atoms: C_22  and  N_20 
ROOT
ATOM      1  C   LIG d   1      -6.218  79.185 117.960  0.00  0.00     0.161 C 
ATOM      2  C   LIG d   1      -6.170  77.806 117.696  0.00  0.00     0.016 C 
ATOM      3  C   LIG d   1      -7.286  76.948 117.831  0.00  0.00     0.038 C 
ATOM      4  C   LIG d   1      -8.572  77.441 118.096  0.00  0.00     0.028 C 
ATOM      5  C   LIG d   1      -8.570  78.758 118.864  0.00  0.00    -0.047 C 
ATOM      6  C   LIG d   1      -7.639  79.759 118.142  0.00  0.00     0.091 C 
ENDROOT
BRANCH   1   7
ATOM      7  O   LIG d   1      -5.516  79.905 116.928  0.00  0.00    -0.368 OA
BRANCH   7   8
ATOM      8  C   LIG d   1      -4.260  80.514 117.318  0.00  0.00     0.119 C 
BRANCH   8   9
ATOM      9  C   LIG d   1      -3.126  79.641 116.747  0.00  0.00     0.028 C 
ATOM     10  C   LIG d   1      -2.703  80.078 115.334  0.00  0.00     0.006 C 
ENDBRANCH   8   9
BRANCH   8  11
ATOM     11  C   LIG d   1      -4.072  80.479 118.837  0.00  0.00     0.028 C 
ATOM     12  C   LIG d   1      -3.959  81.882 119.455  0.00  0.00     0.006 C 
ENDBRANCH   8  11
ENDBRANCH   7   8
ENDBRANCH   1   7
BRANCH   6  13
ATOM     13  N   LIG d   1      -7.514  81.046 118.874  0.00  0.00    -0.311 N 
ATOM     14  C   LIG d   1      -7.589  82.237 118.282  0.00  0.00     0.210 C 
ATOM     15  C   LIG d   1      -7.413  83.437 119.218  0.00  0.00     0.109 C 
ATOM     16  O   LIG d   1      -7.817  82.414 117.076  0.00  0.00    -0.276 OA
ATOM     17  H   LIG d   1      -7.359  80.996 119.862  0.00  0.00     0.149 HD
ENDBRANCH   6  13
BRANCH   5  18
ATOM     18  N   LIG d   1      -9.966  79.226 118.950  0.00  0.00     0.381 N 
ATOM     19  H   LIG d   1      -9.983  80.210 119.128  0.00  0.00    -0.090 HD
ATOM     20  H   LIG d   1     -10.419  78.759 119.717  0.00  0.00    -0.090 HD
ATOM     21  H   LIG d   1     -10.446  79.026 118.100  0.00  0.00    -0.090 HD
ENDBRANCH   5  18
BRANCH   3  22
ATOM     22  C   LIG d   1      -7.112  75.576 117.740  0.00  0.00     0.382 C 
ATOM     23  O   LIG d   1      -6.301  75.100 116.910  0.00  0.00    -0.241 OA
ATOM     24  O   LIG d   1      -7.788  74.805 118.447  0.00  0.00    -0.241 OA
ENDBRANCH   3  22
TORSDOF 7
ENDMDL
MODEL 6
REMARK VINA RESULT:      -4.3      2.166      2.984
REMARK  7 active torsions:
REMARK  status: ('A' for Active; 'I' for Inactive)
REMARK    1  A    between atoms: C_2  and  C_3 
REMARK    2  A    between atoms: C_3  and  O_6 
REMARK    3  A    between atoms: C_3  and  C_4 
REMARK    4  A    between atoms: C_7  and  O_6 
REMARK    5  A    between atoms: C_9  and  C_10 
REMARK    6  A    between atoms: N_15  and  C_14 
REMARK    7  A    between atoms: N_20  and  C_19 
REMARK       I    between atoms: C_22  and  N_20 
ROOT
ATOM      1  C   LIG d   1      -2.838  77.985 115.177  0.00  0.00     0.161 C 
ATOM      2  C   LIG d   1      -3.033  78.939 114.164  0.00  0.00     0.016 C 
ATOM      3  C   LIG d   1      -2.172  80.041 113.956  0.00  0.00     0.038 C 
ATOM      4  C   LIG d   1      -0.965  80.181 114.657  0.00  0.00     0.028 C 
ATOM      5  C   LIG d   1      -0.981  79.519 116.030  0.00  0.00    -0.047 C 
ATOM      6  C   LIG d   1      -1.465  78.059 115.878  0.00  0.00     0.091 C 
ENDROOT
BRANCH   1   7
ATOM      7  O   LIG d   1      -3.060  76.662 114.651  0.00  0.00    -0.368 OA
BRANCH   7   8
ATOM      8  C   LIG d   1      -4.373  76.095 114.886  0.00  0.00     0.119 C 
BRANCH   8   9
ATOM      9  C   LIG d   1      -4.930  76.737 116.172  0.00  0.00     0.028 C 
ATOM     10  C   LIG d   1      -6.436  76.480 116.350  0.00  0.00     0.006 C 
ENDBRANCH   8   9
BRANCH   8  11
ATOM     11  C   LIG d   1      -4.287  74.595 115.186  0.00  0.00     0.028 C 
ATOM     12  C   LIG d   1      -3.311  74.271 116.328  0.00  0.00     0.006 C 
ENDBRANCH   8  11
ENDBRANCH   7   8
ENDBRANCH   1   7
BRANCH   6  13
ATOM     13  N   LIG d   1      -1.591  77.365 117.186  0.00  0.00    -0.311 N 
ATOM     14  C   LIG d   1      -0.654  76.557 117.681  0.00  0.00     0.210 C 
ATOM     15  C   LIG d   1      -0.993  75.927 119.035  0.00  0.00     0.109 C 
ATOM     16  O   LIG d   1       0.439  76.329 117.141  0.00  0.00    -0.276 OA
ATOM     17  H   LIG d   1      -2.433  77.519 117.706  0.00  0.00     0.149 HD
ENDBRANCH   6  13
BRANCH   5  18
ATOM     18  N   LIG d   1       0.380  79.622 116.591  0.00  0.00     0.381 N 
ATOM     19  H   LIG d   1       0.392  79.251 117.520  0.00  0.00    -0.090 HD
ATOM     20  H   LIG d   1       0.641  80.591 116.635  0.00  0.00    -0.090 HD
ATOM     21  H   LIG d   1       1.023  79.122 116.017  0.00  0.00    -0.090 HD
ENDBRANCH   5  18
BRANCH   3  22
ATOM     22  C   LIG d   1      -2.537  81.040 113.067  0.00  0.00     0.382 C 
ATOM     23  O   LIG d   1      -3.726  81.128 112.676  0.00  0.00    -0.241 OA
ATOM     24  O   LIG d   1      -1.683  81.826 112.615  0.00  0.00    -0.241 OA
ENDBRANCH   3  22
TORSDOF 7
ENDMDL
MODEL 7
REMARK VINA RESULT:      -4.3      3.006      4.231
REMARK  7 active torsions:
REMARK  status: ('A' for Active; 'I' for Inactive)
REMARK    1  A    between atoms: C_2  and  C_3 
REMARK    2  A    between atoms: C_3  and  O_6 
REMARK    3  A    between atoms: C_3  and  C_4 
REMARK    4  A    between atoms: C_7  and  O_6 
REMARK    5  A    between atoms: C_9  and  C_10 
REMARK    6  A    between atoms: N_15  and  C_14 
REMARK    7  A    between atoms: N_20  and  C_19 
REMARK       I    between atoms: C_22  and  N_20 
ROOT
ATOM      1  C   LIG d   1      -5.299  77.336 117.434  0.00  0.00     0.161 C 
ATOM      2  C   LIG d   1      -5.934  78.547 117.757  0.00  0.00     0.016 C 
ATOM      3  C   LIG d   1      -5.303  79.808 117.652  0.00  0.00     0.038 C 
ATOM      4  C   LIG d   1      -4.036  79.957 117.070  0.00  0.00     0.028 C 
ATOM      5  C   LIG d   1      -3.161  78.715 117.197  0.00  0.00    -0.047 C 
ATOM      6  C   LIG d   1      -3.954  77.488 116.692  0.00  0.00     0.091 C 
ENDROOT
BRANCH   1   7
ATOM      7  O   LIG d   1      -6.196  76.500 116.677  0.00  0.00    -0.368 OA
BRANCH   7   8
ATOM      8  C   LIG d   1      -6.393  75.156 117.181  0.00  0.00     0.119 C 
BRANCH   8   9
ATOM      9  C   LIG d   1      -6.088  74.180 116.027  0.00  0.00     0.028 C 
ATOM     10  C   LIG d   1      -5.827  74.907 114.697  0.00  0.00     0.006 C 
ENDBRANCH   8   9
BRANCH   8  11
ATOM     11  C   LIG d   1      -7.859  74.906 117.545  0.00  0.00     0.028 C 
ATOM     12  C   LIG d   1      -8.773  76.088 117.183  0.00  0.00     0.006 C 
ENDBRANCH   8  11
ENDBRANCH   7   8
ENDBRANCH   1   7
BRANCH   6  13
ATOM     13  N   LIG d   1      -3.201  76.218 116.859  0.00  0.00    -0.311 N 
ATOM     14  C   LIG d   1      -2.524  75.632 115.874  0.00  0.00     0.210 C 
ATOM     15  C   LIG d   1      -1.835  74.318 116.255  0.00  0.00     0.109 C 
ATOM     16  O   LIG d   1      -2.402  76.091 114.728  0.00  0.00    -0.276 OA
ATOM     17  H   LIG d   1      -3.221  75.792 117.765  0.00  0.00     0.149 HD
ENDBRANCH   6  13
BRANCH   5  18
ATOM     18  N   LIG d   1      -1.925  78.960 116.430  0.00  0.00     0.381 N 
ATOM     19  H   LIG d   1      -1.503  79.815 116.731  0.00  0.00    -0.090 HD
ATOM     20  H   LIG d   1      -2.159  79.050 115.457  0.00  0.00    -0.090 HD
ATOM     21  H   LIG d   1      -1.288  78.204 116.558  0.00  0.00    -0.090 HD
ENDBRANCH   5  18
BRANCH   3  22
ATOM     22  C   LIG d   1      -5.927  80.933 118.170  0.00  0.00     0.382 C 
ATOM     23  O   LIG d   1      -7.174  81.049 118.095  0.00  0.00    -0.241 OA
ATOM     24  O   LIG d   1      -5.254  81.853 118.672  0.00  0.00    -0.241 OA
ENDBRANCH   3  22
TORSDOF 7
ENDMDL
MODEL 8
REMARK VINA RESULT:      -4.1      2.636      4.297
REMARK  7 active torsions:
REMARK  status: ('A' for Active; 'I' for Inactive)
REMARK    1  A    between atoms: C_2  and  C_3 
REMARK    2  A    between atoms: C_3  and  O_6 
REMARK    3  A    between atoms: C_3  and  C_4 
REMARK    4  A    between atoms: C_7  and  O_6 
REMARK    5  A    between atoms: C_9  and  C_10 
REMARK    6  A    between atoms: N_15  and  C_14 
REMARK    7  A    between atoms: N_20  and  C_19 
REMARK       I    between atoms: C_22  and  N_20 
ROOT
ATOM      1  C   LIG d   1      -2.983  78.171 115.108  0.00  0.00     0.161 C 
ATOM      2  C   LIG d   1      -2.668  77.692 113.825  0.00  0.00     0.016 C 
ATOM      3  C   LIG d   1      -1.610  78.207 113.041  0.00  0.00     0.038 C 
ATOM      4  C   LIG d   1      -0.695  79.140 113.551  0.00  0.00     0.028 C 
ATOM      5  C   LIG d   1      -1.276  80.017 114.655  0.00  0.00    -0.047 C 
ATOM      6  C   LIG d   1      -1.927  79.112 115.725  0.00  0.00     0.091 C 
ENDROOT
BRANCH   1   7
ATOM      7  O   LIG d   1      -3.246  77.063 115.992  0.00  0.00    -0.368 OA
BRANCH   7   8
ATOM      8  C   LIG d   1      -2.674  75.790 115.605  0.00  0.00     0.119 C 
BRANCH   8   9
ATOM      9  C   LIG d   1      -3.676  74.691 116.008  0.00  0.00     0.028 C 
ATOM     10  C   LIG d   1      -4.862  74.592 115.034  0.00  0.00     0.006 C 
ENDBRANCH   8   9
BRANCH   8  11
ATOM     11  C   LIG d   1      -1.399  75.487 116.398  0.00  0.00     0.028 C 
ATOM     12  C   LIG d   1      -0.119  75.738 115.587  0.00  0.00     0.006 C 
ENDBRANCH   8  11
ENDBRANCH   7   8
ENDBRANCH   1   7
BRANCH   6  13
ATOM     13  N   LIG d   1      -2.594  79.893 116.799  0.00  0.00    -0.311 N 
ATOM     14  C   LIG d   1      -1.984  80.258 117.926  0.00  0.00     0.210 C 
ATOM     15  C   LIG d   1      -2.859  81.041 118.910  0.00  0.00     0.109 C 
ATOM     16  O   LIG d   1      -0.793  80.035 118.190  0.00  0.00    -0.276 OA
ATOM     17  H   LIG d   1      -3.552  80.143 116.654  0.00  0.00     0.149 HD
ENDBRANCH   6  13
BRANCH   5  18
ATOM     18  N   LIG d   1      -0.179  80.846 115.189  0.00  0.00     0.381 N 
ATOM     19  H   LIG d   1      -0.517  81.411 115.942  0.00  0.00    -0.090 HD
ATOM     20  H   LIG d   1       0.152  81.455 114.462  0.00  0.00    -0.090 HD
ATOM     21  H   LIG d   1       0.564  80.264 115.509  0.00  0.00    -0.090 HD
ENDBRANCH   5  18
BRANCH   3  22
ATOM     22  C   LIG d   1      -1.484  77.817 111.716  0.00  0.00     0.382 C 
ATOM     23  O   LIG d   1      -1.384  78.684 110.815  0.00  0.00    -0.241 OA
ATOM     24  O   LIG d   1      -1.514  76.611 111.407  0.00  0.00    -0.241 OA
ENDBRANCH   3  22
TORSDOF 7
ENDMDL
MODEL 9
REMARK VINA RESULT:      -4.0      1.961      2.590
REMARK  7 active torsions:
REMARK  status: ('A' for Active; 'I' for Inactive)
REMARK    1  A    between atoms: C_2  and  C_3 
REMARK    2  A    between atoms: C_3  and  O_6 
REMARK    3  A    between atoms: C_3  and  C_4 
REMARK    4  A    between atoms: C_7  and  O_6 
REMARK    5  A    between atoms: C_9  and  C_10 
REMARK    6  A    between atoms: N_15  and  C_14 
REMARK    7  A    between atoms: N_20  and  C_19 
REMARK       I    between atoms: C_22  and  N_20 
ROOT
ATOM      1  C   LIG d   1      -1.126  79.431 116.178  0.00  0.00     0.161 C 
ATOM      2  C   LIG d   1      -1.572  80.409 115.273  0.00  0.00     0.016 C 
ATOM      3  C   LIG d   1      -2.403  80.123 114.165  0.00  0.00     0.038 C 
ATOM      4  C   LIG d   1      -2.972  78.855 113.973  0.00  0.00     0.028 C 
ATOM      5  C   LIG d   1      -2.146  77.723 114.574  0.00  0.00    -0.047 C 
ATOM      6  C   LIG d   1      -1.826  78.063 116.048  0.00  0.00     0.091 C 
ENDROOT
BRANCH   1   7
ATOM      7  O   LIG d   1      -1.239  79.927 117.527  0.00  0.00    -0.368 OA
BRANCH   7   8
ATOM      8  C   LIG d   1      -2.463  79.593 118.227  0.00  0.00     0.119 C 
BRANCH   8   9
ATOM      9  C   LIG d   1      -3.282  80.890 118.371  0.00  0.00     0.028 C 
ATOM     10  C   LIG d   1      -4.596  80.845 117.572  0.00  0.00     0.006 C 
ENDBRANCH   8   9
BRANCH   8  11
ATOM     11  C   LIG d   1      -2.176  79.133 119.660  0.00  0.00     0.028 C 
ATOM     12  C   LIG d   1      -0.691  78.821 119.900  0.00  0.00     0.006 C 
ENDBRANCH   8  11
ENDBRANCH   7   8
ENDBRANCH   1   7
BRANCH   6  13
ATOM     13  N   LIG d   1      -0.950  77.047 116.687  0.00  0.00    -0.311 N 
ATOM     14  C   LIG d   1      -1.411  76.054 117.446  0.00  0.00     0.210 C 
ATOM     15  C   LIG d   1      -0.335  75.129 118.024  0.00  0.00     0.109 C 
ATOM     16  O   LIG d   1      -2.610  75.833 117.670  0.00  0.00    -0.276 OA
ATOM     17  H   LIG d   1       0.036  77.132 116.532  0.00  0.00     0.149 HD
ENDBRANCH   6  13
BRANCH   5  18
ATOM     18  N   LIG d   1      -2.920  76.477 114.423  0.00  0.00     0.381 N 
ATOM     19  H   LIG d   1      -2.809  76.120 113.495  0.00  0.00    -0.090 HD
ATOM     20  H   LIG d   1      -3.894  76.680 114.568  0.00  0.00    -0.090 HD
ATOM     21  H   LIG d   1      -2.611  75.801 115.086  0.00  0.00    -0.090 HD
ENDBRANCH   5  18
BRANCH   3  22
ATOM     22  C   LIG d   1      -2.641  81.103 113.213  0.00  0.00     0.382 C 
ATOM     23  O   LIG d   1      -3.740  81.137 112.610  0.00  0.00    -0.241 OA
ATOM     24  O   LIG d   1      -1.753  81.925 112.918  0.00  0.00    -0.241 OA
ENDBRANCH   3  22
TORSDOF 7
ENDMDL
