MODEL 1
REMARK VINA RESULT:      -4.8      0.000      0.000
REMARK  7 active torsions:
REMARK  status: ('A' for Active; 'I' for Inactive)
REMARK    1  A    between atoms: C_2  and  C_3 
REMARK    2  A    between atoms: C_3  and  O_6 
REMARK    3  A    between atoms: C_3  and  C_4 
REMARK    4  A    between atoms: C_7  and  O_6 
REMARK    5  A    between atoms: C_9  and  C_10 
REMARK    6  A    between atoms: N_15  and  C_14 
REMARK    7  A    between atoms: N_20  and  C_19 
REMARK       I    between atoms: C_22  and  N_20 
ROOT
ATOM      1  C   LIG d   1      -3.240  77.290 114.482  0.00  0.00     0.161 C 
ATOM      2  C   LIG d   1      -3.353  78.320 113.533  0.00  0.00     0.016 C 
ATOM      3  C   LIG d   1      -2.304  79.218 113.231  0.00  0.00     0.038 C 
ATOM      4  C   LIG d   1      -1.012  79.051 113.751  0.00  0.00     0.028 C 
ATOM      5  C   LIG d   1      -0.989  78.331 115.096  0.00  0.00    -0.047 C 
ATOM      6  C   LIG d   1      -1.803  77.023 114.978  0.00  0.00     0.091 C 
ENDROOT
BRANCH   1   7
ATOM      7  O   LIG d   1      -3.823  76.079 113.960  0.00  0.00    -0.368 OA
BRANCH   7   8
ATOM      8  C   LIG d   1      -5.031  75.620 114.615  0.00  0.00     0.119 C 
BRANCH   8   9
ATOM      9  C   LIG d   1      -4.666  74.365 115.432  0.00  0.00     0.028 C 
ATOM     10  C   LIG d   1      -5.572  74.181 116.661  0.00  0.00     0.006 C 
ENDBRANCH   8   9
BRANCH   8  11
ATOM     11  C   LIG d   1      -6.073  75.151 113.596  0.00  0.00     0.028 C 
ATOM     12  C   LIG d   1      -7.373  75.970 113.653  0.00  0.00     0.006 C 
ENDBRANCH   8  11
ENDBRANCH   7   8
ENDBRANCH   1   7
BRANCH   6  13
ATOM     13  N   LIG d   1      -1.902  76.299 116.272  0.00  0.00    -0.311 N 
ATOM     14  C   LIG d   1      -1.408  75.078 116.469  0.00  0.00     0.210 C 
ATOM     15  C   LIG d   1      -1.636  74.506 117.871  0.00  0.00     0.109 C 
ATOM     16  O   LIG d   1      -0.773  74.427 115.625  0.00  0.00    -0.276 OA
ATOM     17  H   LIG d   1      -2.374  76.766 117.022  0.00  0.00     0.149 HD
ENDBRANCH   6  13
BRANCH   5  18
ATOM     18  N   LIG d   1       0.424  78.103 115.454  0.00  0.00     0.381 N 
ATOM     19  H   LIG d   1       1.007  78.275 114.660  0.00  0.00    -0.090 HD
ATOM     20  H   LIG d   1       0.538  77.143 115.728  0.00  0.00    -0.090 HD
ATOM     21  H   LIG d   1       0.686  78.703 116.205  0.00  0.00    -0.090 HD
ENDBRANCH   5  18
BRANCH   3  22
ATOM     22  C   LIG d   1      -2.554  80.322 112.429  0.00  0.00     0.382 C 
ATOM     23  O   LIG d   1      -1.709  80.678 111.573  0.00  0.00    -0.241 OA
ATOM     24  O   LIG d   1      -3.593  80.991 112.583  0.00  0.00    -0.241 OA
ENDBRANCH   3  22
TORSDOF 7
ENDMDL
MODEL 2
REMARK VINA RESULT:      -4.7      0.728      1.506
REMARK  7 active torsions:
REMARK  status: ('A' for Active; 'I' for Inactive)
REMARK    1  A    between atoms: C_2  and  C_3 
REMARK    2  A    between atoms: C_3  and  O_6 
REMARK    3  A    between atoms: C_3  and  C_4 
REMARK    4  A    between atoms: C_7  and  O_6 
REMARK    5  A    between atoms: C_9  and  C_10 
REMARK    6  A    between atoms: N_15  and  C_14 
REMARK    7  A    between atoms: N_20  and  C_19 
REMARK       I    between atoms: C_22  and  N_20 
ROOT
ATOM      1  C   LIG d   1      -3.143  76.890 114.810  0.00  0.00     0.161 C 
ATOM      2  C   LIG d   1      -3.267  77.864 113.805  0.00  0.00     0.016 C 
ATOM      3  C   LIG d   1      -2.255  78.805 113.505  0.00  0.00     0.038 C 
ATOM      4  C   LIG d   1      -0.983  78.738 114.092  0.00  0.00     0.028 C 
ATOM      5  C   LIG d   1      -0.986  78.088 115.472  0.00  0.00    -0.047 C 
ATOM      6  C   LIG d   1      -1.720  76.731 115.385  0.00  0.00     0.091 C 
ENDROOT
BRANCH   1   7
ATOM      7  O   LIG d   1      -3.632  75.623 114.326  0.00  0.00    -0.368 OA
BRANCH   7   8
ATOM      8  C   LIG d   1      -4.637  74.974 115.142  0.00  0.00     0.119 C 
BRANCH   8   9
ATOM      9  C   LIG d   1      -5.759  74.494 114.201  0.00  0.00     0.028 C 
ATOM     10  C   LIG d   1      -6.697  75.637 113.775  0.00  0.00     0.006 C 
ENDBRANCH   8   9
BRANCH   8  11
ATOM     11  C   LIG d   1      -5.306  75.967 116.097  0.00  0.00     0.028 C 
ATOM     12  C   LIG d   1      -5.553  75.376 117.494  0.00  0.00     0.006 C 
ENDBRANCH   8  11
ENDBRANCH   7   8
ENDBRANCH   1   7
BRANCH   6  13
ATOM     13  N   LIG d   1      -1.842  76.067 116.709  0.00  0.00    -0.311 N 
ATOM     14  C   LIG d   1      -1.329  74.868 116.978  0.00  0.00     0.210 C 
ATOM     15  C   LIG d   1      -1.586  74.358 118.399  0.00  0.00     0.109 C 
ATOM     16  O   LIG d   1      -0.657  74.192 116.184  0.00  0.00    -0.276 OA
ATOM     17  H   LIG d   1      -2.345  76.559 117.422  0.00  0.00     0.149 HD
ENDBRANCH   6  13
BRANCH   5  18
ATOM     18  N   LIG d   1       0.418  77.959 115.907  0.00  0.00     0.381 N 
ATOM     19  H   LIG d   1       0.480  77.307 116.663  0.00  0.00    -0.090 HD
ATOM     20  H   LIG d   1       0.740  78.853 116.234  0.00  0.00    -0.090 HD
ATOM     21  H   LIG d   1       0.984  77.653 115.146  0.00  0.00    -0.090 HD
ENDBRANCH   5  18
BRANCH   3  22
ATOM     22  C   LIG d   1      -2.526  79.851 112.637  0.00  0.00     0.382 C 
ATOM     23  O   LIG d   1      -1.706  80.144 111.733  0.00  0.00    -0.241 OA
ATOM     24  O   LIG d   1      -3.559  80.534 112.773  0.00  0.00    -0.241 OA
ENDBRANCH   3  22
TORSDOF 7
ENDMDL
MODEL 3
REMARK VINA RESULT:      -4.5      2.355      2.702
REMARK  7 active torsions:
REMARK  status: ('A' for Active; 'I' for Inactive)
REMARK    1  A    between atoms: C_2  and  C_3 
REMARK    2  A    between atoms: C_3  and  O_6 
REMARK    3  A    between atoms: C_3  and  C_4 
REMARK    4  A    between atoms: C_7  and  O_6 
REMARK    5  A    between atoms: C_9  and  C_10 
REMARK    6  A    between atoms: N_15  and  C_14 
REMARK    7  A    between atoms: N_20  and  C_19 
REMARK       I    between atoms: C_22  and  N_20 
ROOT
ATOM      1  C   LIG d   1      -3.196  78.305 115.593  0.00  0.00     0.161 C 
ATOM      2  C   LIG d   1      -3.267  79.398 114.713  0.00  0.00     0.016 C 
ATOM      3  C   LIG d   1      -2.576  79.450 113.480  0.00  0.00     0.038 C 
ATOM      4  C   LIG d   1      -1.883  78.342 112.971  0.00  0.00     0.028 C 
ATOM      5  C   LIG d   1      -1.368  77.400 114.055  0.00  0.00    -0.047 C 
ATOM      6  C   LIG d   1      -2.534  77.042 115.004  0.00  0.00     0.091 C 
ENDROOT
BRANCH   1   7
ATOM      7  O   LIG d   1      -4.512  77.994 116.093  0.00  0.00    -0.368 OA
BRANCH   7   8
ATOM      8  C   LIG d   1      -4.768  78.346 117.475  0.00  0.00     0.119 C 
BRANCH   8   9
ATOM      9  C   LIG d   1      -4.767  77.039 118.292  0.00  0.00     0.028 C 
ATOM     10  C   LIG d   1      -5.951  76.124 117.937  0.00  0.00     0.006 C 
ENDBRANCH   8   9
BRANCH   8  11
ATOM     11  C   LIG d   1      -6.172  78.932 117.649  0.00  0.00     0.028 C 
ATOM     12  C   LIG d   1      -6.190  80.467 117.573  0.00  0.00     0.006 C 
ENDBRANCH   8  11
ENDBRANCH   7   8
ENDBRANCH   1   7
BRANCH   6  13
ATOM     13  N   LIG d   1      -2.098  76.191 116.142  0.00  0.00    -0.311 N 
ATOM     14  C   LIG d   1      -2.193  74.863 116.143  0.00  0.00     0.210 C 
ATOM     15  C   LIG d   1      -1.704  74.180 117.424  0.00  0.00     0.109 C 
ATOM     16  O   LIG d   1      -2.607  74.183 115.192  0.00  0.00    -0.276 OA
ATOM     17  H   LIG d   1      -1.721  76.659 116.943  0.00  0.00     0.149 HD
ENDBRANCH   6  13
BRANCH   5  18
ATOM     18  N   LIG d   1      -0.787  76.222 113.382  0.00  0.00     0.381 N 
ATOM     19  H   LIG d   1      -1.211  76.102 112.484  0.00  0.00    -0.090 HD
ATOM     20  H   LIG d   1      -0.980  75.405 113.935  0.00  0.00    -0.090 HD
ATOM     21  H   LIG d   1       0.197  76.339 113.280  0.00  0.00    -0.090 HD
ENDBRANCH   5  18
BRANCH   3  22
ATOM     22  C   LIG d   1      -2.543  80.635 112.761  0.00  0.00     0.382 C 
ATOM     23  O   LIG d   1      -3.614  81.188 112.414  0.00  0.00    -0.241 OA
ATOM     24  O   LIG d   1      -1.454  81.134 112.417  0.00  0.00    -0.241 OA
ENDBRANCH   3  22
TORSDOF 7
ENDMDL
MODEL 4
REMARK VINA RESULT:      -4.3      3.514      4.300
REMARK  7 active torsions:
REMARK  status: ('A' for Active; 'I' for Inactive)
REMARK    1  A    between atoms: C_2  and  C_3 
REMARK    2  A    between atoms: C_3  and  O_6 
REMARK    3  A    between atoms: C_3  and  C_4 
REMARK    4  A    between atoms: C_7  and  O_6 
REMARK    5  A    between atoms: C_9  and  C_10 
REMARK    6  A    between atoms: N_15  and  C_14 
REMARK    7  A    between atoms: N_20  and  C_19 
REMARK       I    between atoms: C_22  and  N_20 
ROOT
ATOM      1  C   LIG d   1      -5.489  76.540 117.421  0.00  0.00     0.161 C 
ATOM      2  C   LIG d   1      -6.324  77.627 117.727  0.00  0.00     0.016 C 
ATOM      3  C   LIG d   1      -5.950  78.976 117.525  0.00  0.00     0.038 C 
ATOM      4  C   LIG d   1      -4.767  79.326 116.859  0.00  0.00     0.028 C 
ATOM      5  C   LIG d   1      -3.666  78.278 116.987  0.00  0.00    -0.047 C 
ATOM      6  C   LIG d   1      -4.239  76.898 116.590  0.00  0.00     0.091 C 
ENDROOT
BRANCH   1   7
ATOM      7  O   LIG d   1      -6.251  75.509 116.761  0.00  0.00    -0.368 OA
BRANCH   7   8
ATOM      8  C   LIG d   1      -7.260  75.963 115.826  0.00  0.00     0.119 C 
BRANCH   8   9
ATOM      9  C   LIG d   1      -8.540  75.147 116.095  0.00  0.00     0.028 C 
ATOM     10  C   LIG d   1      -9.400  75.756 117.215  0.00  0.00     0.006 C 
ENDBRANCH   8   9
BRANCH   8  11
ATOM     11  C   LIG d   1      -6.869  75.639 114.381  0.00  0.00     0.028 C 
ATOM     12  C   LIG d   1      -5.847  74.495 114.284  0.00  0.00     0.006 C 
ENDBRANCH   8  11
ENDBRANCH   7   8
ENDBRANCH   1   7
BRANCH   6  13
ATOM     13  N   LIG d   1      -3.251  75.802 116.768  0.00  0.00    -0.311 N 
ATOM     14  C   LIG d   1      -2.498  75.325 115.778  0.00  0.00     0.210 C 
ATOM     15  C   LIG d   1      -1.559  74.181 116.173  0.00  0.00     0.109 C 
ATOM     16  O   LIG d   1      -2.496  75.763 114.618  0.00  0.00    -0.276 OA
ATOM     17  H   LIG d   1      -3.166  75.409 117.685  0.00  0.00     0.149 HD
ENDBRANCH   6  13
BRANCH   5  18
ATOM     18  N   LIG d   1      -2.542  78.705 116.134  0.00  0.00     0.381 N 
ATOM     19  H   LIG d   1      -1.702  78.247 116.427  0.00  0.00    -0.090 HD
ATOM     20  H   LIG d   1      -2.414  79.696 116.237  0.00  0.00    -0.090 HD
ATOM     21  H   LIG d   1      -2.734  78.485 115.181  0.00  0.00    -0.090 HD
ENDBRANCH   5  18
BRANCH   3  22
ATOM     22  C   LIG d   1      -6.747  79.992 118.029  0.00  0.00     0.382 C 
ATOM     23  O   LIG d   1      -7.874  80.215 117.524  0.00  0.00    -0.241 OA
ATOM     24  O   LIG d   1      -6.336  80.718 118.954  0.00  0.00    -0.241 OA
ENDBRANCH   3  22
TORSDOF 7
ENDMDL
MODEL 5
REMARK VINA RESULT:      -4.2      2.090      2.286
REMARK  7 active torsions:
REMARK  status: ('A' for Active; 'I' for Inactive)
REMARK    1  A    between atoms: C_2  and  C_3 
REMARK    2  A    between atoms: C_3  and  O_6 
REMARK    3  A    between atoms: C_3  and  C_4 
REMARK    4  A    between atoms: C_7  and  O_6 
REMARK    5  A    between atoms: C_9  and  C_10 
REMARK    6  A    between atoms: N_15  and  C_14 
REMARK    7  A    between atoms: N_20  and  C_19 
REMARK       I    between atoms: C_22  and  N_20 
ROOT
ATOM      1  C   LIG d   1      -3.714  76.882 115.025  0.00  0.00     0.161 C 
ATOM      2  C   LIG d   1      -3.446  76.972 113.649  0.00  0.00     0.016 C 
ATOM      3  C   LIG d   1      -2.396  77.751 113.111  0.00  0.00     0.038 C 
ATOM      4  C   LIG d   1      -1.443  78.377 113.928  0.00  0.00     0.028 C 
ATOM      5  C   LIG d   1      -1.970  78.727 115.315  0.00  0.00    -0.047 C 
ATOM      6  C   LIG d   1      -2.617  77.469 115.938  0.00  0.00     0.091 C 
ENDROOT
BRANCH   1   7
ATOM      7  O   LIG d   1      -3.983  75.511 115.382  0.00  0.00    -0.368 OA
BRANCH   7   8
ATOM      8  C   LIG d   1      -5.305  75.236 115.907  0.00  0.00     0.119 C 
BRANCH   8   9
ATOM      9  C   LIG d   1      -5.151  74.181 117.020  0.00  0.00     0.028 C 
ATOM     10  C   LIG d   1      -5.312  74.783 118.426  0.00  0.00     0.006 C 
ENDBRANCH   8   9
BRANCH   8  11
ATOM     11  C   LIG d   1      -6.199  74.583 114.850  0.00  0.00     0.028 C 
ATOM     12  C   LIG d   1      -6.978  75.610 114.011  0.00  0.00     0.006 C 
ENDBRANCH   8  11
ENDBRANCH   7   8
ENDBRANCH   1   7
BRANCH   6  13
ATOM     13  N   LIG d   1      -3.234  77.745 117.262  0.00  0.00    -0.311 N 
ATOM     14  C   LIG d   1      -2.604  77.550 118.419  0.00  0.00     0.210 C 
ATOM     15  C   LIG d   1      -3.428  77.880 119.668  0.00  0.00     0.109 C 
ATOM     16  O   LIG d   1      -1.429  77.167 118.529  0.00  0.00    -0.276 OA
ATOM     17  H   LIG d   1      -4.175  78.088 117.264  0.00  0.00     0.149 HD
ENDBRANCH   6  13
BRANCH   5  18
ATOM     18  N   LIG d   1      -0.838  79.246 116.105  0.00  0.00     0.381 N 
ATOM     19  H   LIG d   1      -1.174  79.635 116.963  0.00  0.00    -0.090 HD
ATOM     20  H   LIG d   1      -0.385  79.976 115.583  0.00  0.00    -0.090 HD
ATOM     21  H   LIG d   1      -0.190  78.513 116.295  0.00  0.00    -0.090 HD
ENDBRANCH   5  18
BRANCH   3  22
ATOM     22  C   LIG d   1      -2.315  77.942 111.740  0.00  0.00     0.382 C 
ATOM     23  O   LIG d   1      -2.677  77.030 110.957  0.00  0.00    -0.241 OA
ATOM     24  O   LIG d   1      -1.844  78.997 111.276  0.00  0.00    -0.241 OA
ENDBRANCH   3  22
TORSDOF 7
ENDMDL
MODEL 6
REMARK VINA RESULT:      -4.1      3.932      4.683
REMARK  7 active torsions:
REMARK  status: ('A' for Active; 'I' for Inactive)
REMARK    1  A    between atoms: C_2  and  C_3 
REMARK    2  A    between atoms: C_3  and  O_6 
REMARK    3  A    between atoms: C_3  and  C_4 
REMARK    4  A    between atoms: C_7  and  O_6 
REMARK    5  A    between atoms: C_9  and  C_10 
REMARK    6  A    between atoms: N_15  and  C_14 
REMARK    7  A    between atoms: N_20  and  C_19 
REMARK       I    between atoms: C_22  and  N_20 
ROOT
ATOM      1  C   LIG d   1      -6.339  77.183 117.282  0.00  0.00     0.161 C 
ATOM      2  C   LIG d   1      -7.211  78.269 117.466  0.00  0.00     0.016 C 
ATOM      3  C   LIG d   1      -6.770  79.604 117.618  0.00  0.00     0.038 C 
ATOM      4  C   LIG d   1      -5.425  79.965 117.444  0.00  0.00     0.028 C 
ATOM      5  C   LIG d   1      -4.450  78.836 117.758  0.00  0.00    -0.047 C 
ATOM      6  C   LIG d   1      -4.877  77.572 116.978  0.00  0.00     0.091 C 
ENDROOT
BRANCH   1   7
ATOM      7  O   LIG d   1      -6.851  76.315 116.251  0.00  0.00    -0.368 OA
BRANCH   7   8
ATOM      8  C   LIG d   1      -6.821  74.896 116.540  0.00  0.00     0.119 C 
BRANCH   8   9
ATOM      9  C   LIG d   1      -6.036  74.209 115.406  0.00  0.00     0.028 C 
ATOM     10  C   LIG d   1      -6.115  74.987 114.082  0.00  0.00     0.006 C 
ENDBRANCH   8   9
BRANCH   8  11
ATOM     11  C   LIG d   1      -8.226  74.287 116.487  0.00  0.00     0.028 C 
ATOM     12  C   LIG d   1      -9.323  75.337 116.252  0.00  0.00     0.006 C 
ENDBRANCH   8  11
ENDBRANCH   7   8
ENDBRANCH   1   7
BRANCH   6  13
ATOM     13  N   LIG d   1      -4.025  76.396 117.293  0.00  0.00    -0.311 N 
ATOM     14  C   LIG d   1      -2.997  76.012 116.538  0.00  0.00     0.210 C 
ATOM     15  C   LIG d   1      -2.263  74.761 117.032  0.00  0.00     0.109 C 
ATOM     16  O   LIG d   1      -2.604  76.607 115.523  0.00  0.00    -0.276 OA
ATOM     17  H   LIG d   1      -4.254  75.873 118.116  0.00  0.00     0.149 HD
ENDBRANCH   6  13
BRANCH   5  18
ATOM     18  N   LIG d   1      -3.097  79.304 117.403  0.00  0.00     0.381 N 
ATOM     19  H   LIG d   1      -2.619  78.597 116.881  0.00  0.00    -0.090 HD
ATOM     20  H   LIG d   1      -2.580  79.476 118.248  0.00  0.00    -0.090 HD
ATOM     21  H   LIG d   1      -3.156  80.141 116.865  0.00  0.00    -0.090 HD
ENDBRANCH   5  18
BRANCH   3  22
ATOM     22  C   LIG d   1      -7.673  80.588 117.988  0.00  0.00     0.382 C 
ATOM     23  O   LIG d   1      -7.990  81.487 117.172  0.00  0.00    -0.241 OA
ATOM     24  O   LIG d   1      -8.142  80.615 119.142  0.00  0.00    -0.241 OA
ENDBRANCH   3  22
TORSDOF 7
ENDMDL
MODEL 7
REMARK VINA RESULT:      -4.1      3.374      4.484
REMARK  7 active torsions:
REMARK  status: ('A' for Active; 'I' for Inactive)
REMARK    1  A    between atoms: C_2  and  C_3 
REMARK    2  A    between atoms: C_3  and  O_6 
REMARK    3  A    between atoms: C_3  and  C_4 
REMARK    4  A    between atoms: C_7  and  O_6 
REMARK    5  A    between atoms: C_9  and  C_10 
REMARK    6  A    between atoms: N_15  and  C_14 
REMARK    7  A    between atoms: N_20  and  C_19 
REMARK       I    between atoms: C_22  and  N_20 
ROOT
ATOM      1  C   LIG d   1      -3.513  77.850 116.706  0.00  0.00     0.161 C 
ATOM      2  C   LIG d   1      -2.527  78.701 117.234  0.00  0.00     0.016 C 
ATOM      3  C   LIG d   1      -1.176  78.676 116.820  0.00  0.00     0.038 C 
ATOM      4  C   LIG d   1      -0.746  77.898 115.735  0.00  0.00     0.028 C 
ATOM      5  C   LIG d   1      -1.599  76.654 115.507  0.00  0.00    -0.047 C 
ATOM      6  C   LIG d   1      -3.086  77.071 115.444  0.00  0.00     0.091 C 
ENDROOT
BRANCH   1   7
ATOM      7  O   LIG d   1      -4.718  78.598 116.449  0.00  0.00    -0.368 OA
BRANCH   7   8
ATOM      8  C   LIG d   1      -5.558  78.866 117.599  0.00  0.00     0.119 C 
BRANCH   8   9
ATOM      9  C   LIG d   1      -6.977  78.368 117.262  0.00  0.00     0.028 C 
ATOM     10  C   LIG d   1      -7.027  76.848 117.037  0.00  0.00     0.006 C 
ENDBRANCH   8   9
BRANCH   8  11
ATOM     11  C   LIG d   1      -5.704  80.371 117.843  0.00  0.00     0.028 C 
ATOM     12  C   LIG d   1      -7.151  80.863 117.687  0.00  0.00     0.006 C 
ENDBRANCH   8  11
ENDBRANCH   7   8
ENDBRANCH   1   7
BRANCH   6  13
ATOM     13  N   LIG d   1      -3.996  75.904 115.306  0.00  0.00    -0.311 N 
ATOM     14  C   LIG d   1      -4.759  75.692 114.235  0.00  0.00     0.210 C 
ATOM     15  C   LIG d   1      -5.639  74.439 114.306  0.00  0.00     0.109 C 
ATOM     16  O   LIG d   1      -4.767  76.404 113.220  0.00  0.00    -0.276 OA
ATOM     17  H   LIG d   1      -4.029  75.258 116.071  0.00  0.00     0.149 HD
ENDBRANCH   6  13
BRANCH   5  18
ATOM     18  N   LIG d   1      -1.125  76.011 114.266  0.00  0.00     0.381 N 
ATOM     19  H   LIG d   1      -1.210  75.017 114.347  0.00  0.00    -0.090 HD
ATOM     20  H   LIG d   1      -0.155  76.235 114.134  0.00  0.00    -0.090 HD
ATOM     21  H   LIG d   1      -1.658  76.336 113.489  0.00  0.00    -0.090 HD
ENDBRANCH   5  18
BRANCH   3  22
ATOM     22  C   LIG d   1      -0.229  79.408 117.521  0.00  0.00     0.382 C 
ATOM     23  O   LIG d   1       0.385  80.344 116.955  0.00  0.00    -0.241 OA
ATOM     24  O   LIG d   1       0.050  79.116 118.699  0.00  0.00    -0.241 OA
ENDBRANCH   3  22
TORSDOF 7
ENDMDL
MODEL 8
REMARK VINA RESULT:      -4.0      2.164      3.032
REMARK  7 active torsions:
REMARK  status: ('A' for Active; 'I' for Inactive)
REMARK    1  A    between atoms: C_2  and  C_3 
REMARK    2  A    between atoms: C_3  and  O_6 
REMARK    3  A    between atoms: C_3  and  C_4 
REMARK    4  A    between atoms: C_7  and  O_6 
REMARK    5  A    between atoms: C_9  and  C_10 
REMARK    6  A    between atoms: N_15  and  C_14 
REMARK    7  A    between atoms: N_20  and  C_19 
REMARK       I    between atoms: C_22  and  N_20 
ROOT
ATOM      1  C   LIG d   1      -3.639  76.658 114.977  0.00  0.00     0.161 C 
ATOM      2  C   LIG d   1      -3.363  76.788 113.606  0.00  0.00     0.016 C 
ATOM      3  C   LIG d   1      -2.391  77.674 113.087  0.00  0.00     0.038 C 
ATOM      4  C   LIG d   1      -1.517  78.386 113.922  0.00  0.00     0.028 C 
ATOM      5  C   LIG d   1      -2.096  78.669 115.305  0.00  0.00    -0.047 C 
ATOM      6  C   LIG d   1      -2.619  77.346 115.909  0.00  0.00     0.091 C 
ENDROOT
BRANCH   1   7
ATOM      7  O   LIG d   1      -3.771  75.265 115.320  0.00  0.00    -0.368 OA
BRANCH   7   8
ATOM      8  C   LIG d   1      -5.110  74.809 115.633  0.00  0.00     0.119 C 
BRANCH   8   9
ATOM      9  C   LIG d   1      -6.069  75.990 115.389  0.00  0.00     0.028 C 
ATOM     10  C   LIG d   1      -7.051  75.722 114.236  0.00  0.00     0.006 C 
ENDBRANCH   8   9
BRANCH   8  11
ATOM     11  C   LIG d   1      -5.251  74.472 117.120  0.00  0.00     0.028 C 
ATOM     12  C   LIG d   1      -6.369  75.270 117.808  0.00  0.00     0.006 C 
ENDBRANCH   8  11
ENDBRANCH   7   8
ENDBRANCH   1   7
BRANCH   6  13
ATOM     13  N   LIG d   1      -3.277  77.546 117.227  0.00  0.00    -0.311 N 
ATOM     14  C   LIG d   1      -4.256  78.426 117.431  0.00  0.00     0.210 C 
ATOM     15  C   LIG d   1      -4.781  78.487 118.869  0.00  0.00     0.109 C 
ATOM     16  O   LIG d   1      -4.761  79.139 116.551  0.00  0.00    -0.276 OA
ATOM     17  H   LIG d   1      -2.951  76.986 117.989  0.00  0.00     0.149 HD
ENDBRANCH   6  13
BRANCH   5  18
ATOM     18  N   LIG d   1      -1.032  79.293 116.114  0.00  0.00     0.381 N 
ATOM     19  H   LIG d   1      -1.220  80.270 116.224  0.00  0.00    -0.090 HD
ATOM     20  H   LIG d   1      -0.156  79.193 115.632  0.00  0.00    -0.090 HD
ATOM     21  H   LIG d   1      -0.981  78.854 117.007  0.00  0.00    -0.090 HD
ENDBRANCH   5  18
BRANCH   3  22
ATOM     22  C   LIG d   1      -2.313  77.885 111.719  0.00  0.00     0.382 C 
ATOM     23  O   LIG d   1      -1.825  78.952 111.276  0.00  0.00    -0.241 OA
ATOM     24  O   LIG d   1      -2.765  77.040 110.923  0.00  0.00    -0.241 OA
ENDBRANCH   3  22
TORSDOF 7
ENDMDL
MODEL 9
REMARK VINA RESULT:      -4.0      4.282      5.676
REMARK  7 active torsions:
REMARK  status: ('A' for Active; 'I' for Inactive)
REMARK    1  A    between atoms: C_2  and  C_3 
REMARK    2  A    between atoms: C_3  and  O_6 
REMARK    3  A    between atoms: C_3  and  C_4 
REMARK    4  A    between atoms: C_7  and  O_6 
REMARK    5  A    between atoms: C_9  and  C_10 
REMARK    6  A    between atoms: N_15  and  C_14 
REMARK    7  A    between atoms: N_20  and  C_19 
REMARK       I    between atoms: C_22  and  N_20 
ROOT
ATOM      1  C   LIG d   1      -5.403  78.059 117.003  0.00  0.00     0.161 C 
ATOM      2  C   LIG d   1      -4.122  78.501 116.630  0.00  0.00     0.016 C 
ATOM      3  C   LIG d   1      -3.251  77.753 115.805  0.00  0.00     0.038 C 
ATOM      4  C   LIG d   1      -3.663  76.572 115.169  0.00  0.00     0.028 C 
ATOM      5  C   LIG d   1      -4.767  75.834 115.919  0.00  0.00    -0.047 C 
ATOM      6  C   LIG d   1      -5.912  76.826 116.229  0.00  0.00     0.091 C 
ENDROOT
BRANCH   1   7
ATOM      7  O   LIG d   1      -6.345  79.145 116.892  0.00  0.00    -0.368 OA
BRANCH   7   8
ATOM      8  C   LIG d   1      -6.475  79.997 118.057  0.00  0.00     0.119 C 
BRANCH   8   9
ATOM      9  C   LIG d   1      -7.514  79.349 118.991  0.00  0.00     0.028 C 
ATOM     10  C   LIG d   1      -8.849  79.068 118.280  0.00  0.00     0.006 C 
ENDBRANCH   8   9
BRANCH   8  11
ATOM     11  C   LIG d   1      -7.059  81.363 117.685  0.00  0.00     0.028 C 
ATOM     12  C   LIG d   1      -6.838  82.423 118.776  0.00  0.00     0.006 C 
ENDBRANCH   8  11
ENDBRANCH   7   8
ENDBRANCH   1   7
BRANCH   6  13
ATOM     13  N   LIG d   1      -6.996  76.206 117.035  0.00  0.00    -0.311 N 
ATOM     14  C   LIG d   1      -8.116  75.716 116.504  0.00  0.00     0.210 C 
ATOM     15  C   LIG d   1      -9.112  75.139 117.515  0.00  0.00     0.109 C 
ATOM     16  O   LIG d   1      -8.364  75.675 115.290  0.00  0.00    -0.276 OA
ATOM     17  H   LIG d   1      -6.864  76.169 118.026  0.00  0.00     0.149 HD
ENDBRANCH   6  13
BRANCH   5  18
ATOM     18  N   LIG d   1      -5.196  74.701 115.078  0.00  0.00     0.381 N 
ATOM     19  H   LIG d   1      -4.450  74.039 114.996  0.00  0.00    -0.090 HD
ATOM     20  H   LIG d   1      -5.418  75.042 114.160  0.00  0.00    -0.090 HD
ATOM     21  H   LIG d   1      -5.996  74.262 115.479  0.00  0.00    -0.090 HD
ENDBRANCH   5  18
BRANCH   3  22
ATOM     22  C   LIG d   1      -1.937  78.165 115.641  0.00  0.00     0.382 C 
ATOM     23  O   LIG d   1      -1.557  79.256 116.130  0.00  0.00    -0.241 OA
ATOM     24  O   LIG d   1      -1.139  77.481 114.973  0.00  0.00    -0.241 OA
ENDBRANCH   3  22
TORSDOF 7
ENDMDL
