MODEL 1
REMARK VINA RESULT:      -5.3      0.000      0.000
REMARK  7 active torsions:
REMARK  status: ('A' for Active; 'I' for Inactive)
REMARK    1  A    between atoms: C_2  and  C_3 
REMARK    2  A    between atoms: C_3  and  O_6 
REMARK    3  A    between atoms: C_3  and  C_4 
REMARK    4  A    between atoms: C_7  and  O_6 
REMARK    5  A    between atoms: C_9  and  C_10 
REMARK    6  A    between atoms: N_15  and  C_14 
REMARK    7  A    between atoms: N_20  and  C_19 
REMARK       I    between atoms: C_22  and  N_20 
ROOT
ATOM      1  C   LIG d   1      -1.629  78.579 114.756  0.00  0.00     0.161 C 
ATOM      2  C   LIG d   1      -2.083  79.797 114.223  0.00  0.00     0.016 C 
ATOM      3  C   LIG d   1      -2.501  79.951 112.881  0.00  0.00     0.038 C 
ATOM      4  C   LIG d   1      -2.638  78.855 112.016  0.00  0.00     0.028 C 
ATOM      5  C   LIG d   1      -1.713  77.692 112.361  0.00  0.00    -0.047 C 
ATOM      6  C   LIG d   1      -1.877  77.348 113.859  0.00  0.00     0.091 C 
ENDROOT
BRANCH   1   7
ATOM      7  O   LIG d   1      -2.206  78.372 116.061  0.00  0.00    -0.368 OA
BRANCH   7   8
ATOM      8  C   LIG d   1      -3.643  78.527 116.154  0.00  0.00     0.119 C 
BRANCH   8   9
ATOM      9  C   LIG d   1      -3.926  79.596 117.227  0.00  0.00     0.028 C 
ATOM     10  C   LIG d   1      -5.338  80.192 117.104  0.00  0.00     0.006 C 
ENDBRANCH   8   9
BRANCH   8  11
ATOM     11  C   LIG d   1      -4.309  77.248 116.671  0.00  0.00     0.028 C 
ATOM     12  C   LIG d   1      -5.368  76.694 115.703  0.00  0.00     0.006 C 
ENDBRANCH   8  11
ENDBRANCH   7   8
ENDBRANCH   1   7
BRANCH   6  13
ATOM     13  N   LIG d   1      -0.946  76.276 114.299  0.00  0.00    -0.311 N 
ATOM     14  C   LIG d   1      -1.350  75.142 114.868  0.00  0.00     0.210 C 
ATOM     15  C   LIG d   1      -0.226  74.180 115.264  0.00  0.00     0.109 C 
ATOM     16  O   LIG d   1      -2.536  74.827 115.052  0.00  0.00    -0.276 OA
ATOM     17  H   LIG d   1       0.033  76.436 114.159  0.00  0.00     0.149 HD
ENDBRANCH   6  13
BRANCH   5  18
ATOM     18  N   LIG d   1      -2.057  76.569 111.469  0.00  0.00     0.381 N 
ATOM     19  H   LIG d   1      -2.871  76.101 111.812  0.00  0.00    -0.090 HD
ATOM     20  H   LIG d   1      -1.295  75.914 111.462  0.00  0.00    -0.090 HD
ATOM     21  H   LIG d   1      -2.223  76.906 110.546  0.00  0.00    -0.090 HD
ENDBRANCH   5  18
BRANCH   3  22
ATOM     22  C   LIG d   1      -2.749  81.220 112.380  0.00  0.00     0.382 C 
ATOM     23  O   LIG d   1      -3.931  81.622 112.250  0.00  0.00    -0.241 OA
ATOM     24  O   LIG d   1      -1.809  81.950 112.015  0.00  0.00    -0.241 OA
ENDBRANCH   3  22
TORSDOF 7
ENDMDL
MODEL 2
REMARK VINA RESULT:      -5.2      0.841      1.508
REMARK  7 active torsions:
REMARK  status: ('A' for Active; 'I' for Inactive)
REMARK    1  A    between atoms: C_2  and  C_3 
REMARK    2  A    between atoms: C_3  and  O_6 
REMARK    3  A    between atoms: C_3  and  C_4 
REMARK    4  A    between atoms: C_7  and  O_6 
REMARK    5  A    between atoms: C_9  and  C_10 
REMARK    6  A    between atoms: N_15  and  C_14 
REMARK    7  A    between atoms: N_20  and  C_19 
REMARK       I    between atoms: C_22  and  N_20 
ROOT
ATOM      1  C   LIG d   1      -1.447  78.607 114.481  0.00  0.00     0.161 C 
ATOM      2  C   LIG d   1      -1.928  79.847 114.028  0.00  0.00     0.016 C 
ATOM      3  C   LIG d   1      -2.564  80.025 112.778  0.00  0.00     0.038 C 
ATOM      4  C   LIG d   1      -2.900  78.939 111.956  0.00  0.00     0.028 C 
ATOM      5  C   LIG d   1      -1.986  77.733 112.141  0.00  0.00    -0.047 C 
ATOM      6  C   LIG d   1      -1.904  77.392 113.647  0.00  0.00     0.091 C 
ENDROOT
BRANCH   1   7
ATOM      7  O   LIG d   1      -1.798  78.424 115.867  0.00  0.00    -0.368 OA
BRANCH   7   8
ATOM      8  C   LIG d   1      -2.781  79.344 116.402  0.00  0.00     0.119 C 
BRANCH   8   9
ATOM      9  C   LIG d   1      -2.364  79.677 117.848  0.00  0.00     0.028 C 
ATOM     10  C   LIG d   1      -1.795  78.457 118.591  0.00  0.00     0.006 C 
ENDBRANCH   8   9
BRANCH   8  11
ATOM     11  C   LIG d   1      -4.158  78.684 116.520  0.00  0.00     0.028 C 
ATOM     12  C   LIG d   1      -5.224  79.628 117.096  0.00  0.00     0.006 C 
ENDBRANCH   8  11
ENDBRANCH   7   8
ENDBRANCH   1   7
BRANCH   6  13
ATOM     13  N   LIG d   1      -0.963  76.276 113.925  0.00  0.00    -0.311 N 
ATOM     14  C   LIG d   1      -1.290  75.203 114.642  0.00  0.00     0.210 C 
ATOM     15  C   LIG d   1      -0.164  74.180 114.826  0.00  0.00     0.109 C 
ATOM     16  O   LIG d   1      -2.415  74.986 115.117  0.00  0.00    -0.276 OA
ATOM     17  H   LIG d   1      -0.037  76.356 113.551  0.00  0.00     0.149 HD
ENDBRANCH   6  13
BRANCH   5  18
ATOM     18  N   LIG d   1      -2.532  76.631 111.328  0.00  0.00     0.381 N 
ATOM     19  H   LIG d   1      -3.501  76.502 111.538  0.00  0.00    -0.090 HD
ATOM     20  H   LIG d   1      -2.044  75.783 111.559  0.00  0.00    -0.090 HD
ATOM     21  H   LIG d   1      -2.418  76.833 110.359  0.00  0.00    -0.090 HD
ENDBRANCH   5  18
BRANCH   3  22
ATOM     22  C   LIG d   1      -2.835  81.306 112.321  0.00  0.00     0.382 C 
ATOM     23  O   LIG d   1      -1.892  82.090 112.057  0.00  0.00    -0.241 OA
ATOM     24  O   LIG d   1      -4.011  81.702 112.212  0.00  0.00    -0.241 OA
ENDBRANCH   3  22
TORSDOF 7
ENDMDL
MODEL 3
REMARK VINA RESULT:      -5.0      2.618      4.174
REMARK  7 active torsions:
REMARK  status: ('A' for Active; 'I' for Inactive)
REMARK    1  A    between atoms: C_2  and  C_3 
REMARK    2  A    between atoms: C_3  and  O_6 
REMARK    3  A    between atoms: C_3  and  C_4 
REMARK    4  A    between atoms: C_7  and  O_6 
REMARK    5  A    between atoms: C_9  and  C_10 
REMARK    6  A    between atoms: N_15  and  C_14 
REMARK    7  A    between atoms: N_20  and  C_19 
REMARK       I    between atoms: C_22  and  N_20 
ROOT
ATOM      1  C   LIG d   1      -2.028  76.957 113.690  0.00  0.00     0.161 C 
ATOM      2  C   LIG d   1      -1.510  77.450 114.899  0.00  0.00     0.016 C 
ATOM      3  C   LIG d   1      -1.387  78.828 115.190  0.00  0.00     0.038 C 
ATOM      4  C   LIG d   1      -1.919  79.814 114.345  0.00  0.00     0.028 C 
ATOM      5  C   LIG d   1      -1.996  79.382 112.884  0.00  0.00    -0.047 C 
ATOM      6  C   LIG d   1      -2.715  78.016 112.802  0.00  0.00     0.091 C 
ENDROOT
BRANCH   1   7
ATOM      7  O   LIG d   1      -2.928  75.863 113.954  0.00  0.00    -0.368 OA
BRANCH   7   8
ATOM      8  C   LIG d   1      -3.702  75.956 115.175  0.00  0.00     0.119 C 
BRANCH   8   9
ATOM      9  C   LIG d   1      -3.585  74.601 115.901  0.00  0.00     0.028 C 
ATOM     10  C   LIG d   1      -2.841  74.716 117.242  0.00  0.00     0.006 C 
ENDBRANCH   8   9
BRANCH   8  11
ATOM     11  C   LIG d   1      -5.195  76.128 114.877  0.00  0.00     0.028 C 
ATOM     12  C   LIG d   1      -5.924  74.788 114.689  0.00  0.00     0.006 C 
ENDBRANCH   8  11
ENDBRANCH   7   8
ENDBRANCH   1   7
BRANCH   6  13
ATOM     13  N   LIG d   1      -2.759  77.481 111.416  0.00  0.00    -0.311 N 
ATOM     14  C   LIG d   1      -3.856  76.969 110.862  0.00  0.00     0.210 C 
ATOM     15  C   LIG d   1      -3.679  76.455 109.430  0.00  0.00     0.109 C 
ATOM     16  O   LIG d   1      -4.968  76.922 111.409  0.00  0.00    -0.276 OA
ATOM     17  H   LIG d   1      -1.908  77.509 110.890  0.00  0.00     0.149 HD
ENDBRANCH   6  13
BRANCH   5  18
ATOM     18  N   LIG d   1      -2.694  80.448 112.141  0.00  0.00     0.381 N 
ATOM     19  H   LIG d   1      -2.183  80.673 111.311  0.00  0.00    -0.090 HD
ATOM     20  H   LIG d   1      -2.738  81.270 112.716  0.00  0.00    -0.090 HD
ATOM     21  H   LIG d   1      -3.615  80.151 111.902  0.00  0.00    -0.090 HD
ENDBRANCH   5  18
BRANCH   3  22
ATOM     22  C   LIG d   1      -0.692  79.234 116.318  0.00  0.00     0.382 C 
ATOM     23  O   LIG d   1      -0.138  78.381 117.054  0.00  0.00    -0.241 OA
ATOM     24  O   LIG d   1      -0.648  80.438 116.635  0.00  0.00    -0.241 OA
ENDBRANCH   3  22
TORSDOF 7
ENDMDL
MODEL 4
REMARK VINA RESULT:      -4.9      2.422      4.816
REMARK  7 active torsions:
REMARK  status: ('A' for Active; 'I' for Inactive)
REMARK    1  A    between atoms: C_2  and  C_3 
REMARK    2  A    between atoms: C_3  and  O_6 
REMARK    3  A    between atoms: C_3  and  C_4 
REMARK    4  A    between atoms: C_7  and  O_6 
REMARK    5  A    between atoms: C_9  and  C_10 
REMARK    6  A    between atoms: N_15  and  C_14 
REMARK    7  A    between atoms: N_20  and  C_19 
REMARK       I    between atoms: C_22  and  N_20 
ROOT
ATOM      1  C   LIG d   1      -2.044  79.595 114.266  0.00  0.00     0.161 C 
ATOM      2  C   LIG d   1      -2.612  78.364 114.637  0.00  0.00     0.016 C 
ATOM      3  C   LIG d   1      -2.878  77.322 113.719  0.00  0.00     0.038 C 
ATOM      4  C   LIG d   1      -2.450  77.383 112.384  0.00  0.00     0.028 C 
ATOM      5  C   LIG d   1      -2.326  78.807 111.852  0.00  0.00    -0.047 C 
ATOM      6  C   LIG d   1      -1.469  79.637 112.835  0.00  0.00     0.091 C 
ENDROOT
BRANCH   1   7
ATOM      7  O   LIG d   1      -1.035  79.974 115.223  0.00  0.00    -0.368 OA
BRANCH   7   8
ATOM      8  C   LIG d   1      -1.159  79.394 116.545  0.00  0.00     0.119 C 
BRANCH   8   9
ATOM      9  C   LIG d   1      -1.276  80.555 117.551  0.00  0.00     0.028 C 
ATOM     10  C   LIG d   1      -2.570  80.485 118.379  0.00  0.00     0.006 C 
ENDBRANCH   8   9
BRANCH   8  11
ATOM     11  C   LIG d   1       0.113  78.639 116.943  0.00  0.00     0.028 C 
ATOM     12  C   LIG d   1      -0.123  77.132 117.131  0.00  0.00     0.006 C 
ENDBRANCH   8  11
ENDBRANCH   7   8
ENDBRANCH   1   7
BRANCH   6  13
ATOM     13  N   LIG d   1      -1.368  81.064 112.433  0.00  0.00    -0.311 N 
ATOM     14  C   LIG d   1      -0.425  81.530 111.616  0.00  0.00     0.210 C 
ATOM     15  C   LIG d   1      -0.490  83.037 111.347  0.00  0.00     0.109 C 
ATOM     16  O   LIG d   1       0.439  80.834 111.063  0.00  0.00    -0.276 OA
ATOM     17  H   LIG d   1      -2.049  81.694 112.811  0.00  0.00     0.149 HD
ENDBRANCH   6  13
BRANCH   5  18
ATOM     18  N   LIG d   1      -1.742  78.728 110.500  0.00  0.00     0.381 N 
ATOM     19  H   LIG d   1      -0.749  78.841 110.553  0.00  0.00    -0.090 HD
ATOM     20  H   LIG d   1      -2.115  79.475 109.941  0.00  0.00    -0.090 HD
ATOM     21  H   LIG d   1      -1.962  77.850 110.084  0.00  0.00    -0.090 HD
ENDBRANCH   5  18
BRANCH   3  22
ATOM     22  C   LIG d   1      -3.613  76.219 114.125  0.00  0.00     0.382 C 
ATOM     23  O   LIG d   1      -3.164  75.460 115.018  0.00  0.00    -0.241 OA
ATOM     24  O   LIG d   1      -4.700  75.949 113.580  0.00  0.00    -0.241 OA
ENDBRANCH   3  22
TORSDOF 7
ENDMDL
MODEL 5
REMARK VINA RESULT:      -4.6      2.745      4.126
REMARK  7 active torsions:
REMARK  status: ('A' for Active; 'I' for Inactive)
REMARK    1  A    between atoms: C_2  and  C_3 
REMARK    2  A    between atoms: C_3  and  O_6 
REMARK    3  A    between atoms: C_3  and  C_4 
REMARK    4  A    between atoms: C_7  and  O_6 
REMARK    5  A    between atoms: C_9  and  C_10 
REMARK    6  A    between atoms: N_15  and  C_14 
REMARK    7  A    between atoms: N_20  and  C_19 
REMARK       I    between atoms: C_22  and  N_20 
ROOT
ATOM      1  C   LIG d   1      -2.657  77.416 114.808  0.00  0.00     0.161 C 
ATOM      2  C   LIG d   1      -3.273  76.868 113.670  0.00  0.00     0.016 C 
ATOM      3  C   LIG d   1      -3.319  77.524 112.419  0.00  0.00     0.038 C 
ATOM      4  C   LIG d   1      -2.616  78.713 112.178  0.00  0.00     0.028 C 
ATOM      5  C   LIG d   1      -2.401  79.554 113.432  0.00  0.00    -0.047 C 
ATOM      6  C   LIG d   1      -1.788  78.662 114.536  0.00  0.00     0.091 C 
ENDROOT
BRANCH   1   7
ATOM      7  O   LIG d   1      -1.883  76.403 115.480  0.00  0.00    -0.368 OA
BRANCH   7   8
ATOM      8  C   LIG d   1      -2.383  75.969 116.769  0.00  0.00     0.119 C 
BRANCH   8   9
ATOM      9  C   LIG d   1      -2.861  74.512 116.613  0.00  0.00     0.028 C 
ATOM     10  C   LIG d   1      -4.364  74.418 116.300  0.00  0.00     0.006 C 
ENDBRANCH   8   9
BRANCH   8  11
ATOM     11  C   LIG d   1      -3.627  76.762 117.180  0.00  0.00     0.028 C 
ATOM     12  C   LIG d   1      -3.438  77.525 118.501  0.00  0.00     0.006 C 
ENDBRANCH   8  11
ENDBRANCH   7   8
ENDBRANCH   1   7
BRANCH   6  13
ATOM     13  N   LIG d   1      -1.624  79.386 115.824  0.00  0.00    -0.311 N 
ATOM     14  C   LIG d   1      -0.535  80.084 116.139  0.00  0.00     0.210 C 
ATOM     15  C   LIG d   1      -0.563  80.736 117.525  0.00  0.00     0.109 C 
ATOM     16  O   LIG d   1       0.439  80.251 115.390  0.00  0.00    -0.276 OA
ATOM     17  H   LIG d   1      -2.380  79.329 116.478  0.00  0.00     0.149 HD
ENDBRANCH   6  13
BRANCH   5  18
ATOM     18  N   LIG d   1      -1.539  80.693 113.064  0.00  0.00     0.381 N 
ATOM     19  H   LIG d   1      -1.433  80.729 112.070  0.00  0.00    -0.090 HD
ATOM     20  H   LIG d   1      -0.631  80.559 113.473  0.00  0.00    -0.090 HD
ATOM     21  H   LIG d   1      -1.938  81.544 113.394  0.00  0.00    -0.090 HD
ENDBRANCH   5  18
BRANCH   3  22
ATOM     22  C   LIG d   1      -4.109  77.009 111.402  0.00  0.00     0.382 C 
ATOM     23  O   LIG d   1      -5.337  76.837 111.588  0.00  0.00    -0.241 OA
ATOM     24  O   LIG d   1      -3.600  76.672 110.316  0.00  0.00    -0.241 OA
ENDBRANCH   3  22
TORSDOF 7
ENDMDL
MODEL 6
REMARK VINA RESULT:      -4.5      2.002      2.425
REMARK  7 active torsions:
REMARK  status: ('A' for Active; 'I' for Inactive)
REMARK    1  A    between atoms: C_2  and  C_3 
REMARK    2  A    between atoms: C_3  and  O_6 
REMARK    3  A    between atoms: C_3  and  C_4 
REMARK    4  A    between atoms: C_7  and  O_6 
REMARK    5  A    between atoms: C_9  and  C_10 
REMARK    6  A    between atoms: N_15  and  C_14 
REMARK    7  A    between atoms: N_20  and  C_19 
REMARK       I    between atoms: C_22  and  N_20 
ROOT
ATOM      1  C   LIG d   1      -2.410  78.749 114.432  0.00  0.00     0.161 C 
ATOM      2  C   LIG d   1      -1.757  79.833 113.822  0.00  0.00     0.016 C 
ATOM      3  C   LIG d   1      -1.512  79.911 112.431  0.00  0.00     0.038 C 
ATOM      4  C   LIG d   1      -2.041  78.974 111.531  0.00  0.00     0.028 C 
ATOM      5  C   LIG d   1      -2.273  77.601 112.153  0.00  0.00    -0.047 C 
ATOM      6  C   LIG d   1      -3.092  77.770 113.453  0.00  0.00     0.091 C 
ENDROOT
BRANCH   1   7
ATOM      7  O   LIG d   1      -3.361  79.233 115.400  0.00  0.00    -0.368 OA
BRANCH   7   8
ATOM      8  C   LIG d   1      -2.862  79.415 116.748  0.00  0.00     0.119 C 
BRANCH   8   9
ATOM      9  C   LIG d   1      -2.349  78.047 117.240  0.00  0.00     0.028 C 
ATOM     10  C   LIG d   1      -2.939  77.655 118.605  0.00  0.00     0.006 C 
ENDBRANCH   8   9
BRANCH   8  11
ATOM     11  C   LIG d   1      -3.989  79.796 117.713  0.00  0.00     0.028 C 
ATOM     12  C   LIG d   1      -5.330  80.030 117.000  0.00  0.00     0.006 C 
ENDBRANCH   8  11
ENDBRANCH   7   8
ENDBRANCH   1   7
BRANCH   6  13
ATOM     13  N   LIG d   1      -3.291  76.483 114.169  0.00  0.00    -0.311 N 
ATOM     14  C   LIG d   1      -4.446  76.128 114.730  0.00  0.00     0.210 C 
ATOM     15  C   LIG d   1      -4.430  74.768 115.436  0.00  0.00     0.109 C 
ATOM     16  O   LIG d   1      -5.491  76.794 114.682  0.00  0.00    -0.276 OA
ATOM     17  H   LIG d   1      -2.504  75.868 114.229  0.00  0.00     0.149 HD
ENDBRANCH   6  13
BRANCH   5  18
ATOM     18  N   LIG d   1      -2.953  76.764 111.146  0.00  0.00     0.381 N 
ATOM     19  H   LIG d   1      -3.940  76.775 111.308  0.00  0.00    -0.090 HD
ATOM     20  H   LIG d   1      -2.628  75.818 111.237  0.00  0.00    -0.090 HD
ATOM     21  H   LIG d   1      -2.756  77.105 110.231  0.00  0.00    -0.090 HD
ENDBRANCH   5  18
BRANCH   3  22
ATOM     22  C   LIG d   1      -0.696  80.915 111.933  0.00  0.00     0.382 C 
ATOM     23  O   LIG d   1      -0.967  81.455 110.833  0.00  0.00    -0.241 OA
ATOM     24  O   LIG d   1       0.332  81.256 112.547  0.00  0.00    -0.241 OA
ENDBRANCH   3  22
TORSDOF 7
ENDMDL
MODEL 7
REMARK VINA RESULT:      -4.4      2.686      5.720
REMARK  7 active torsions:
REMARK  status: ('A' for Active; 'I' for Inactive)
REMARK    1  A    between atoms: C_2  and  C_3 
REMARK    2  A    between atoms: C_3  and  O_6 
REMARK    3  A    between atoms: C_3  and  C_4 
REMARK    4  A    between atoms: C_7  and  O_6 
REMARK    5  A    between atoms: C_9  and  C_10 
REMARK    6  A    between atoms: N_15  and  C_14 
REMARK    7  A    between atoms: N_20  and  C_19 
REMARK       I    between atoms: C_22  and  N_20 
ROOT
ATOM      1  C   LIG d   1      -3.376  75.016 115.425  0.00  0.00     0.161 C 
ATOM      2  C   LIG d   1      -3.102  74.631 116.748  0.00  0.00     0.016 C 
ATOM      3  C   LIG d   1      -2.181  75.307 117.581  0.00  0.00     0.038 C 
ATOM      4  C   LIG d   1      -1.578  76.513 117.193  0.00  0.00     0.028 C 
ATOM      5  C   LIG d   1      -1.440  76.663 115.682  0.00  0.00    -0.047 C 
ATOM      6  C   LIG d   1      -2.812  76.395 115.023  0.00  0.00     0.091 C 
ENDROOT
BRANCH   1   7
ATOM      7  O   LIG d   1      -4.797  74.967 115.186  0.00  0.00    -0.368 OA
BRANCH   7   8
ATOM      8  C   LIG d   1      -5.645  75.237 116.330  0.00  0.00     0.119 C 
BRANCH   8   9
ATOM      9  C   LIG d   1      -6.767  74.181 116.333  0.00  0.00     0.028 C 
ATOM     10  C   LIG d   1      -7.902  74.534 117.310  0.00  0.00     0.006 C 
ENDBRANCH   8   9
BRANCH   8  11
ATOM     11  C   LIG d   1      -6.358  76.586 116.189  0.00  0.00     0.028 C 
ATOM     12  C   LIG d   1      -5.666  77.710 116.976  0.00  0.00     0.006 C 
ENDBRANCH   8  11
ENDBRANCH   7   8
ENDBRANCH   1   7
BRANCH   6  13
ATOM     13  N   LIG d   1      -2.746  76.438 113.539  0.00  0.00    -0.311 N 
ATOM     14  C   LIG d   1      -3.021  77.528 112.825  0.00  0.00     0.210 C 
ATOM     15  C   LIG d   1      -2.912  77.351 111.307  0.00  0.00     0.109 C 
ATOM     16  O   LIG d   1      -3.314  78.634 113.305  0.00  0.00    -0.276 OA
ATOM     17  H   LIG d   1      -2.487  75.593 113.069  0.00  0.00     0.149 HD
ENDBRANCH   6  13
BRANCH   5  18
ATOM     18  N   LIG d   1      -0.925  78.019 115.414  0.00  0.00     0.381 N 
ATOM     19  H   LIG d   1      -1.131  78.280 114.470  0.00  0.00    -0.090 HD
ATOM     20  H   LIG d   1       0.073  78.017 115.530  0.00  0.00    -0.090 HD
ATOM     21  H   LIG d   1      -1.338  78.672 116.044  0.00  0.00    -0.090 HD
ENDBRANCH   5  18
BRANCH   3  22
ATOM     22  C   LIG d   1      -1.823  74.755 118.801  0.00  0.00     0.382 C 
ATOM     23  O   LIG d   1      -0.628  74.792 119.180  0.00  0.00    -0.241 OA
ATOM     24  O   LIG d   1      -2.673  74.180 119.507  0.00  0.00    -0.241 OA
ENDBRANCH   3  22
TORSDOF 7
ENDMDL
MODEL 8
REMARK VINA RESULT:      -4.4      2.719      4.520
REMARK  7 active torsions:
REMARK  status: ('A' for Active; 'I' for Inactive)
REMARK    1  A    between atoms: C_2  and  C_3 
REMARK    2  A    between atoms: C_3  and  O_6 
REMARK    3  A    between atoms: C_3  and  C_4 
REMARK    4  A    between atoms: C_7  and  O_6 
REMARK    5  A    between atoms: C_9  and  C_10 
REMARK    6  A    between atoms: N_15  and  C_14 
REMARK    7  A    between atoms: N_20  and  C_19 
REMARK       I    between atoms: C_22  and  N_20 
ROOT
ATOM      1  C   LIG d   1      -2.937  77.691 115.112  0.00  0.00     0.161 C 
ATOM      2  C   LIG d   1      -3.457  77.063 113.968  0.00  0.00     0.016 C 
ATOM      3  C   LIG d   1      -3.243  77.540 112.654  0.00  0.00     0.038 C 
ATOM      4  C   LIG d   1      -2.362  78.597 112.383  0.00  0.00     0.028 C 
ATOM      5  C   LIG d   1      -2.214  79.575 113.545  0.00  0.00    -0.047 C 
ATOM      6  C   LIG d   1      -1.882  78.781 114.829  0.00  0.00     0.091 C 
ENDROOT
BRANCH   1   7
ATOM      7  O   LIG d   1      -2.404  76.700 116.013  0.00  0.00    -0.368 OA
BRANCH   7   8
ATOM      8  C   LIG d   1      -2.071  75.418 115.426  0.00  0.00     0.119 C 
BRANCH   8   9
ATOM      9  C   LIG d   1      -2.480  74.327 116.434  0.00  0.00     0.028 C 
ATOM     10  C   LIG d   1      -1.468  74.181 117.583  0.00  0.00     0.006 C 
ENDBRANCH   8   9
BRANCH   8  11
ATOM     11  C   LIG d   1      -0.557  75.262 115.250  0.00  0.00     0.028 C 
ATOM     12  C   LIG d   1      -0.180  74.535 113.950  0.00  0.00     0.006 C 
ENDBRANCH   8  11
ENDBRANCH   7   8
ENDBRANCH   1   7
BRANCH   6  13
ATOM     13  N   LIG d   1      -1.804  79.653 116.030  0.00  0.00    -0.311 N 
ATOM     14  C   LIG d   1      -0.674  79.883 116.696  0.00  0.00     0.210 C 
ATOM     15  C   LIG d   1      -0.817  80.797 117.917  0.00  0.00     0.109 C 
ATOM     16  O   LIG d   1       0.440  79.443 116.373  0.00  0.00    -0.276 OA
ATOM     17  H   LIG d   1      -2.655  80.076 116.343  0.00  0.00     0.149 HD
ENDBRANCH   6  13
BRANCH   5  18
ATOM     18  N   LIG d   1      -1.166  80.546 113.179  0.00  0.00     0.381 N 
ATOM     19  H   LIG d   1      -1.587  81.411 112.903  0.00  0.00    -0.090 HD
ATOM     20  H   LIG d   1      -0.646  80.185 112.398  0.00  0.00    -0.090 HD
ATOM     21  H   LIG d   1      -0.556  80.697 113.952  0.00  0.00    -0.090 HD
ENDBRANCH   5  18
BRANCH   3  22
ATOM     22  C   LIG d   1      -3.945  76.981 111.597  0.00  0.00     0.382 C 
ATOM     23  O   LIG d   1      -3.349  76.689 110.533  0.00  0.00    -0.241 OA
ATOM     24  O   LIG d   1      -5.176  76.805 111.679  0.00  0.00    -0.241 OA
ENDBRANCH   3  22
TORSDOF 7
ENDMDL
MODEL 9
REMARK VINA RESULT:      -4.4      2.892      4.094
REMARK  7 active torsions:
REMARK  status: ('A' for Active; 'I' for Inactive)
REMARK    1  A    between atoms: C_2  and  C_3 
REMARK    2  A    between atoms: C_3  and  O_6 
REMARK    3  A    between atoms: C_3  and  C_4 
REMARK    4  A    between atoms: C_7  and  O_6 
REMARK    5  A    between atoms: C_9  and  C_10 
REMARK    6  A    between atoms: N_15  and  C_14 
REMARK    7  A    between atoms: N_20  and  C_19 
REMARK       I    between atoms: C_22  and  N_20 
ROOT
ATOM      1  C   LIG d   1      -3.528  76.260 116.641  0.00  0.00     0.161 C 
ATOM      2  C   LIG d   1      -4.402  77.286 117.038  0.00  0.00     0.016 C 
ATOM      3  C   LIG d   1      -4.313  78.613 116.559  0.00  0.00     0.038 C 
ATOM      4  C   LIG d   1      -3.431  78.972 115.529  0.00  0.00     0.028 C 
ATOM      5  C   LIG d   1      -2.190  78.088 115.458  0.00  0.00    -0.047 C 
ATOM      6  C   LIG d   1      -2.631  76.606 115.435  0.00  0.00     0.091 C 
ENDROOT
BRANCH   1   7
ATOM      7  O   LIG d   1      -4.275  75.056 116.380  0.00  0.00    -0.368 OA
BRANCH   7   8
ATOM      8  C   LIG d   1      -5.714  75.203 116.298  0.00  0.00     0.119 C 
BRANCH   8   9
ATOM      9  C   LIG d   1      -6.340  74.180 117.266  0.00  0.00     0.028 C 
ATOM     10  C   LIG d   1      -7.852  74.397 117.452  0.00  0.00     0.006 C 
ENDBRANCH   8   9
BRANCH   8  11
ATOM     11  C   LIG d   1      -6.236  74.819 114.910  0.00  0.00     0.028 C 
ATOM     12  C   LIG d   1      -6.166  75.981 113.906  0.00  0.00     0.006 C 
ENDBRANCH   8  11
ENDBRANCH   7   8
ENDBRANCH   1   7
BRANCH   6  13
ATOM     13  N   LIG d   1      -1.476  75.671 115.451  0.00  0.00    -0.311 N 
ATOM     14  C   LIG d   1      -0.901  75.197 114.347  0.00  0.00     0.210 C 
ATOM     15  C   LIG d   1       0.263  74.230 114.588  0.00  0.00     0.109 C 
ATOM     16  O   LIG d   1      -1.224  75.509 113.191  0.00  0.00    -0.276 OA
ATOM     17  H   LIG d   1      -1.129  75.390 116.347  0.00  0.00     0.149 HD
ENDBRANCH   6  13
BRANCH   5  18
ATOM     18  N   LIG d   1      -1.429  78.484 114.259  0.00  0.00     0.381 N 
ATOM     19  H   LIG d   1      -1.681  79.414 113.989  0.00  0.00    -0.090 HD
ATOM     20  H   LIG d   1      -1.663  77.862 113.505  0.00  0.00    -0.090 HD
ATOM     21  H   LIG d   1      -0.451  78.438 114.445  0.00  0.00    -0.090 HD
ENDBRANCH   5  18
BRANCH   3  22
ATOM     22  C   LIG d   1      -5.085  79.607 117.141  0.00  0.00     0.382 C 
ATOM     23  O   LIG d   1      -4.583  80.366 118.005  0.00  0.00    -0.241 OA
ATOM     24  O   LIG d   1      -6.289  79.727 116.844  0.00  0.00    -0.241 OA
ENDBRANCH   3  22
TORSDOF 7
ENDMDL
