MODEL 1
REMARK VINA RESULT:      -5.6      0.000      0.000
REMARK  7 active torsions:
REMARK  status: ('A' for Active; 'I' for Inactive)
REMARK    1  A    between atoms: C_2  and  C_3 
REMARK    2  A    between atoms: C_3  and  O_6 
REMARK    3  A    between atoms: C_3  and  C_4 
REMARK    4  A    between atoms: C_7  and  O_6 
REMARK    5  A    between atoms: C_9  and  C_10 
REMARK    6  A    between atoms: N_15  and  C_14 
REMARK    7  A    between atoms: N_20  and  C_19 
REMARK       I    between atoms: C_22  and  N_20 
ROOT
ATOM      1  C   LIG d   1      -2.292  78.529 115.643  0.00  0.00     0.161 C 
ATOM      2  C   LIG d   1      -2.539  79.749 114.993  0.00  0.00     0.016 C 
ATOM      3  C   LIG d   1      -2.292  79.962 113.617  0.00  0.00     0.038 C 
ATOM      4  C   LIG d   1      -1.919  78.916 112.760  0.00  0.00     0.028 C 
ATOM      5  C   LIG d   1      -1.173  77.790 113.468  0.00  0.00    -0.047 C 
ATOM      6  C   LIG d   1      -1.990  77.344 114.702  0.00  0.00     0.091 C 
ENDROOT
BRANCH   1   7
ATOM      7  O   LIG d   1      -3.393  78.208 116.516  0.00  0.00    -0.368 OA
BRANCH   7   8
ATOM      8  C   LIG d   1      -4.719  78.398 115.965  0.00  0.00     0.119 C 
BRANCH   8   9
ATOM      9  C   LIG d   1      -5.468  79.378 116.889  0.00  0.00     0.028 C 
ATOM     10  C   LIG d   1      -6.854  78.854 117.300  0.00  0.00     0.006 C 
ENDBRANCH   8   9
BRANCH   8  11
ATOM     11  C   LIG d   1      -5.531  77.100 116.007  0.00  0.00     0.028 C 
ATOM     12  C   LIG d   1      -5.822  76.534 114.608  0.00  0.00     0.006 C 
ENDBRANCH   8  11
ENDBRANCH   7   8
ENDBRANCH   1   7
BRANCH   6  13
ATOM     13  N   LIG d   1      -1.291  76.303 115.499  0.00  0.00    -0.311 N 
ATOM     14  C   LIG d   1      -1.801  75.097 115.739  0.00  0.00     0.210 C 
ATOM     15  C   LIG d   1      -0.924  74.182 116.600  0.00  0.00     0.109 C 
ATOM     16  O   LIG d   1      -2.883  74.685 115.293  0.00  0.00    -0.276 OA
ATOM     17  H   LIG d   1      -0.393  76.541 115.873  0.00  0.00     0.149 HD
ENDBRANCH   6  13
BRANCH   5  18
ATOM     18  N   LIG d   1      -0.968  76.707 112.488  0.00  0.00     0.381 N 
ATOM     19  H   LIG d   1       0.004  76.474 112.440  0.00  0.00    -0.090 HD
ATOM     20  H   LIG d   1      -1.261  77.028 111.582  0.00  0.00    -0.090 HD
ATOM     21  H   LIG d   1      -1.496  75.904 112.751  0.00  0.00    -0.090 HD
ENDBRANCH   5  18
BRANCH   3  22
ATOM     22  C   LIG d   1      -2.379  81.243 113.094  0.00  0.00     0.382 C 
ATOM     23  O   LIG d   1      -3.423  81.609 112.502  0.00  0.00    -0.241 OA
ATOM     24  O   LIG d   1      -1.409  82.022 113.166  0.00  0.00    -0.241 OA
ENDBRANCH   3  22
TORSDOF 7
ENDMDL
MODEL 2
REMARK VINA RESULT:      -5.5      1.740      2.403
REMARK  7 active torsions:
REMARK  status: ('A' for Active; 'I' for Inactive)
REMARK    1  A    between atoms: C_2  and  C_3 
REMARK    2  A    between atoms: C_3  and  O_6 
REMARK    3  A    between atoms: C_3  and  C_4 
REMARK    4  A    between atoms: C_7  and  O_6 
REMARK    5  A    between atoms: C_9  and  C_10 
REMARK    6  A    between atoms: N_15  and  C_14 
REMARK    7  A    between atoms: N_20  and  C_19 
REMARK       I    between atoms: C_22  and  N_20 
ROOT
ATOM      1  C   LIG d   1      -2.339  79.509 114.483  0.00  0.00     0.161 C 
ATOM      2  C   LIG d   1      -1.972  80.670 113.782  0.00  0.00     0.016 C 
ATOM      3  C   LIG d   1      -1.319  80.647 112.528  0.00  0.00     0.038 C 
ATOM      4  C   LIG d   1      -1.123  79.455 111.815  0.00  0.00     0.028 C 
ATOM      5  C   LIG d   1      -1.023  78.224 112.709  0.00  0.00    -0.047 C 
ATOM      6  C   LIG d   1      -2.234  78.202 113.670  0.00  0.00     0.091 C 
ENDROOT
BRANCH   1   7
ATOM      7  O   LIG d   1      -3.669  79.662 115.017  0.00  0.00    -0.368 OA
BRANCH   7   8
ATOM      8  C   LIG d   1      -3.764  80.270 116.328  0.00  0.00     0.119 C 
BRANCH   8   9
ATOM      9  C   LIG d   1      -2.834  79.484 117.272  0.00  0.00     0.028 C 
ATOM     10  C   LIG d   1      -3.510  78.230 117.851  0.00  0.00     0.006 C 
ENDBRANCH   8   9
BRANCH   8  11
ATOM     11  C   LIG d   1      -5.169  80.110 116.917  0.00  0.00     0.028 C 
ATOM     12  C   LIG d   1      -5.802  81.451 117.320  0.00  0.00     0.006 C 
ENDBRANCH   8  11
ENDBRANCH   7   8
ENDBRANCH   1   7
BRANCH   6  13
ATOM     13  N   LIG d   1      -2.170  77.075 114.637  0.00  0.00    -0.311 N 
ATOM     14  C   LIG d   1      -3.060  76.085 114.669  0.00  0.00     0.210 C 
ATOM     15  C   LIG d   1      -2.820  75.034 115.758  0.00  0.00     0.109 C 
ATOM     16  O   LIG d   1      -4.008  75.960 113.878  0.00  0.00    -0.276 OA
ATOM     17  H   LIG d   1      -1.415  77.081 115.295  0.00  0.00     0.149 HD
ENDBRANCH   6  13
BRANCH   5  18
ATOM     18  N   LIG d   1      -0.960  77.040 111.832  0.00  0.00     0.381 N 
ATOM     19  H   LIG d   1      -0.668  77.313 110.915  0.00  0.00    -0.090 HD
ATOM     20  H   LIG d   1      -1.877  76.636 111.764  0.00  0.00    -0.090 HD
ATOM     21  H   LIG d   1      -0.322  76.372 112.207  0.00  0.00    -0.090 HD
ENDBRANCH   5  18
BRANCH   3  22
ATOM     22  C   LIG d   1      -0.818  81.824 111.993  0.00  0.00     0.382 C 
ATOM     23  O   LIG d   1      -1.096  82.924 112.528  0.00  0.00    -0.241 OA
ATOM     24  O   LIG d   1      -0.129  81.803 110.955  0.00  0.00    -0.241 OA
ENDBRANCH   3  22
TORSDOF 7
ENDMDL
MODEL 3
REMARK VINA RESULT:      -5.2      1.149      1.783
REMARK  7 active torsions:
REMARK  status: ('A' for Active; 'I' for Inactive)
REMARK    1  A    between atoms: C_2  and  C_3 
REMARK    2  A    between atoms: C_3  and  O_6 
REMARK    3  A    between atoms: C_3  and  C_4 
REMARK    4  A    between atoms: C_7  and  O_6 
REMARK    5  A    between atoms: C_9  and  C_10 
REMARK    6  A    between atoms: N_15  and  C_14 
REMARK    7  A    between atoms: N_20  and  C_19 
REMARK       I    between atoms: C_22  and  N_20 
ROOT
ATOM      1  C   LIG d   1      -2.379  78.740 115.858  0.00  0.00     0.161 C 
ATOM      2  C   LIG d   1      -2.586  79.905 115.101  0.00  0.00     0.016 C 
ATOM      3  C   LIG d   1      -2.287  80.002 113.723  0.00  0.00     0.038 C 
ATOM      4  C   LIG d   1      -1.900  78.884 112.968  0.00  0.00     0.028 C 
ATOM      5  C   LIG d   1      -1.196  77.811 113.792  0.00  0.00    -0.047 C 
ATOM      6  C   LIG d   1      -2.063  77.478 115.028  0.00  0.00     0.091 C 
ENDROOT
BRANCH   1   7
ATOM      7  O   LIG d   1      -3.516  78.505 116.713  0.00  0.00    -0.368 OA
BRANCH   7   8
ATOM      8  C   LIG d   1      -4.287  79.674 117.083  0.00  0.00     0.119 C 
BRANCH   8   9
ATOM      9  C   LIG d   1      -4.003  79.964 118.570  0.00  0.00     0.028 C 
ATOM     10  C   LIG d   1      -3.939  78.681 119.416  0.00  0.00     0.006 C 
ENDBRANCH   8   9
BRANCH   8  11
ATOM     11  C   LIG d   1      -5.791  79.397 117.004  0.00  0.00     0.028 C 
ATOM     12  C   LIG d   1      -6.643  80.612 117.405  0.00  0.00     0.006 C 
ENDBRANCH   8  11
ENDBRANCH   7   8
ENDBRANCH   1   7
BRANCH   6  13
ATOM     13  N   LIG d   1      -1.408  76.497 115.932  0.00  0.00    -0.311 N 
ATOM     14  C   LIG d   1      -1.684  75.194 115.924  0.00  0.00     0.210 C 
ATOM     15  C   LIG d   1      -0.910  74.363 116.952  0.00  0.00     0.109 C 
ATOM     16  O   LIG d   1      -2.474  74.643 115.142  0.00  0.00    -0.276 OA
ATOM     17  H   LIG d   1      -0.731  76.854 116.578  0.00  0.00     0.149 HD
ENDBRANCH   6  13
BRANCH   5  18
ATOM     18  N   LIG d   1      -0.972  76.649 112.912  0.00  0.00     0.381 N 
ATOM     19  H   LIG d   1      -1.850  76.237 112.665  0.00  0.00    -0.090 HD
ATOM     20  H   LIG d   1      -0.432  75.963 113.410  0.00  0.00    -0.090 HD
ATOM     21  H   LIG d   1      -0.487  76.932 112.090  0.00  0.00    -0.090 HD
ENDBRANCH   5  18
BRANCH   3  22
ATOM     22  C   LIG d   1      -2.335  81.236 113.094  0.00  0.00     0.382 C 
ATOM     23  O   LIG d   1      -1.325  81.980 113.093  0.00  0.00    -0.241 OA
ATOM     24  O   LIG d   1      -3.390  81.635 112.565  0.00  0.00    -0.241 OA
ENDBRANCH   3  22
TORSDOF 7
ENDMDL
MODEL 4
REMARK VINA RESULT:      -4.8      2.244      4.746
REMARK  7 active torsions:
REMARK  status: ('A' for Active; 'I' for Inactive)
REMARK    1  A    between atoms: C_2  and  C_3 
REMARK    2  A    between atoms: C_3  and  O_6 
REMARK    3  A    between atoms: C_3  and  C_4 
REMARK    4  A    between atoms: C_7  and  O_6 
REMARK    5  A    between atoms: C_9  and  C_10 
REMARK    6  A    between atoms: N_15  and  C_14 
REMARK    7  A    between atoms: N_20  and  C_19 
REMARK       I    between atoms: C_22  and  N_20 
ROOT
ATOM      1  C   LIG d   1      -1.745  76.679 114.859  0.00  0.00     0.161 C 
ATOM      2  C   LIG d   1      -1.794  76.588 116.260  0.00  0.00     0.016 C 
ATOM      3  C   LIG d   1      -1.487  77.667 117.121  0.00  0.00     0.038 C 
ATOM      4  C   LIG d   1      -1.256  78.962 116.634  0.00  0.00     0.028 C 
ATOM      5  C   LIG d   1      -0.700  78.984 115.214  0.00  0.00    -0.047 C 
ATOM      6  C   LIG d   1      -1.602  78.113 114.309  0.00  0.00     0.091 C 
ENDROOT
BRANCH   1   7
ATOM      7  O   LIG d   1      -2.901  76.036 114.287  0.00  0.00    -0.368 OA
BRANCH   7   8
ATOM      8  C   LIG d   1      -4.013  75.807 115.186  0.00  0.00     0.119 C 
BRANCH   8   9
ATOM      9  C   LIG d   1      -4.623  74.438 114.830  0.00  0.00     0.028 C 
ATOM     10  C   LIG d   1      -5.953  74.180 115.558  0.00  0.00     0.006 C 
ENDBRANCH   8   9
BRANCH   8  11
ATOM     11  C   LIG d   1      -5.135  76.824 114.954  0.00  0.00     0.028 C 
ATOM     12  C   LIG d   1      -5.309  77.799 116.129  0.00  0.00     0.006 C 
ENDBRANCH   8  11
ENDBRANCH   7   8
ENDBRANCH   1   7
BRANCH   6  13
ATOM     13  N   LIG d   1      -1.082  78.013 112.920  0.00  0.00    -0.311 N 
ATOM     14  C   LIG d   1      -1.459  78.827 111.936  0.00  0.00     0.210 C 
ATOM     15  C   LIG d   1      -0.817  78.537 110.576  0.00  0.00     0.109 C 
ATOM     16  O   LIG d   1      -2.239  79.782 112.067  0.00  0.00    -0.276 OA
ATOM     17  H   LIG d   1      -0.421  77.285 112.732  0.00  0.00     0.149 HD
ENDBRANCH   6  13
BRANCH   5  18
ATOM     18  N   LIG d   1      -0.636  80.393 114.782  0.00  0.00     0.381 N 
ATOM     19  H   LIG d   1      -0.731  80.995 115.576  0.00  0.00    -0.090 HD
ATOM     20  H   LIG d   1      -1.400  80.576 114.155  0.00  0.00    -0.090 HD
ATOM     21  H   LIG d   1       0.230  80.570 114.324  0.00  0.00    -0.090 HD
ENDBRANCH   5  18
BRANCH   3  22
ATOM     22  C   LIG d   1      -1.371  77.446 118.485  0.00  0.00     0.382 C 
ATOM     23  O   LIG d   1      -2.146  78.028 119.283  0.00  0.00    -0.241 OA
ATOM     24  O   LIG d   1      -0.474  76.707 118.932  0.00  0.00    -0.241 OA
ENDBRANCH   3  22
TORSDOF 7
ENDMDL
MODEL 5
REMARK VINA RESULT:      -4.8      2.704      5.187
REMARK  7 active torsions:
REMARK  status: ('A' for Active; 'I' for Inactive)
REMARK    1  A    between atoms: C_2  and  C_3 
REMARK    2  A    between atoms: C_3  and  O_6 
REMARK    3  A    between atoms: C_3  and  C_4 
REMARK    4  A    between atoms: C_7  and  O_6 
REMARK    5  A    between atoms: C_9  and  C_10 
REMARK    6  A    between atoms: N_15  and  C_14 
REMARK    7  A    between atoms: N_20  and  C_19 
REMARK       I    between atoms: C_22  and  N_20 
ROOT
ATOM      1  C   LIG d   1      -1.417  79.827 113.760  0.00  0.00     0.161 C 
ATOM      2  C   LIG d   1      -2.382  78.836 114.003  0.00  0.00     0.016 C 
ATOM      3  C   LIG d   1      -2.652  77.776 113.107  0.00  0.00     0.038 C 
ATOM      4  C   LIG d   1      -1.865  77.550 111.968  0.00  0.00     0.028 C 
ATOM      5  C   LIG d   1      -1.209  78.814 111.424  0.00  0.00    -0.047 C 
ATOM      6  C   LIG d   1      -0.472  79.533 112.576  0.00  0.00     0.091 C 
ENDROOT
BRANCH   1   7
ATOM      7  O   LIG d   1      -0.656  80.073 114.960  0.00  0.00    -0.368 OA
BRANCH   7   8
ATOM      8  C   LIG d   1      -0.973  79.235 116.098  0.00  0.00     0.119 C 
BRANCH   8   9
ATOM      9  C   LIG d   1      -1.164  80.161 117.315  0.00  0.00     0.028 C 
ATOM     10  C   LIG d   1      -2.613  80.658 117.452  0.00  0.00     0.006 C 
ENDBRANCH   8   9
BRANCH   8  11
ATOM     11  C   LIG d   1       0.203  78.324 116.463  0.00  0.00     0.028 C 
ATOM     12  C   LIG d   1      -0.085  76.840 116.186  0.00  0.00     0.006 C 
ENDBRANCH   8  11
ENDBRANCH   7   8
ENDBRANCH   1   7
BRANCH   6  13
ATOM     13  N   LIG d   1       0.127  80.824 112.148  0.00  0.00    -0.311 N 
ATOM     14  C   LIG d   1      -0.578  81.942 111.988  0.00  0.00     0.210 C 
ATOM     15  C   LIG d   1       0.231  83.156 111.521  0.00  0.00     0.109 C 
ATOM     16  O   LIG d   1      -1.792  82.052 112.219  0.00  0.00    -0.276 OA
ATOM     17  H   LIG d   1       1.112  80.833 111.969  0.00  0.00     0.149 HD
ENDBRANCH   6  13
BRANCH   5  18
ATOM     18  N   LIG d   1      -0.311  78.412 110.325  0.00  0.00     0.381 N 
ATOM     19  H   LIG d   1      -0.794  78.477 109.451  0.00  0.00    -0.090 HD
ATOM     20  H   LIG d   1      -0.036  77.456 110.463  0.00  0.00    -0.090 HD
ATOM     21  H   LIG d   1       0.495  78.998 110.311  0.00  0.00    -0.090 HD
ENDBRANCH   5  18
BRANCH   3  22
ATOM     22  C   LIG d   1      -3.746  76.953 113.326  0.00  0.00     0.382 C 
ATOM     23  O   LIG d   1      -3.625  75.924 114.033  0.00  0.00    -0.241 OA
ATOM     24  O   LIG d   1      -4.842  77.203 112.789  0.00  0.00    -0.241 OA
ENDBRANCH   3  22
TORSDOF 7
ENDMDL
MODEL 6
REMARK VINA RESULT:      -4.7      3.039      6.282
REMARK  7 active torsions:
REMARK  status: ('A' for Active; 'I' for Inactive)
REMARK    1  A    between atoms: C_2  and  C_3 
REMARK    2  A    between atoms: C_3  and  O_6 
REMARK    3  A    between atoms: C_3  and  C_4 
REMARK    4  A    between atoms: C_7  and  O_6 
REMARK    5  A    between atoms: C_9  and  C_10 
REMARK    6  A    between atoms: N_15  and  C_14 
REMARK    7  A    between atoms: N_20  and  C_19 
REMARK       I    between atoms: C_22  and  N_20 
ROOT
ATOM      1  C   LIG d   1      -3.919  79.499 116.148  0.00  0.00     0.161 C 
ATOM      2  C   LIG d   1      -3.745  78.249 115.531  0.00  0.00     0.016 C 
ATOM      3  C   LIG d   1      -4.737  77.242 115.520  0.00  0.00     0.038 C 
ATOM      4  C   LIG d   1      -6.036  77.475 115.998  0.00  0.00     0.028 C 
ATOM      5  C   LIG d   1      -6.099  78.547 117.081  0.00  0.00    -0.047 C 
ATOM      6  C   LIG d   1      -5.368  79.812 116.578  0.00  0.00     0.091 C 
ENDROOT
BRANCH   1   7
ATOM      7  O   LIG d   1      -3.415  80.542 115.291  0.00  0.00    -0.368 OA
BRANCH   7   8
ATOM      8  C   LIG d   1      -2.385  80.150 114.349  0.00  0.00     0.119 C 
BRANCH   8   9
ATOM      9  C   LIG d   1      -1.026  80.551 114.956  0.00  0.00     0.028 C 
ATOM     10  C   LIG d   1      -0.204  79.333 115.410  0.00  0.00     0.006 C 
ENDBRANCH   8   9
BRANCH   8  11
ATOM     11  C   LIG d   1      -2.495  80.942 113.043  0.00  0.00     0.028 C 
ATOM     12  C   LIG d   1      -1.149  81.527 112.586  0.00  0.00     0.006 C 
ENDBRANCH   8  11
ENDBRANCH   7   8
ENDBRANCH   1   7
BRANCH   6  13
ATOM     13  N   LIG d   1      -5.310  80.881 117.609  0.00  0.00    -0.311 N 
ATOM     14  C   LIG d   1      -6.165  81.902 117.656  0.00  0.00     0.210 C 
ATOM     15  C   LIG d   1      -5.915  82.903 118.788  0.00  0.00     0.109 C 
ATOM     16  O   LIG d   1      -7.125  82.055 116.886  0.00  0.00    -0.276 OA
ATOM     17  H   LIG d   1      -4.580  80.817 118.292  0.00  0.00     0.149 HD
ENDBRANCH   6  13
BRANCH   5  18
ATOM     18  N   LIG d   1      -7.522  78.785 117.389  0.00  0.00     0.381 N 
ATOM     19  H   LIG d   1      -7.605  79.231 118.281  0.00  0.00    -0.090 HD
ATOM     20  H   LIG d   1      -7.998  77.901 117.432  0.00  0.00    -0.090 HD
ATOM     21  H   LIG d   1      -7.932  79.357 116.684  0.00  0.00    -0.090 HD
ENDBRANCH   5  18
BRANCH   3  22
ATOM     22  C   LIG d   1      -4.422  75.972 115.062  0.00  0.00     0.382 C 
ATOM     23  O   LIG d   1      -3.848  75.829 113.956  0.00  0.00    -0.241 OA
ATOM     24  O   LIG d   1      -4.744  74.965 115.721  0.00  0.00    -0.241 OA
ENDBRANCH   3  22
TORSDOF 7
ENDMDL
MODEL 7
REMARK VINA RESULT:      -4.7      2.942      4.706
REMARK  7 active torsions:
REMARK  status: ('A' for Active; 'I' for Inactive)
REMARK    1  A    between atoms: C_2  and  C_3 
REMARK    2  A    between atoms: C_3  and  O_6 
REMARK    3  A    between atoms: C_3  and  C_4 
REMARK    4  A    between atoms: C_7  and  O_6 
REMARK    5  A    between atoms: C_9  and  C_10 
REMARK    6  A    between atoms: N_15  and  C_14 
REMARK    7  A    between atoms: N_20  and  C_19 
REMARK       I    between atoms: C_22  and  N_20 
ROOT
ATOM      1  C   LIG d   1      -1.484  78.231 114.962  0.00  0.00     0.161 C 
ATOM      2  C   LIG d   1      -1.548  77.509 113.759  0.00  0.00     0.016 C 
ATOM      3  C   LIG d   1      -1.639  78.121 112.488  0.00  0.00     0.038 C 
ATOM      4  C   LIG d   1      -1.518  79.509 112.323  0.00  0.00     0.028 C 
ATOM      5  C   LIG d   1      -1.958  80.305 113.547  0.00  0.00    -0.047 C 
ATOM      6  C   LIG d   1      -1.239  79.746 114.795  0.00  0.00     0.091 C 
ENDROOT
BRANCH   1   7
ATOM      7  O   LIG d   1      -0.485  77.654 115.825  0.00  0.00    -0.368 OA
BRANCH   7   8
ATOM      8  C   LIG d   1      -0.961  77.122 117.086  0.00  0.00     0.119 C 
BRANCH   8   9
ATOM      9  C   LIG d   1      -0.428  75.682 117.212  0.00  0.00     0.028 C 
ATOM     10  C   LIG d   1      -1.251  74.677 116.387  0.00  0.00     0.006 C 
ENDBRANCH   8   9
BRANCH   8  11
ATOM     11  C   LIG d   1      -2.487  76.992 117.094  0.00  0.00     0.028 C 
ATOM     12  C   LIG d   1      -3.150  77.816 118.209  0.00  0.00     0.006 C 
ENDBRANCH   8  11
ENDBRANCH   7   8
ENDBRANCH   1   7
BRANCH   6  13
ATOM     13  N   LIG d   1      -1.677  80.413 116.049  0.00  0.00    -0.311 N 
ATOM     14  C   LIG d   1      -0.839  81.020 116.888  0.00  0.00     0.210 C 
ATOM     15  C   LIG d   1      -1.495  81.627 118.131  0.00  0.00     0.109 C 
ATOM     16  O   LIG d   1       0.382  81.141 116.704  0.00  0.00    -0.276 OA
ATOM     17  H   LIG d   1      -2.655  80.390 116.260  0.00  0.00     0.149 HD
ENDBRANCH   6  13
BRANCH   5  18
ATOM     18  N   LIG d   1      -1.650  81.725 113.290  0.00  0.00     0.381 N 
ATOM     19  H   LIG d   1      -1.312  82.155 114.127  0.00  0.00    -0.090 HD
ATOM     20  H   LIG d   1      -2.494  82.195 113.012  0.00  0.00    -0.090 HD
ATOM     21  H   LIG d   1      -0.966  81.800 112.569  0.00  0.00    -0.090 HD
ENDBRANCH   5  18
BRANCH   3  22
ATOM     22  C   LIG d   1      -1.893  77.345 111.367  0.00  0.00     0.382 C 
ATOM     23  O   LIG d   1      -2.918  77.557 110.677  0.00  0.00    -0.241 OA
ATOM     24  O   LIG d   1      -1.132  76.406 111.064  0.00  0.00    -0.241 OA
ENDBRANCH   3  22
TORSDOF 7
ENDMDL
MODEL 8
REMARK VINA RESULT:      -4.6      2.148      2.486
REMARK  7 active torsions:
REMARK  status: ('A' for Active; 'I' for Inactive)
REMARK    1  A    between atoms: C_2  and  C_3 
REMARK    2  A    between atoms: C_3  and  O_6 
REMARK    3  A    between atoms: C_3  and  C_4 
REMARK    4  A    between atoms: C_7  and  O_6 
REMARK    5  A    between atoms: C_9  and  C_10 
REMARK    6  A    between atoms: N_15  and  C_14 
REMARK    7  A    between atoms: N_20  and  C_19 
REMARK       I    between atoms: C_22  and  N_20 
ROOT
ATOM      1  C   LIG d   1      -2.330  78.391 115.505  0.00  0.00     0.161 C 
ATOM      2  C   LIG d   1      -1.482  79.482 115.250  0.00  0.00     0.016 C 
ATOM      3  C   LIG d   1      -1.234  79.988 113.953  0.00  0.00     0.038 C 
ATOM      4  C   LIG d   1      -1.940  79.529 112.831  0.00  0.00     0.028 C 
ATOM      5  C   LIG d   1      -2.431  78.092 112.970  0.00  0.00    -0.047 C 
ATOM      6  C   LIG d   1      -3.195  77.949 114.306  0.00  0.00     0.091 C 
ENDROOT
BRANCH   1   7
ATOM      7  O   LIG d   1      -3.164  78.677 116.646  0.00  0.00    -0.368 OA
BRANCH   7   8
ATOM      8  C   LIG d   1      -4.401  79.378 116.371  0.00  0.00     0.119 C 
BRANCH   8   9
ATOM      9  C   LIG d   1      -4.352  80.718 117.131  0.00  0.00     0.028 C 
ATOM     10  C   LIG d   1      -5.744  81.352 117.293  0.00  0.00     0.006 C 
ENDBRANCH   8   9
BRANCH   8  11
ATOM     11  C   LIG d   1      -5.606  78.629 116.948  0.00  0.00     0.028 C 
ATOM     12  C   LIG d   1      -5.202  77.414 117.798  0.00  0.00     0.006 C 
ENDBRANCH   8  11
ENDBRANCH   7   8
ENDBRANCH   1   7
BRANCH   6  13
ATOM     13  N   LIG d   1      -3.636  76.553 114.560  0.00  0.00    -0.311 N 
ATOM     14  C   LIG d   1      -4.861  76.110 114.282  0.00  0.00     0.210 C 
ATOM     15  C   LIG d   1      -5.115  74.642 114.641  0.00  0.00     0.109 C 
ATOM     16  O   LIG d   1      -5.752  76.783 113.742  0.00  0.00    -0.276 OA
ATOM     17  H   LIG d   1      -2.967  75.930 114.968  0.00  0.00     0.149 HD
ENDBRANCH   6  13
BRANCH   5  18
ATOM     18  N   LIG d   1      -3.266  77.791 111.792  0.00  0.00     0.381 N 
ATOM     19  H   LIG d   1      -3.990  78.476 111.705  0.00  0.00    -0.090 HD
ATOM     20  H   LIG d   1      -3.696  76.892 111.919  0.00  0.00    -0.090 HD
ATOM     21  H   LIG d   1      -2.705  77.785 110.969  0.00  0.00    -0.090 HD
ENDBRANCH   5  18
BRANCH   3  22
ATOM     22  C   LIG d   1      -0.241  80.937 113.764  0.00  0.00     0.382 C 
ATOM     23  O   LIG d   1       0.439  81.335 114.740  0.00  0.00    -0.241 OA
ATOM     24  O   LIG d   1      -0.047  81.432 112.638  0.00  0.00    -0.241 OA
ENDBRANCH   3  22
TORSDOF 7
ENDMDL
MODEL 9
REMARK VINA RESULT:      -4.5      2.489      4.284
REMARK  7 active torsions:
REMARK  status: ('A' for Active; 'I' for Inactive)
REMARK    1  A    between atoms: C_2  and  C_3 
REMARK    2  A    between atoms: C_3  and  O_6 
REMARK    3  A    between atoms: C_3  and  C_4 
REMARK    4  A    between atoms: C_7  and  O_6 
REMARK    5  A    between atoms: C_9  and  C_10 
REMARK    6  A    between atoms: N_15  and  C_14 
REMARK    7  A    between atoms: N_20  and  C_19 
REMARK       I    between atoms: C_22  and  N_20 
ROOT
ATOM      1  C   LIG d   1      -2.616  78.054 115.090  0.00  0.00     0.161 C 
ATOM      2  C   LIG d   1      -2.486  77.640 113.753  0.00  0.00     0.016 C 
ATOM      3  C   LIG d   1      -1.685  78.315 112.804  0.00  0.00     0.038 C 
ATOM      4  C   LIG d   1      -0.834  79.369 113.167  0.00  0.00     0.028 C 
ATOM      5  C   LIG d   1      -1.313  80.139 114.393  0.00  0.00    -0.047 C 
ATOM      6  C   LIG d   1      -1.608  79.136 115.532  0.00  0.00     0.091 C 
ENDROOT
BRANCH   1   7
ATOM      7  O   LIG d   1      -2.540  76.912 115.965  0.00  0.00    -0.368 OA
BRANCH   7   8
ATOM      8  C   LIG d   1      -2.691  75.616 115.335  0.00  0.00     0.119 C 
BRANCH   8   9
ATOM      9  C   LIG d   1      -4.070  75.061 115.740  0.00  0.00     0.028 C 
ATOM     10  C   LIG d   1      -5.050  75.002 114.557  0.00  0.00     0.006 C 
ENDBRANCH   8   9
BRANCH   8  11
ATOM     11  C   LIG d   1      -1.673  74.609 115.880  0.00  0.00     0.028 C 
ATOM     12  C   LIG d   1      -0.748  75.216 116.947  0.00  0.00     0.006 C 
ENDBRANCH   8  11
ENDBRANCH   7   8
ENDBRANCH   1   7
BRANCH   6  13
ATOM     13  N   LIG d   1      -2.162  79.799 116.741  0.00  0.00    -0.311 N 
ATOM     14  C   LIG d   1      -3.326  80.446 116.755  0.00  0.00     0.210 C 
ATOM     15  C   LIG d   1      -3.701  81.074 118.101  0.00  0.00     0.109 C 
ATOM     16  O   LIG d   1      -4.099  80.532 115.788  0.00  0.00    -0.276 OA
ATOM     17  H   LIG d   1      -1.615  79.751 117.578  0.00  0.00     0.149 HD
ENDBRANCH   6  13
BRANCH   5  18
ATOM     18  N   LIG d   1      -0.265  81.118 114.742  0.00  0.00     0.381 N 
ATOM     19  H   LIG d   1       0.634  80.682 114.698  0.00  0.00    -0.090 HD
ATOM     20  H   LIG d   1      -0.417  81.434 115.684  0.00  0.00    -0.090 HD
ATOM     21  H   LIG d   1      -0.299  81.891 114.115  0.00  0.00    -0.090 HD
ENDBRANCH   5  18
BRANCH   3  22
ATOM     22  C   LIG d   1      -1.761  77.961 111.465  0.00  0.00     0.382 C 
ATOM     23  O   LIG d   1      -0.764  78.115 110.719  0.00  0.00    -0.241 OA
ATOM     24  O   LIG d   1      -2.826  77.531 110.985  0.00  0.00    -0.241 OA
ENDBRANCH   3  22
TORSDOF 7
ENDMDL
