MODEL 1
REMARK VINA RESULT:      -5.1      0.000      0.000
REMARK  7 active torsions:
REMARK  status: ('A' for Active; 'I' for Inactive)
REMARK    1  A    between atoms: C_2  and  C_3 
REMARK    2  A    between atoms: C_3  and  O_6 
REMARK    3  A    between atoms: C_3  and  C_4 
REMARK    4  A    between atoms: C_7  and  O_6 
REMARK    5  A    between atoms: C_9  and  C_10 
REMARK    6  A    between atoms: N_15  and  C_14 
REMARK    7  A    between atoms: N_20  and  C_19 
REMARK       I    between atoms: C_22  and  N_20 
ROOT
ATOM      1  C   LIG d   1      -3.433  76.741 114.971  0.00  0.00     0.161 C 
ATOM      2  C   LIG d   1      -3.522  77.166 113.634  0.00  0.00     0.016 C 
ATOM      3  C   LIG d   1      -2.394  77.465 112.836  0.00  0.00     0.038 C 
ATOM      4  C   LIG d   1      -1.086  77.213 113.276  0.00  0.00     0.028 C 
ATOM      5  C   LIG d   1      -0.938  77.264 114.793  0.00  0.00    -0.047 C 
ATOM      6  C   LIG d   1      -2.012  76.355 115.433  0.00  0.00     0.091 C 
ENDROOT
BRANCH   1   7
ATOM      7  O   LIG d   1      -4.348  75.652 115.200  0.00  0.00    -0.368 OA
BRANCH   7   8
ATOM      8  C   LIG d   1      -5.449  75.923 116.102  0.00  0.00     0.119 C 
BRANCH   8   9
ATOM      9  C   LIG d   1      -6.755  75.764 115.299  0.00  0.00     0.028 C 
ATOM     10  C   LIG d   1      -7.946  75.371 116.189  0.00  0.00     0.006 C 
ENDBRANCH   8   9
BRANCH   8  11
ATOM     11  C   LIG d   1      -5.437  77.380 116.573  0.00  0.00     0.028 C 
ATOM     12  C   LIG d   1      -5.319  77.513 118.099  0.00  0.00     0.006 C 
ENDBRANCH   8  11
ENDBRANCH   7   8
ENDBRANCH   1   7
BRANCH   6  13
ATOM     13  N   LIG d   1      -1.991  76.412 116.918  0.00  0.00    -0.311 N 
ATOM     14  C   LIG d   1      -2.157  75.343 117.695  0.00  0.00     0.210 C 
ATOM     15  C   LIG d   1      -2.120  75.625 119.200  0.00  0.00     0.109 C 
ATOM     16  O   LIG d   1      -2.299  74.182 117.280  0.00  0.00    -0.276 OA
ATOM     17  H   LIG d   1      -1.850  77.309 117.338  0.00  0.00     0.149 HD
ENDBRANCH   6  13
BRANCH   5  18
ATOM     18  N   LIG d   1       0.440  76.849 115.120  0.00  0.00     0.381 N 
ATOM     19  H   LIG d   1       0.420  76.096 115.778  0.00  0.00    -0.090 HD
ATOM     20  H   LIG d   1       0.921  77.624 115.541  0.00  0.00    -0.090 HD
ATOM     21  H   LIG d   1       0.915  76.563 114.292  0.00  0.00    -0.090 HD
ENDBRANCH   5  18
BRANCH   3  22
ATOM     22  C   LIG d   1      -2.569  78.060 111.596  0.00  0.00     0.382 C 
ATOM     23  O   LIG d   1      -2.038  79.170 111.353  0.00  0.00    -0.241 OA
ATOM     24  O   LIG d   1      -3.287  77.521 110.732  0.00  0.00    -0.241 OA
ENDBRANCH   3  22
TORSDOF 7
ENDMDL
MODEL 2
REMARK VINA RESULT:      -5.0      2.182      3.176
REMARK  7 active torsions:
REMARK  status: ('A' for Active; 'I' for Inactive)
REMARK    1  A    between atoms: C_2  and  C_3 
REMARK    2  A    between atoms: C_3  and  O_6 
REMARK    3  A    between atoms: C_3  and  C_4 
REMARK    4  A    between atoms: C_7  and  O_6 
REMARK    5  A    between atoms: C_9  and  C_10 
REMARK    6  A    between atoms: N_15  and  C_14 
REMARK    7  A    between atoms: N_20  and  C_19 
REMARK       I    between atoms: C_22  and  N_20 
ROOT
ATOM      1  C   LIG d   1      -2.435  78.257 114.810  0.00  0.00     0.161 C 
ATOM      2  C   LIG d   1      -2.870  79.484 114.283  0.00  0.00     0.016 C 
ATOM      3  C   LIG d   1      -2.582  79.911 112.966  0.00  0.00     0.038 C 
ATOM      4  C   LIG d   1      -1.964  79.067 112.032  0.00  0.00     0.028 C 
ATOM      5  C   LIG d   1      -1.062  78.015 112.669  0.00  0.00    -0.047 C 
ATOM      6  C   LIG d   1      -1.855  77.275 113.771  0.00  0.00     0.091 C 
ENDROOT
BRANCH   1   7
ATOM      7  O   LIG d   1      -3.508  77.633 115.544  0.00  0.00    -0.368 OA
BRANCH   7   8
ATOM      8  C   LIG d   1      -3.741  78.136 116.883  0.00  0.00     0.119 C 
BRANCH   8   9
ATOM      9  C   LIG d   1      -2.509  77.774 117.734  0.00  0.00     0.028 C 
ATOM     10  C   LIG d   1      -2.608  76.364 118.341  0.00  0.00     0.006 C 
ENDBRANCH   8   9
BRANCH   8  11
ATOM     11  C   LIG d   1      -4.919  77.419 117.549  0.00  0.00     0.028 C 
ATOM     12  C   LIG d   1      -5.866  76.757 116.535  0.00  0.00     0.006 C 
ENDBRANCH   8  11
ENDBRANCH   7   8
ENDBRANCH   1   7
BRANCH   6  13
ATOM     13  N   LIG d   1      -1.021  76.286 114.502  0.00  0.00    -0.311 N 
ATOM     14  C   LIG d   1      -1.503  75.151 115.005  0.00  0.00     0.210 C 
ATOM     15  C   LIG d   1      -0.476  74.283 115.740  0.00  0.00     0.109 C 
ATOM     16  O   LIG d   1      -2.675  74.765 114.885  0.00  0.00    -0.276 OA
ATOM     17  H   LIG d   1      -0.051  76.505 114.618  0.00  0.00     0.149 HD
ENDBRANCH   6  13
BRANCH   5  18
ATOM     18  N   LIG d   1      -0.592  77.120 111.595  0.00  0.00     0.381 N 
ATOM     19  H   LIG d   1      -0.271  76.258 111.988  0.00  0.00    -0.090 HD
ATOM     20  H   LIG d   1       0.178  77.558 111.121  0.00  0.00    -0.090 HD
ATOM     21  H   LIG d   1      -1.331  76.945 110.950  0.00  0.00    -0.090 HD
ENDBRANCH   5  18
BRANCH   3  22
ATOM     22  C   LIG d   1      -2.878  81.211 112.585  0.00  0.00     0.382 C 
ATOM     23  O   LIG d   1      -1.978  81.946 112.113  0.00  0.00    -0.241 OA
ATOM     24  O   LIG d   1      -4.024  81.671 112.749  0.00  0.00    -0.241 OA
ENDBRANCH   3  22
TORSDOF 7
ENDMDL
MODEL 3
REMARK VINA RESULT:      -4.9      1.192      1.429
REMARK  7 active torsions:
REMARK  status: ('A' for Active; 'I' for Inactive)
REMARK    1  A    between atoms: C_2  and  C_3 
REMARK    2  A    between atoms: C_3  and  O_6 
REMARK    3  A    between atoms: C_3  and  C_4 
REMARK    4  A    between atoms: C_7  and  O_6 
REMARK    5  A    between atoms: C_9  and  C_10 
REMARK    6  A    between atoms: N_15  and  C_14 
REMARK    7  A    between atoms: N_20  and  C_19 
REMARK       I    between atoms: C_22  and  N_20 
ROOT
ATOM      1  C   LIG d   1      -2.811  77.665 114.841  0.00  0.00     0.161 C 
ATOM      2  C   LIG d   1      -2.587  78.019 113.500  0.00  0.00     0.016 C 
ATOM      3  C   LIG d   1      -1.540  77.480 112.718  0.00  0.00     0.038 C 
ATOM      4  C   LIG d   1      -0.732  76.431 113.181  0.00  0.00     0.028 C 
ATOM      5  C   LIG d   1      -0.598  76.396 114.700  0.00  0.00    -0.047 C 
ATOM      6  C   LIG d   1      -2.009  76.440 115.329  0.00  0.00     0.091 C 
ENDROOT
BRANCH   1   7
ATOM      7  O   LIG d   1      -4.220  77.462 115.064  0.00  0.00    -0.368 OA
BRANCH   7   8
ATOM      8  C   LIG d   1      -4.662  76.084 115.138  0.00  0.00     0.119 C 
BRANCH   8   9
ATOM      9  C   LIG d   1      -5.392  75.761 113.820  0.00  0.00     0.028 C 
ATOM     10  C   LIG d   1      -6.913  75.962 113.927  0.00  0.00     0.006 C 
ENDBRANCH   8   9
BRANCH   8  11
ATOM     11  C   LIG d   1      -5.709  75.893 116.239  0.00  0.00     0.028 C 
ATOM     12  C   LIG d   1      -5.847  77.123 117.150  0.00  0.00     0.006 C 
ENDBRANCH   8  11
ENDBRANCH   7   8
ENDBRANCH   1   7
BRANCH   6  13
ATOM     13  N   LIG d   1      -1.965  76.494 116.814  0.00  0.00    -0.311 N 
ATOM     14  C   LIG d   1      -2.061  75.416 117.589  0.00  0.00     0.210 C 
ATOM     15  C   LIG d   1      -2.014  75.695 119.095  0.00  0.00     0.109 C 
ATOM     16  O   LIG d   1      -2.148  74.251 117.173  0.00  0.00    -0.276 OA
ATOM     17  H   LIG d   1      -1.865  77.397 117.235  0.00  0.00     0.149 HD
ENDBRANCH   6  13
BRANCH   5  18
ATOM     18  N   LIG d   1       0.154  75.176 115.052  0.00  0.00     0.381 N 
ATOM     19  H   LIG d   1      -0.253  74.749 115.860  0.00  0.00    -0.090 HD
ATOM     20  H   LIG d   1       1.101  75.431 115.274  0.00  0.00    -0.090 HD
ATOM     21  H   LIG d   1       0.145  74.537 114.288  0.00  0.00    -0.090 HD
ENDBRANCH   5  18
BRANCH   3  22
ATOM     22  C   LIG d   1      -1.267  78.020 111.470  0.00  0.00     0.382 C 
ATOM     23  O   LIG d   1      -0.642  77.344 110.617  0.00  0.00    -0.241 OA
ATOM     24  O   LIG d   1      -1.598  79.190 111.201  0.00  0.00    -0.241 OA
ENDBRANCH   3  22
TORSDOF 7
ENDMDL
MODEL 4
REMARK VINA RESULT:      -4.9      1.630      2.242
REMARK  7 active torsions:
REMARK  status: ('A' for Active; 'I' for Inactive)
REMARK    1  A    between atoms: C_2  and  C_3 
REMARK    2  A    between atoms: C_3  and  O_6 
REMARK    3  A    between atoms: C_3  and  C_4 
REMARK    4  A    between atoms: C_7  and  O_6 
REMARK    5  A    between atoms: C_9  and  C_10 
REMARK    6  A    between atoms: N_15  and  C_14 
REMARK    7  A    between atoms: N_20  and  C_19 
REMARK       I    between atoms: C_22  and  N_20 
ROOT
ATOM      1  C   LIG d   1      -2.154  77.608 116.074  0.00  0.00     0.161 C 
ATOM      2  C   LIG d   1      -2.625  78.478 115.077  0.00  0.00     0.016 C 
ATOM      3  C   LIG d   1      -2.183  78.435 113.735  0.00  0.00     0.038 C 
ATOM      4  C   LIG d   1      -1.346  77.414 113.262  0.00  0.00     0.028 C 
ATOM      5  C   LIG d   1      -0.450  76.816 114.342  0.00  0.00    -0.047 C 
ATOM      6  C   LIG d   1      -1.323  76.416 115.553  0.00  0.00     0.091 C 
ENDROOT
BRANCH   1   7
ATOM      7  O   LIG d   1      -3.257  77.138 116.874  0.00  0.00    -0.368 OA
BRANCH   7   8
ATOM      8  C   LIG d   1      -4.529  77.009 116.193  0.00  0.00     0.119 C 
BRANCH   8   9
ATOM      9  C   LIG d   1      -5.634  77.379 117.202  0.00  0.00     0.028 C 
ATOM     10  C   LIG d   1      -5.518  78.831 117.693  0.00  0.00     0.006 C 
ENDBRANCH   8   9
BRANCH   8  11
ATOM     11  C   LIG d   1      -4.806  75.554 115.802  0.00  0.00     0.028 C 
ATOM     12  C   LIG d   1      -5.164  75.395 114.316  0.00  0.00     0.006 C 
ENDBRANCH   8  11
ENDBRANCH   7   8
ENDBRANCH   1   7
BRANCH   6  13
ATOM     13  N   LIG d   1      -0.515  75.900 116.689  0.00  0.00    -0.311 N 
ATOM     14  C   LIG d   1      -0.882  74.861 117.437  0.00  0.00     0.210 C 
ATOM     15  C   LIG d   1       0.087  74.506 118.570  0.00  0.00     0.109 C 
ATOM     16  O   LIG d   1      -1.901  74.180 117.251  0.00  0.00    -0.276 OA
ATOM     17  H   LIG d   1       0.343  76.375 116.891  0.00  0.00     0.149 HD
ENDBRANCH   6  13
BRANCH   5  18
ATOM     18  N   LIG d   1       0.268  75.674 113.744  0.00  0.00     0.381 N 
ATOM     19  H   LIG d   1       0.542  75.033 114.462  0.00  0.00    -0.090 HD
ATOM     20  H   LIG d   1       1.098  76.014 113.291  0.00  0.00    -0.090 HD
ATOM     21  H   LIG d   1      -0.317  75.213 113.082  0.00  0.00    -0.090 HD
ENDBRANCH   5  18
BRANCH   3  22
ATOM     22  C   LIG d   1      -2.549  79.445 112.858  0.00  0.00     0.382 C 
ATOM     23  O   LIG d   1      -3.308  80.366 113.245  0.00  0.00    -0.241 OA
ATOM     24  O   LIG d   1      -2.164  79.424 111.674  0.00  0.00    -0.241 OA
ENDBRANCH   3  22
TORSDOF 7
ENDMDL
MODEL 5
REMARK VINA RESULT:      -4.8      2.287      4.683
REMARK  7 active torsions:
REMARK  status: ('A' for Active; 'I' for Inactive)
REMARK    1  A    between atoms: C_2  and  C_3 
REMARK    2  A    between atoms: C_3  and  O_6 
REMARK    3  A    between atoms: C_3  and  C_4 
REMARK    4  A    between atoms: C_7  and  O_6 
REMARK    5  A    between atoms: C_9  and  C_10 
REMARK    6  A    between atoms: N_15  and  C_14 
REMARK    7  A    between atoms: N_20  and  C_19 
REMARK       I    between atoms: C_22  and  N_20 
ROOT
ATOM      1  C   LIG d   1      -3.897  76.095 114.442  0.00  0.00     0.161 C 
ATOM      2  C   LIG d   1      -4.819  76.508 113.466  0.00  0.00     0.016 C 
ATOM      3  C   LIG d   1      -6.202  76.217 113.528  0.00  0.00     0.038 C 
ATOM      4  C   LIG d   1      -6.783  75.619 114.655  0.00  0.00     0.028 C 
ATOM      5  C   LIG d   1      -5.818  74.735 115.438  0.00  0.00    -0.047 C 
ATOM      6  C   LIG d   1      -4.530  75.537 115.734  0.00  0.00     0.091 C 
ENDROOT
BRANCH   1   7
ATOM      7  O   LIG d   1      -2.996  77.176 114.751  0.00  0.00    -0.368 OA
BRANCH   7   8
ATOM      8  C   LIG d   1      -1.824  77.290 113.908  0.00  0.00     0.119 C 
BRANCH   8   9
ATOM      9  C   LIG d   1      -0.629  76.719 114.696  0.00  0.00     0.028 C 
ATOM     10  C   LIG d   1      -0.135  77.680 115.791  0.00  0.00     0.006 C 
ENDBRANCH   8   9
BRANCH   8  11
ATOM     11  C   LIG d   1      -1.469  78.756 113.641  0.00  0.00     0.028 C 
ATOM     12  C   LIG d   1      -2.557  79.496 112.847  0.00  0.00     0.006 C 
ENDBRANCH   8  11
ENDBRANCH   7   8
ENDBRANCH   1   7
BRANCH   6  13
ATOM     13  N   LIG d   1      -3.499  74.720 116.424  0.00  0.00    -0.311 N 
ATOM     14  C   LIG d   1      -2.737  75.183 117.413  0.00  0.00     0.210 C 
ATOM     15  C   LIG d   1      -1.722  74.180 117.972  0.00  0.00     0.109 C 
ATOM     16  O   LIG d   1      -2.828  76.318 117.904  0.00  0.00    -0.276 OA
ATOM     17  H   LIG d   1      -3.380  73.776 116.110  0.00  0.00     0.149 HD
ENDBRANCH   6  13
BRANCH   5  18
ATOM     18  N   LIG d   1      -6.514  74.287 116.659  0.00  0.00     0.381 N 
ATOM     19  H   LIG d   1      -6.546  73.287 116.683  0.00  0.00    -0.090 HD
ATOM     20  H   LIG d   1      -7.457  74.633 116.641  0.00  0.00    -0.090 HD
ATOM     21  H   LIG d   1      -6.041  74.630 117.466  0.00  0.00    -0.090 HD
ENDBRANCH   5  18
BRANCH   3  22
ATOM     22  C   LIG d   1      -7.011  76.490 112.436  0.00  0.00     0.382 C 
ATOM     23  O   LIG d   1      -6.496  76.819 111.340  0.00  0.00    -0.241 OA
ATOM     24  O   LIG d   1      -8.251  76.455 112.544  0.00  0.00    -0.241 OA
ENDBRANCH   3  22
TORSDOF 7
ENDMDL
MODEL 6
REMARK VINA RESULT:      -4.8      1.832      4.595
REMARK  7 active torsions:
REMARK  status: ('A' for Active; 'I' for Inactive)
REMARK    1  A    between atoms: C_2  and  C_3 
REMARK    2  A    between atoms: C_3  and  O_6 
REMARK    3  A    between atoms: C_3  and  C_4 
REMARK    4  A    between atoms: C_7  and  O_6 
REMARK    5  A    between atoms: C_9  and  C_10 
REMARK    6  A    between atoms: N_15  and  C_14 
REMARK    7  A    between atoms: N_20  and  C_19 
REMARK       I    between atoms: C_22  and  N_20 
ROOT
ATOM      1  C   LIG d   1      -2.937  76.105 114.627  0.00  0.00     0.161 C 
ATOM      2  C   LIG d   1      -4.292  76.014 114.271  0.00  0.00     0.016 C 
ATOM      3  C   LIG d   1      -5.352  76.258 115.175  0.00  0.00     0.038 C 
ATOM      4  C   LIG d   1      -5.126  76.761 116.464  0.00  0.00     0.028 C 
ATOM      5  C   LIG d   1      -3.760  76.387 117.030  0.00  0.00    -0.047 C 
ATOM      6  C   LIG d   1      -2.671  76.761 115.999  0.00  0.00     0.091 C 
ENDROOT
BRANCH   1   7
ATOM      7  O   LIG d   1      -2.205  76.793 113.593  0.00  0.00    -0.368 OA
BRANCH   7   8
ATOM      8  C   LIG d   1      -2.866  77.937 112.999  0.00  0.00     0.119 C 
BRANCH   8   9
ATOM      9  C   LIG d   1      -2.569  77.909 111.487  0.00  0.00     0.028 C 
ATOM     10  C   LIG d   1      -1.154  77.394 111.176  0.00  0.00     0.006 C 
ENDBRANCH   8   9
BRANCH   8  11
ATOM     11  C   LIG d   1      -2.267  79.253 113.505  0.00  0.00     0.028 C 
ATOM     12  C   LIG d   1      -2.920  80.489 112.868  0.00  0.00     0.006 C 
ENDBRANCH   8  11
ENDBRANCH   7   8
ENDBRANCH   1   7
BRANCH   6  13
ATOM     13  N   LIG d   1      -1.311  76.351 116.437  0.00  0.00    -0.311 N 
ATOM     14  C   LIG d   1      -1.018  75.125 116.868  0.00  0.00     0.210 C 
ATOM     15  C   LIG d   1       0.440  74.920 117.291  0.00  0.00     0.109 C 
ATOM     16  O   LIG d   1      -1.820  74.180 116.910  0.00  0.00    -0.276 OA
ATOM     17  H   LIG d   1      -0.593  77.048 116.406  0.00  0.00     0.149 HD
ENDBRANCH   6  13
BRANCH   5  18
ATOM     18  N   LIG d   1      -3.603  77.089 118.317  0.00  0.00     0.381 N 
ATOM     19  H   LIG d   1      -4.445  77.009 118.852  0.00  0.00    -0.090 HD
ATOM     20  H   LIG d   1      -3.435  78.063 118.138  0.00  0.00    -0.090 HD
ATOM     21  H   LIG d   1      -2.840  76.701 118.827  0.00  0.00    -0.090 HD
ENDBRANCH   5  18
BRANCH   3  22
ATOM     22  C   LIG d   1      -6.655  75.961 114.803  0.00  0.00     0.382 C 
ATOM     23  O   LIG d   1      -7.052  76.226 113.643  0.00  0.00    -0.241 OA
ATOM     24  O   LIG d   1      -7.450  75.470 115.626  0.00  0.00    -0.241 OA
ENDBRANCH   3  22
TORSDOF 7
ENDMDL
MODEL 7
REMARK VINA RESULT:      -4.7      2.883      5.345
REMARK  7 active torsions:
REMARK  status: ('A' for Active; 'I' for Inactive)
REMARK    1  A    between atoms: C_2  and  C_3 
REMARK    2  A    between atoms: C_3  and  O_6 
REMARK    3  A    between atoms: C_3  and  C_4 
REMARK    4  A    between atoms: C_7  and  O_6 
REMARK    5  A    between atoms: C_9  and  C_10 
REMARK    6  A    between atoms: N_15  and  C_14 
REMARK    7  A    between atoms: N_20  and  C_19 
REMARK       I    between atoms: C_22  and  N_20 
ROOT
ATOM      1  C   LIG d   1      -2.942  75.817 116.800  0.00  0.00     0.161 C 
ATOM      2  C   LIG d   1      -4.065  75.331 116.109  0.00  0.00     0.016 C 
ATOM      3  C   LIG d   1      -5.333  75.954 116.151  0.00  0.00     0.038 C 
ATOM      4  C   LIG d   1      -5.529  77.198 116.769  0.00  0.00     0.028 C 
ATOM      5  C   LIG d   1      -4.546  77.472 117.902  0.00  0.00    -0.047 C 
ATOM      6  C   LIG d   1      -3.108  77.234 117.389  0.00  0.00     0.091 C 
ENDROOT
BRANCH   1   7
ATOM      7  O   LIG d   1      -1.782  75.763 115.946  0.00  0.00    -0.368 OA
BRANCH   7   8
ATOM      8  C   LIG d   1      -0.945  74.587 116.082  0.00  0.00     0.119 C 
BRANCH   8   9
ATOM      9  C   LIG d   1       0.250  74.971 116.975  0.00  0.00     0.028 C 
ATOM     10  C   LIG d   1       0.149  74.364 118.384  0.00  0.00     0.006 C 
ENDBRANCH   8   9
BRANCH   8  11
ATOM     11  C   LIG d   1      -0.334  74.180 114.738  0.00  0.00     0.028 C 
ATOM     12  C   LIG d   1       0.055  75.388 113.870  0.00  0.00     0.006 C 
ENDBRANCH   8  11
ENDBRANCH   7   8
ENDBRANCH   1   7
BRANCH   6  13
ATOM     13  N   LIG d   1      -2.089  77.398 118.458  0.00  0.00    -0.311 N 
ATOM     14  C   LIG d   1      -1.033  78.202 118.347  0.00  0.00     0.210 C 
ATOM     15  C   LIG d   1      -0.096  78.209 119.559  0.00  0.00     0.109 C 
ATOM     16  O   LIG d   1      -0.801  78.934 117.374  0.00  0.00    -0.276 OA
ATOM     17  H   LIG d   1      -2.217  76.865 119.296  0.00  0.00     0.149 HD
ENDBRANCH   6  13
BRANCH   5  18
ATOM     18  N   LIG d   1      -4.773  78.855 118.364  0.00  0.00     0.381 N 
ATOM     19  H   LIG d   1      -4.624  78.911 119.352  0.00  0.00    -0.090 HD
ATOM     20  H   LIG d   1      -5.727  79.108 118.174  0.00  0.00    -0.090 HD
ATOM     21  H   LIG d   1      -4.156  79.478 117.892  0.00  0.00    -0.090 HD
ENDBRANCH   5  18
BRANCH   3  22
ATOM     22  C   LIG d   1      -6.433  75.311 115.603  0.00  0.00     0.382 C 
ATOM     23  O   LIG d   1      -6.882  74.270 116.140  0.00  0.00    -0.241 OA
ATOM     24  O   LIG d   1      -6.954  75.733 114.553  0.00  0.00    -0.241 OA
ENDBRANCH   3  22
TORSDOF 7
ENDMDL
MODEL 8
REMARK VINA RESULT:      -4.6      2.594      4.924
REMARK  7 active torsions:
REMARK  status: ('A' for Active; 'I' for Inactive)
REMARK    1  A    between atoms: C_2  and  C_3 
REMARK    2  A    between atoms: C_3  and  O_6 
REMARK    3  A    between atoms: C_3  and  C_4 
REMARK    4  A    between atoms: C_7  and  O_6 
REMARK    5  A    between atoms: C_9  and  C_10 
REMARK    6  A    between atoms: N_15  and  C_14 
REMARK    7  A    between atoms: N_20  and  C_19 
REMARK       I    between atoms: C_22  and  N_20 
ROOT
ATOM      1  C   LIG d   1      -4.861  76.765 116.560  0.00  0.00     0.161 C 
ATOM      2  C   LIG d   1      -5.781  77.574 117.248  0.00  0.00     0.016 C 
ATOM      3  C   LIG d   1      -5.418  78.437 118.308  0.00  0.00     0.038 C 
ATOM      4  C   LIG d   1      -4.078  78.664 118.653  0.00  0.00     0.028 C 
ATOM      5  C   LIG d   1      -3.160  77.491 118.324  0.00  0.00    -0.047 C 
ATOM      6  C   LIG d   1      -3.379  77.082 116.849  0.00  0.00     0.091 C 
ENDROOT
BRANCH   1   7
ATOM      7  O   LIG d   1      -5.119  76.827 115.144  0.00  0.00    -0.368 OA
BRANCH   7   8
ATOM      8  C   LIG d   1      -5.694  75.638 114.548  0.00  0.00     0.119 C 
BRANCH   8   9
ATOM      9  C   LIG d   1      -7.152  75.966 114.174  0.00  0.00     0.028 C 
ATOM     10  C   LIG d   1      -7.290  76.451 112.721  0.00  0.00     0.006 C 
ENDBRANCH   8   9
BRANCH   8  11
ATOM     11  C   LIG d   1      -5.784  74.494 115.563  0.00  0.00     0.028 C 
ATOM     12  C   LIG d   1      -7.204  74.297 116.115  0.00  0.00     0.006 C 
ENDBRANCH   8  11
ENDBRANCH   7   8
ENDBRANCH   1   7
BRANCH   6  13
ATOM     13  N   LIG d   1      -2.581  75.887 116.468  0.00  0.00    -0.311 N 
ATOM     14  C   LIG d   1      -1.720  75.874 115.452  0.00  0.00     0.210 C 
ATOM     15  C   LIG d   1      -1.015  74.534 115.219  0.00  0.00     0.109 C 
ATOM     16  O   LIG d   1      -1.448  76.855 114.743  0.00  0.00    -0.276 OA
ATOM     17  H   LIG d   1      -2.716  75.057 117.011  0.00  0.00     0.149 HD
ENDBRANCH   6  13
BRANCH   5  18
ATOM     18  N   LIG d   1      -1.776  77.915 118.608  0.00  0.00     0.381 N 
ATOM     19  H   LIG d   1      -1.757  78.476 119.436  0.00  0.00    -0.090 HD
ATOM     20  H   LIG d   1      -1.443  78.472 117.841  0.00  0.00    -0.090 HD
ATOM     21  H   LIG d   1      -1.193  77.116 118.726  0.00  0.00    -0.090 HD
ENDBRANCH   5  18
BRANCH   3  22
ATOM     22  C   LIG d   1      -6.406  79.053 119.060  0.00  0.00     0.382 C 
ATOM     23  O   LIG d   1      -7.189  78.361 119.754  0.00  0.00    -0.241 OA
ATOM     24  O   LIG d   1      -6.552  80.290 119.019  0.00  0.00    -0.241 OA
ENDBRANCH   3  22
TORSDOF 7
ENDMDL
MODEL 9
REMARK VINA RESULT:      -4.6      2.545      5.354
REMARK  7 active torsions:
REMARK  status: ('A' for Active; 'I' for Inactive)
REMARK    1  A    between atoms: C_2  and  C_3 
REMARK    2  A    between atoms: C_3  and  O_6 
REMARK    3  A    between atoms: C_3  and  C_4 
REMARK    4  A    between atoms: C_7  and  O_6 
REMARK    5  A    between atoms: C_9  and  C_10 
REMARK    6  A    between atoms: N_15  and  C_14 
REMARK    7  A    between atoms: N_20  and  C_19 
REMARK       I    between atoms: C_22  and  N_20 
ROOT
ATOM      1  C   LIG d   1      -3.193  77.652 115.260  0.00  0.00     0.161 C 
ATOM      2  C   LIG d   1      -2.095  78.263 115.889  0.00  0.00     0.016 C 
ATOM      3  C   LIG d   1      -1.245  77.590 116.797  0.00  0.00     0.038 C 
ATOM      4  C   LIG d   1      -1.346  76.209 117.023  0.00  0.00     0.028 C 
ATOM      5  C   LIG d   1      -2.751  75.660 116.799  0.00  0.00    -0.047 C 
ATOM      6  C   LIG d   1      -3.253  76.117 115.410  0.00  0.00     0.091 C 
ENDROOT
BRANCH   1   7
ATOM      7  O   LIG d   1      -3.226  78.022 113.868  0.00  0.00    -0.368 OA
BRANCH   7   8
ATOM      8  C   LIG d   1      -2.171  78.907 113.418  0.00  0.00     0.119 C 
BRANCH   8   9
ATOM      9  C   LIG d   1      -2.839  80.189 112.883  0.00  0.00     0.028 C 
ATOM     10  C   LIG d   1      -1.820  81.303 112.591  0.00  0.00     0.006 C 
ENDBRANCH   8   9
BRANCH   8  11
ATOM     11  C   LIG d   1      -1.418  78.314 112.223  0.00  0.00     0.028 C 
ATOM     12  C   LIG d   1      -2.348  77.936 111.060  0.00  0.00     0.006 C 
ENDBRANCH   8  11
ENDBRANCH   7   8
ENDBRANCH   1   7
BRANCH   6  13
ATOM     13  N   LIG d   1      -4.652  75.694 115.145  0.00  0.00    -0.311 N 
ATOM     14  C   LIG d   1      -5.712  76.264 115.717  0.00  0.00     0.210 C 
ATOM     15  C   LIG d   1      -7.063  75.661 115.320  0.00  0.00     0.109 C 
ATOM     16  O   LIG d   1      -5.662  77.232 116.490  0.00  0.00    -0.276 OA
ATOM     17  H   LIG d   1      -4.786  74.935 114.505  0.00  0.00     0.149 HD
ENDBRANCH   6  13
BRANCH   5  18
ATOM     18  N   LIG d   1      -2.683  74.193 116.934  0.00  0.00     0.381 N 
ATOM     19  H   LIG d   1      -3.577  73.792 116.731  0.00  0.00    -0.090 HD
ATOM     20  H   LIG d   1      -2.443  73.965 117.883  0.00  0.00    -0.090 HD
ATOM     21  H   LIG d   1      -1.997  73.824 116.313  0.00  0.00    -0.090 HD
ENDBRANCH   5  18
BRANCH   3  22
ATOM     22  C   LIG d   1      -0.305  78.309 117.520  0.00  0.00     0.382 C 
ATOM     23  O   LIG d   1       0.071  77.896 118.643  0.00  0.00    -0.241 OA
ATOM     24  O   LIG d   1       0.138  79.387 117.082  0.00  0.00    -0.241 OA
ENDBRANCH   3  22
TORSDOF 7
ENDMDL
