MODEL 1
REMARK VINA RESULT:      -5.0      0.000      0.000
REMARK  7 active torsions:
REMARK  status: ('A' for Active; 'I' for Inactive)
REMARK    1  A    between atoms: C_2  and  C_3 
REMARK    2  A    between atoms: C_3  and  O_6 
REMARK    3  A    between atoms: C_3  and  C_4 
REMARK    4  A    between atoms: C_7  and  O_6 
REMARK    5  A    between atoms: C_9  and  C_10 
REMARK    6  A    between atoms: N_15  and  C_14 
REMARK    7  A    between atoms: N_20  and  C_19 
REMARK       I    between atoms: C_22  and  N_20 
ROOT
ATOM      1  C   LIG d   1      -2.567  77.821 116.284  0.00  0.00     0.161 C 
ATOM      2  C   LIG d   1      -2.906  78.605 115.168  0.00  0.00     0.016 C 
ATOM      3  C   LIG d   1      -2.309  78.446 113.896  0.00  0.00     0.038 C 
ATOM      4  C   LIG d   1      -1.435  77.386 113.614  0.00  0.00     0.028 C 
ATOM      5  C   LIG d   1      -0.681  76.880 114.839  0.00  0.00    -0.047 C 
ATOM      6  C   LIG d   1      -1.697  76.587 115.967  0.00  0.00     0.091 C 
ENDROOT
BRANCH   1   7
ATOM      7  O   LIG d   1      -3.763  77.425 116.983  0.00  0.00    -0.368 OA
BRANCH   7   8
ATOM      8  C   LIG d   1      -4.926  77.163 116.160  0.00  0.00     0.119 C 
BRANCH   8   9
ATOM      9  C   LIG d   1      -6.142  77.800 116.859  0.00  0.00     0.028 C 
ATOM     10  C   LIG d   1      -5.781  78.409 118.225  0.00  0.00     0.006 C 
ENDBRANCH   8   9
BRANCH   8  11
ATOM     11  C   LIG d   1      -5.236  75.664 116.094  0.00  0.00     0.028 C 
ATOM     12  C   LIG d   1      -5.466  75.166 114.658  0.00  0.00     0.006 C 
ENDBRANCH   8  11
ENDBRANCH   7   8
ENDBRANCH   1   7
BRANCH   6  13
ATOM     13  N   LIG d   1      -1.036  76.167 117.230  0.00  0.00    -0.311 N 
ATOM     14  C   LIG d   1      -1.323  75.033 117.866  0.00  0.00     0.210 C 
ATOM     15  C   LIG d   1      -0.539  74.802 119.162  0.00  0.00     0.109 C 
ATOM     16  O   LIG d   1      -2.128  74.180 117.463  0.00  0.00    -0.276 OA
ATOM     17  H   LIG d   1      -0.346  76.785 117.612  0.00  0.00     0.149 HD
ENDBRANCH   6  13
BRANCH   5  18
ATOM     18  N   LIG d   1       0.087  75.689 114.430  0.00  0.00     0.381 N 
ATOM     19  H   LIG d   1       1.003  75.962 114.135  0.00  0.00    -0.090 HD
ATOM     20  H   LIG d   1      -0.378  75.254 113.652  0.00  0.00    -0.090 HD
ATOM     21  H   LIG d   1       0.152  75.047 115.189  0.00  0.00    -0.090 HD
ENDBRANCH   5  18
BRANCH   3  22
ATOM     22  C   LIG d   1      -2.555  79.380 112.900  0.00  0.00     0.382 C 
ATOM     23  O   LIG d   1      -2.123  79.185 111.738  0.00  0.00    -0.241 OA
ATOM     24  O   LIG d   1      -3.164  80.435 113.160  0.00  0.00    -0.241 OA
ENDBRANCH   3  22
TORSDOF 7
ENDMDL
MODEL 2
REMARK VINA RESULT:      -5.0      1.680      4.959
REMARK  7 active torsions:
REMARK  status: ('A' for Active; 'I' for Inactive)
REMARK    1  A    between atoms: C_2  and  C_3 
REMARK    2  A    between atoms: C_3  and  O_6 
REMARK    3  A    between atoms: C_3  and  C_4 
REMARK    4  A    between atoms: C_7  and  O_6 
REMARK    5  A    between atoms: C_9  and  C_10 
REMARK    6  A    between atoms: N_15  and  C_14 
REMARK    7  A    between atoms: N_20  and  C_19 
REMARK       I    between atoms: C_22  and  N_20 
ROOT
ATOM      1  C   LIG d   1      -3.278  76.071 115.060  0.00  0.00     0.161 C 
ATOM      2  C   LIG d   1      -3.164  75.362 116.267  0.00  0.00     0.016 C 
ATOM      3  C   LIG d   1      -2.059  75.485 117.141  0.00  0.00     0.038 C 
ATOM      4  C   LIG d   1      -1.057  76.445 116.938  0.00  0.00     0.028 C 
ATOM      5  C   LIG d   1      -0.873  76.829 115.474  0.00  0.00    -0.047 C 
ATOM      6  C   LIG d   1      -2.249  77.206 114.877  0.00  0.00     0.091 C 
ENDROOT
BRANCH   1   7
ATOM      7  O   LIG d   1      -4.618  76.583 114.919  0.00  0.00    -0.368 OA
BRANCH   7   8
ATOM      8  C   LIG d   1      -5.532  76.283 116.002  0.00  0.00     0.119 C 
BRANCH   8   9
ATOM      9  C   LIG d   1      -6.743  75.548 115.396  0.00  0.00     0.028 C 
ATOM     10  C   LIG d   1      -8.047  75.835 116.160  0.00  0.00     0.006 C 
ENDBRANCH   8   9
BRANCH   8  11
ATOM     11  C   LIG d   1      -6.103  77.563 116.620  0.00  0.00     0.028 C 
ATOM     12  C   LIG d   1      -5.014  78.583 116.990  0.00  0.00     0.006 C 
ENDBRANCH   8  11
ENDBRANCH   7   8
ENDBRANCH   1   7
BRANCH   6  13
ATOM     13  N   LIG d   1      -2.172  77.513 113.425  0.00  0.00    -0.311 N 
ATOM     14  C   LIG d   1      -2.483  78.701 112.910  0.00  0.00     0.210 C 
ATOM     15  C   LIG d   1      -2.353  78.799 111.387  0.00  0.00     0.109 C 
ATOM     16  O   LIG d   1      -2.824  79.692 113.573  0.00  0.00    -0.276 OA
ATOM     17  H   LIG d   1      -1.874  76.775 112.818  0.00  0.00     0.149 HD
ENDBRANCH   6  13
BRANCH   5  18
ATOM     18  N   LIG d   1       0.102  77.935 115.422  0.00  0.00     0.381 N 
ATOM     19  H   LIG d   1       0.023  78.495 116.247  0.00  0.00    -0.090 HD
ATOM     20  H   LIG d   1      -0.105  78.513 114.627  0.00  0.00    -0.090 HD
ATOM     21  H   LIG d   1       1.026  77.571 115.347  0.00  0.00    -0.090 HD
ENDBRANCH   5  18
BRANCH   3  22
ATOM     22  C   LIG d   1      -1.929  74.612 118.211  0.00  0.00     0.382 C 
ATOM     23  O   LIG d   1      -2.951  74.181 118.797  0.00  0.00    -0.241 OA
ATOM     24  O   LIG d   1      -0.800  74.286 118.626  0.00  0.00    -0.241 OA
ENDBRANCH   3  22
TORSDOF 7
ENDMDL
MODEL 3
REMARK VINA RESULT:      -4.8      1.486      2.144
REMARK  7 active torsions:
REMARK  status: ('A' for Active; 'I' for Inactive)
REMARK    1  A    between atoms: C_2  and  C_3 
REMARK    2  A    between atoms: C_3  and  O_6 
REMARK    3  A    between atoms: C_3  and  C_4 
REMARK    4  A    between atoms: C_7  and  O_6 
REMARK    5  A    between atoms: C_9  and  C_10 
REMARK    6  A    between atoms: N_15  and  C_14 
REMARK    7  A    between atoms: N_20  and  C_19 
REMARK       I    between atoms: C_22  and  N_20 
ROOT
ATOM      1  C   LIG d   1      -3.254  76.100 115.617  0.00  0.00     0.161 C 
ATOM      2  C   LIG d   1      -3.436  77.164 114.719  0.00  0.00     0.016 C 
ATOM      3  C   LIG d   1      -2.423  77.634 113.852  0.00  0.00     0.038 C 
ATOM      4  C   LIG d   1      -1.196  76.968 113.717  0.00  0.00     0.028 C 
ATOM      5  C   LIG d   1      -0.785  76.195 114.966  0.00  0.00    -0.047 C 
ATOM      6  C   LIG d   1      -1.958  75.289 115.404  0.00  0.00     0.091 C 
ENDROOT
BRANCH   1   7
ATOM      7  O   LIG d   1      -4.401  75.228 115.582  0.00  0.00    -0.368 OA
BRANCH   7   8
ATOM      8  C   LIG d   1      -5.138  75.093 116.822  0.00  0.00     0.119 C 
BRANCH   8   9
ATOM      9  C   LIG d   1      -6.600  74.769 116.459  0.00  0.00     0.028 C 
ATOM     10  C   LIG d   1      -7.203  75.794 115.483  0.00  0.00     0.006 C 
ENDBRANCH   8   9
BRANCH   8  11
ATOM     11  C   LIG d   1      -5.194  76.421 117.584  0.00  0.00     0.028 C 
ATOM     12  C   LIG d   1      -4.701  76.296 119.034  0.00  0.00     0.006 C 
ENDBRANCH   8  11
ENDBRANCH   7   8
ENDBRANCH   1   7
BRANCH   6  13
ATOM     13  N   LIG d   1      -1.670  74.562 116.668  0.00  0.00    -0.311 N 
ATOM     14  C   LIG d   1      -1.315  75.169 117.799  0.00  0.00     0.210 C 
ATOM     15  C   LIG d   1      -1.045  74.230 118.979  0.00  0.00     0.109 C 
ATOM     16  O   LIG d   1      -1.230  76.397 117.946  0.00  0.00    -0.276 OA
ATOM     17  H   LIG d   1      -1.745  73.563 116.647  0.00  0.00     0.149 HD
ENDBRANCH   6  13
BRANCH   5  18
ATOM     18  N   LIG d   1       0.439  75.439 114.639  0.00  0.00     0.381 N 
ATOM     19  H   LIG d   1       1.233  75.883 115.056  0.00  0.00    -0.090 HD
ATOM     20  H   LIG d   1       0.565  75.440 113.642  0.00  0.00    -0.090 HD
ATOM     21  H   LIG d   1       0.361  74.503 114.971  0.00  0.00    -0.090 HD
ENDBRANCH   5  18
BRANCH   3  22
ATOM     22  C   LIG d   1      -2.618  78.806 113.138  0.00  0.00     0.382 C 
ATOM     23  O   LIG d   1      -3.004  79.843 113.729  0.00  0.00    -0.241 OA
ATOM     24  O   LIG d   1      -2.457  78.828 111.903  0.00  0.00    -0.241 OA
ENDBRANCH   3  22
TORSDOF 7
ENDMDL
MODEL 4
REMARK VINA RESULT:      -4.7      1.419      1.944
REMARK  7 active torsions:
REMARK  status: ('A' for Active; 'I' for Inactive)
REMARK    1  A    between atoms: C_2  and  C_3 
REMARK    2  A    between atoms: C_3  and  O_6 
REMARK    3  A    between atoms: C_3  and  C_4 
REMARK    4  A    between atoms: C_7  and  O_6 
REMARK    5  A    between atoms: C_9  and  C_10 
REMARK    6  A    between atoms: N_15  and  C_14 
REMARK    7  A    between atoms: N_20  and  C_19 
REMARK       I    between atoms: C_22  and  N_20 
ROOT
ATOM      1  C   LIG d   1      -3.076  78.280 115.778  0.00  0.00     0.161 C 
ATOM      2  C   LIG d   1      -3.207  79.064 114.620  0.00  0.00     0.016 C 
ATOM      3  C   LIG d   1      -2.385  78.911 113.479  0.00  0.00     0.038 C 
ATOM      4  C   LIG d   1      -1.468  77.856 113.362  0.00  0.00     0.028 C 
ATOM      5  C   LIG d   1      -0.951  77.351 114.705  0.00  0.00    -0.047 C 
ATOM      6  C   LIG d   1      -2.156  77.050 115.626  0.00  0.00     0.091 C 
ENDROOT
BRANCH   1   7
ATOM      7  O   LIG d   1      -4.378  77.876 116.244  0.00  0.00    -0.368 OA
BRANCH   7   8
ATOM      8  C   LIG d   1      -5.021  78.766 117.189  0.00  0.00     0.119 C 
BRANCH   8   9
ATOM      9  C   LIG d   1      -4.491  78.413 118.592  0.00  0.00     0.028 C 
ATOM     10  C   LIG d   1      -4.829  76.969 119.001  0.00  0.00     0.006 C 
ENDBRANCH   8   9
BRANCH   8  11
ATOM     11  C   LIG d   1      -6.531  78.516 117.252  0.00  0.00     0.028 C 
ATOM     12  C   LIG d   1      -7.329  79.778 117.615  0.00  0.00     0.006 C 
ENDBRANCH   8  11
ENDBRANCH   7   8
ENDBRANCH   1   7
BRANCH   6  13
ATOM     13  N   LIG d   1      -1.737  76.631 116.988  0.00  0.00    -0.311 N 
ATOM     14  C   LIG d   1      -1.548  75.360 117.339  0.00  0.00     0.210 C 
ATOM     15  C   LIG d   1      -1.137  75.146 118.799  0.00  0.00     0.109 C 
ATOM     16  O   LIG d   1      -1.651  74.392 116.570  0.00  0.00    -0.276 OA
ATOM     17  H   LIG d   1      -1.600  77.355 117.667  0.00  0.00     0.149 HD
ENDBRANCH   6  13
BRANCH   5  18
ATOM     18  N   LIG d   1      -0.114  76.165 114.442  0.00  0.00     0.381 N 
ATOM     19  H   LIG d   1       0.614  76.106 115.125  0.00  0.00    -0.090 HD
ATOM     20  H   LIG d   1       0.310  76.260 113.536  0.00  0.00    -0.090 HD
ATOM     21  H   LIG d   1      -0.673  75.340 114.470  0.00  0.00    -0.090 HD
ENDBRANCH   5  18
BRANCH   3  22
ATOM     22  C   LIG d   1      -2.448  79.846 112.457  0.00  0.00     0.382 C 
ATOM     23  O   LIG d   1      -3.252  80.806 112.534  0.00  0.00    -0.241 OA
ATOM     24  O   LIG d   1      -1.742  79.716 111.439  0.00  0.00    -0.241 OA
ENDBRANCH   3  22
TORSDOF 7
ENDMDL
MODEL 5
REMARK VINA RESULT:      -4.7      3.200      4.927
REMARK  7 active torsions:
REMARK  status: ('A' for Active; 'I' for Inactive)
REMARK    1  A    between atoms: C_2  and  C_3 
REMARK    2  A    between atoms: C_3  and  O_6 
REMARK    3  A    between atoms: C_3  and  C_4 
REMARK    4  A    between atoms: C_7  and  O_6 
REMARK    5  A    between atoms: C_9  and  C_10 
REMARK    6  A    between atoms: N_15  and  C_14 
REMARK    7  A    between atoms: N_20  and  C_19 
REMARK       I    between atoms: C_22  and  N_20 
ROOT
ATOM      1  C   LIG d   1      -5.535  78.015 117.166  0.00  0.00     0.161 C 
ATOM      2  C   LIG d   1      -4.468  78.305 116.300  0.00  0.00     0.016 C 
ATOM      3  C   LIG d   1      -3.758  77.315 115.581  0.00  0.00     0.038 C 
ATOM      4  C   LIG d   1      -4.168  75.974 115.564  0.00  0.00     0.028 C 
ATOM      5  C   LIG d   1      -4.928  75.557 116.819  0.00  0.00    -0.047 C 
ATOM      6  C   LIG d   1      -6.068  76.570 117.075  0.00  0.00     0.091 C 
ENDROOT
BRANCH   1   7
ATOM      7  O   LIG d   1      -6.605  78.958 116.956  0.00  0.00    -0.368 OA
BRANCH   7   8
ATOM      8  C   LIG d   1      -6.760  79.982 117.970  0.00  0.00     0.119 C 
BRANCH   8   9
ATOM      9  C   LIG d   1      -7.964  79.586 118.846  0.00  0.00     0.028 C 
ATOM     10  C   LIG d   1      -9.141  79.045 118.017  0.00  0.00     0.006 C 
ENDBRANCH   8   9
BRANCH   8  11
ATOM     11  C   LIG d   1      -7.138  81.329 117.347  0.00  0.00     0.028 C 
ATOM     12  C   LIG d   1      -7.536  82.379 118.396  0.00  0.00     0.006 C 
ENDBRANCH   8  11
ENDBRANCH   7   8
ENDBRANCH   1   7
BRANCH   6  13
ATOM     13  N   LIG d   1      -6.809  76.284 118.331  0.00  0.00    -0.311 N 
ATOM     14  C   LIG d   1      -7.917  75.547 118.376  0.00  0.00     0.210 C 
ATOM     15  C   LIG d   1      -8.534  75.393 119.770  0.00  0.00     0.109 C 
ATOM     16  O   LIG d   1      -8.431  74.981 117.400  0.00  0.00    -0.276 OA
ATOM     17  H   LIG d   1      -6.444  76.679 119.176  0.00  0.00     0.149 HD
ENDBRANCH   6  13
BRANCH   5  18
ATOM     18  N   LIG d   1      -5.414  74.181 116.609  0.00  0.00     0.381 N 
ATOM     19  H   LIG d   1      -4.681  73.617 116.228  0.00  0.00    -0.090 HD
ATOM     20  H   LIG d   1      -6.172  74.201 115.949  0.00  0.00    -0.090 HD
ATOM     21  H   LIG d   1      -5.727  73.794 117.472  0.00  0.00    -0.090 HD
ENDBRANCH   5  18
BRANCH   3  22
ATOM     22  C   LIG d   1      -2.600  77.659 114.900  0.00  0.00     0.382 C 
ATOM     23  O   LIG d   1      -2.117  78.810 115.025  0.00  0.00    -0.241 OA
ATOM     24  O   LIG d   1      -2.056  76.846 114.129  0.00  0.00    -0.241 OA
ENDBRANCH   3  22
TORSDOF 7
ENDMDL
MODEL 6
REMARK VINA RESULT:      -4.4      2.304      4.688
REMARK  7 active torsions:
REMARK  status: ('A' for Active; 'I' for Inactive)
REMARK    1  A    between atoms: C_2  and  C_3 
REMARK    2  A    between atoms: C_3  and  O_6 
REMARK    3  A    between atoms: C_3  and  C_4 
REMARK    4  A    between atoms: C_7  and  O_6 
REMARK    5  A    between atoms: C_9  and  C_10 
REMARK    6  A    between atoms: N_15  and  C_14 
REMARK    7  A    between atoms: N_20  and  C_19 
REMARK       I    between atoms: C_22  and  N_20 
ROOT
ATOM      1  C   LIG d   1      -3.261  75.460 115.471  0.00  0.00     0.161 C 
ATOM      2  C   LIG d   1      -4.525  75.676 114.896  0.00  0.00     0.016 C 
ATOM      3  C   LIG d   1      -5.672  76.021 115.647  0.00  0.00     0.038 C 
ATOM      4  C   LIG d   1      -5.600  76.323 117.014  0.00  0.00     0.028 C 
ATOM      5  C   LIG d   1      -4.446  75.628 117.728  0.00  0.00    -0.047 C 
ATOM      6  C   LIG d   1      -3.139  75.894 116.946  0.00  0.00     0.091 C 
ENDROOT
BRANCH   1   7
ATOM      7  O   LIG d   1      -2.246  76.103 114.674  0.00  0.00    -0.368 OA
BRANCH   7   8
ATOM      8  C   LIG d   1      -2.594  77.395 114.120  0.00  0.00     0.119 C 
BRANCH   8   9
ATOM      9  C   LIG d   1      -1.896  77.516 112.751  0.00  0.00     0.028 C 
ATOM     10  C   LIG d   1      -2.745  78.284 111.725  0.00  0.00     0.006 C 
ENDBRANCH   8   9
BRANCH   8  11
ATOM     11  C   LIG d   1      -2.024  78.537 114.967  0.00  0.00     0.028 C 
ATOM     12  C   LIG d   1      -0.611  78.240 115.494  0.00  0.00     0.006 C 
ENDBRANCH   8  11
ENDBRANCH   7   8
ENDBRANCH   1   7
BRANCH   6  13
ATOM     13  N   LIG d   1      -1.974  75.180 117.530  0.00  0.00    -0.311 N 
ATOM     14  C   LIG d   1      -1.143  75.732 118.413  0.00  0.00     0.210 C 
ATOM     15  C   LIG d   1       0.005  74.829 118.873  0.00  0.00     0.109 C 
ATOM     16  O   LIG d   1      -1.267  76.873 118.883  0.00  0.00    -0.276 OA
ATOM     17  H   LIG d   1      -1.817  74.239 117.228  0.00  0.00     0.149 HD
ENDBRANCH   6  13
BRANCH   5  18
ATOM     18  N   LIG d   1      -4.406  76.138 119.112  0.00  0.00     0.381 N 
ATOM     19  H   LIG d   1      -5.336  76.220 119.470  0.00  0.00    -0.090 HD
ATOM     20  H   LIG d   1      -3.987  77.052 119.110  0.00  0.00    -0.090 HD
ATOM     21  H   LIG d   1      -3.874  75.523 119.687  0.00  0.00    -0.090 HD
ENDBRANCH   5  18
BRANCH   3  22
ATOM     22  C   LIG d   1      -6.917  76.027 115.035  0.00  0.00     0.382 C 
ATOM     23  O   LIG d   1      -7.951  75.825 115.717  0.00  0.00    -0.241 OA
ATOM     24  O   LIG d   1      -7.015  76.186 113.804  0.00  0.00    -0.241 OA
ENDBRANCH   3  22
TORSDOF 7
ENDMDL
MODEL 7
REMARK VINA RESULT:      -4.3      4.223      6.753
REMARK  7 active torsions:
REMARK  status: ('A' for Active; 'I' for Inactive)
REMARK    1  A    between atoms: C_2  and  C_3 
REMARK    2  A    between atoms: C_3  and  O_6 
REMARK    3  A    between atoms: C_3  and  C_4 
REMARK    4  A    between atoms: C_7  and  O_6 
REMARK    5  A    between atoms: C_9  and  C_10 
REMARK    6  A    between atoms: N_15  and  C_14 
REMARK    7  A    between atoms: N_20  and  C_19 
REMARK       I    between atoms: C_22  and  N_20 
ROOT
ATOM      1  C   LIG d   1      -6.648  78.699 117.330  0.00  0.00     0.161 C 
ATOM      2  C   LIG d   1      -6.712  80.082 117.570  0.00  0.00     0.016 C 
ATOM      3  C   LIG d   1      -7.795  80.708 118.229  0.00  0.00     0.038 C 
ATOM      4  C   LIG d   1      -8.825  79.968 118.830  0.00  0.00     0.028 C 
ATOM      5  C   LIG d   1      -9.058  78.611 118.174  0.00  0.00    -0.047 C 
ATOM      6  C   LIG d   1      -7.709  77.863 118.076  0.00  0.00     0.091 C 
ENDROOT
BRANCH   1   7
ATOM      7  O   LIG d   1      -5.325  78.212 117.629  0.00  0.00    -0.368 OA
BRANCH   7   8
ATOM      8  C   LIG d   1      -4.446  78.016 116.493  0.00  0.00     0.119 C 
BRANCH   8   9
ATOM      9  C   LIG d   1      -4.209  76.500 116.349  0.00  0.00     0.028 C 
ATOM     10  C   LIG d   1      -4.360  75.752 117.684  0.00  0.00     0.006 C 
ENDBRANCH   8   9
BRANCH   8  11
ATOM     11  C   LIG d   1      -3.062  78.620 116.749  0.00  0.00     0.028 C 
ATOM     12  C   LIG d   1      -2.833  78.982 118.225  0.00  0.00     0.006 C 
ENDBRANCH   8  11
ENDBRANCH   7   8
ENDBRANCH   1   7
BRANCH   6  13
ATOM     13  N   LIG d   1      -7.833  76.561 117.370  0.00  0.00    -0.311 N 
ATOM     14  C   LIG d   1      -8.062  75.407 117.995  0.00  0.00     0.210 C 
ATOM     15  C   LIG d   1      -8.134  74.180 117.082  0.00  0.00     0.109 C 
ATOM     16  O   LIG d   1      -8.244  75.289 119.216  0.00  0.00    -0.276 OA
ATOM     17  H   LIG d   1      -7.729  76.570 116.374  0.00  0.00     0.149 HD
ENDBRANCH   6  13
BRANCH   5  18
ATOM     18  N   LIG d   1     -10.060  77.892 118.983  0.00  0.00     0.381 N 
ATOM     19  H   LIG d   1     -10.905  78.426 119.029  0.00  0.00    -0.090 HD
ATOM     20  H   LIG d   1      -9.705  77.781 119.917  0.00  0.00    -0.090 HD
ATOM     21  H   LIG d   1     -10.245  76.998 118.582  0.00  0.00    -0.090 HD
ENDBRANCH   5  18
BRANCH   3  22
ATOM     22  C   LIG d   1      -7.876  82.092 118.256  0.00  0.00     0.382 C 
ATOM     23  O   LIG d   1      -7.022  82.757 118.891  0.00  0.00    -0.241 OA
ATOM     24  O   LIG d   1      -8.817  82.681 117.692  0.00  0.00    -0.241 OA
ENDBRANCH   3  22
TORSDOF 7
ENDMDL
MODEL 8
REMARK VINA RESULT:      -4.3      2.985      4.408
REMARK  7 active torsions:
REMARK  status: ('A' for Active; 'I' for Inactive)
REMARK    1  A    between atoms: C_2  and  C_3 
REMARK    2  A    between atoms: C_3  and  O_6 
REMARK    3  A    between atoms: C_3  and  C_4 
REMARK    4  A    between atoms: C_7  and  O_6 
REMARK    5  A    between atoms: C_9  and  C_10 
REMARK    6  A    between atoms: N_15  and  C_14 
REMARK    7  A    between atoms: N_20  and  C_19 
REMARK       I    between atoms: C_22  and  N_20 
ROOT
ATOM      1  C   LIG d   1      -4.721  77.449 117.760  0.00  0.00     0.161 C 
ATOM      2  C   LIG d   1      -3.591  78.170 117.341  0.00  0.00     0.016 C 
ATOM      3  C   LIG d   1      -3.010  78.032 116.059  0.00  0.00     0.038 C 
ATOM      4  C   LIG d   1      -3.616  77.269 115.049  0.00  0.00     0.028 C 
ATOM      5  C   LIG d   1      -4.477  76.130 115.585  0.00  0.00    -0.047 C 
ATOM      6  C   LIG d   1      -5.461  76.696 116.635  0.00  0.00     0.091 C 
ENDROOT
BRANCH   1   7
ATOM      7  O   LIG d   1      -5.629  78.326 118.456  0.00  0.00    -0.368 OA
BRANCH   7   8
ATOM      8  C   LIG d   1      -6.648  78.963 117.647  0.00  0.00     0.119 C 
BRANCH   8   9
ATOM      9  C   LIG d   1      -6.336  80.472 117.614  0.00  0.00     0.028 C 
ATOM     10  C   LIG d   1      -7.570  81.318 117.258  0.00  0.00     0.006 C 
ENDBRANCH   8   9
BRANCH   8  11
ATOM     11  C   LIG d   1      -8.029  78.847 118.297  0.00  0.00     0.028 C 
ATOM     12  C   LIG d   1      -8.064  77.826 119.444  0.00  0.00     0.006 C 
ENDBRANCH   8  11
ENDBRANCH   7   8
ENDBRANCH   1   7
BRANCH   6  13
ATOM     13  N   LIG d   1      -6.284  75.634 117.270  0.00  0.00    -0.311 N 
ATOM     14  C   LIG d   1      -7.493  75.284 116.834  0.00  0.00     0.210 C 
ATOM     15  C   LIG d   1      -8.178  74.180 117.646  0.00  0.00     0.109 C 
ATOM     16  O   LIG d   1      -8.049  75.760 115.833  0.00  0.00    -0.276 OA
ATOM     17  H   LIG d   1      -5.896  75.173 118.070  0.00  0.00     0.149 HD
ENDBRANCH   6  13
BRANCH   5  18
ATOM     18  N   LIG d   1      -5.156  75.505 114.434  0.00  0.00     0.381 N 
ATOM     19  H   LIG d   1      -5.912  74.935 114.756  0.00  0.00    -0.090 HD
ATOM     20  H   LIG d   1      -4.501  74.916 113.950  0.00  0.00    -0.090 HD
ATOM     21  H   LIG d   1      -5.500  76.208 113.818  0.00  0.00    -0.090 HD
ENDBRANCH   5  18
BRANCH   3  22
ATOM     22  C   LIG d   1      -1.789  78.630 115.789  0.00  0.00     0.382 C 
ATOM     23  O   LIG d   1      -1.071  79.042 116.732  0.00  0.00    -0.241 OA
ATOM     24  O   LIG d   1      -1.416  78.802 114.614  0.00  0.00    -0.241 OA
ENDBRANCH   3  22
TORSDOF 7
ENDMDL
MODEL 9
REMARK VINA RESULT:      -4.2      3.455      6.055
REMARK  7 active torsions:
REMARK  status: ('A' for Active; 'I' for Inactive)
REMARK    1  A    between atoms: C_2  and  C_3 
REMARK    2  A    between atoms: C_3  and  O_6 
REMARK    3  A    between atoms: C_3  and  C_4 
REMARK    4  A    between atoms: C_7  and  O_6 
REMARK    5  A    between atoms: C_9  and  C_10 
REMARK    6  A    between atoms: N_15  and  C_14 
REMARK    7  A    between atoms: N_20  and  C_19 
REMARK       I    between atoms: C_22  and  N_20 
ROOT
ATOM      1  C   LIG d   1      -5.610  78.346 117.251  0.00  0.00     0.161 C 
ATOM      2  C   LIG d   1      -5.987  79.698 117.309  0.00  0.00     0.016 C 
ATOM      3  C   LIG d   1      -7.304  80.126 117.593  0.00  0.00     0.038 C 
ATOM      4  C   LIG d   1      -8.306  79.229 117.992  0.00  0.00     0.028 C 
ATOM      5  C   LIG d   1      -8.101  77.815 117.457  0.00  0.00    -0.047 C 
ATOM      6  C   LIG d   1      -6.663  77.356 117.792  0.00  0.00     0.091 C 
ENDROOT
BRANCH   1   7
ATOM      7  O   LIG d   1      -4.353  78.160 117.931  0.00  0.00    -0.368 OA
BRANCH   7   8
ATOM      8  C   LIG d   1      -3.173  78.117 117.090  0.00  0.00     0.119 C 
BRANCH   8   9
ATOM      9  C   LIG d   1      -2.743  76.642 116.972  0.00  0.00     0.028 C 
ATOM     10  C   LIG d   1      -2.626  76.180 115.510  0.00  0.00     0.006 C 
ENDBRANCH   8   9
BRANCH   8  11
ATOM     11  C   LIG d   1      -1.992  78.833 117.751  0.00  0.00     0.028 C 
ATOM     12  C   LIG d   1      -1.030  77.866 118.460  0.00  0.00     0.006 C 
ENDBRANCH   8  11
ENDBRANCH   7   8
ENDBRANCH   1   7
BRANCH   6  13
ATOM     13  N   LIG d   1      -6.351  76.016 117.231  0.00  0.00    -0.311 N 
ATOM     14  C   LIG d   1      -6.240  75.775 115.925  0.00  0.00     0.210 C 
ATOM     15  C   LIG d   1      -5.933  74.320 115.560  0.00  0.00     0.109 C 
ATOM     16  O   LIG d   1      -6.334  76.636 115.037  0.00  0.00    -0.276 OA
ATOM     17  H   LIG d   1      -6.228  75.266 117.882  0.00  0.00     0.149 HD
ENDBRANCH   6  13
BRANCH   5  18
ATOM     18  N   LIG d   1      -9.137  76.956 118.060  0.00  0.00     0.381 N 
ATOM     19  H   LIG d   1      -9.649  77.473 118.746  0.00  0.00    -0.090 HD
ATOM     20  H   LIG d   1      -8.691  76.181 118.517  0.00  0.00    -0.090 HD
ATOM     21  H   LIG d   1      -9.757  76.623 117.354  0.00  0.00    -0.090 HD
ENDBRANCH   5  18
BRANCH   3  22
ATOM     22  C   LIG d   1      -7.640  81.463 117.442  0.00  0.00     0.382 C 
ATOM     23  O   LIG d   1      -7.208  82.314 118.257  0.00  0.00    -0.241 OA
ATOM     24  O   LIG d   1      -8.404  81.823 116.527  0.00  0.00    -0.241 OA
ENDBRANCH   3  22
TORSDOF 7
ENDMDL
