MODEL 1
REMARK VINA RESULT:      -5.0      0.000      0.000
REMARK  7 active torsions:
REMARK  status: ('A' for Active; 'I' for Inactive)
REMARK    1  A    between atoms: C_2  and  C_3 
REMARK    2  A    between atoms: C_3  and  O_6 
REMARK    3  A    between atoms: C_3  and  C_4 
REMARK    4  A    between atoms: C_7  and  O_6 
REMARK    5  A    between atoms: C_9  and  C_10 
REMARK    6  A    between atoms: N_15  and  C_14 
REMARK    7  A    between atoms: N_20  and  C_19 
REMARK       I    between atoms: C_22  and  N_20 
ROOT
ATOM      1  C   LIG d   1      -2.246  78.810 115.145  0.00  0.00     0.161 C 
ATOM      2  C   LIG d   1      -2.628  80.162 115.172  0.00  0.00     0.016 C 
ATOM      3  C   LIG d   1      -2.591  81.003 114.037  0.00  0.00     0.038 C 
ATOM      4  C   LIG d   1      -2.311  80.507 112.755  0.00  0.00     0.028 C 
ATOM      5  C   LIG d   1      -1.431  79.262 112.766  0.00  0.00    -0.047 C 
ATOM      6  C   LIG d   1      -2.044  78.223 113.733  0.00  0.00     0.091 C 
ENDROOT
BRANCH   1   7
ATOM      7  O   LIG d   1      -3.197  78.019 115.886  0.00  0.00    -0.368 OA
BRANCH   7   8
ATOM      8  C   LIG d   1      -2.758  77.543 117.182  0.00  0.00     0.119 C 
BRANCH   8   9
ATOM      9  C   LIG d   1      -1.228  77.715 117.245  0.00  0.00     0.028 C 
ATOM     10  C   LIG d   1      -0.493  76.375 117.417  0.00  0.00     0.006 C 
ENDBRANCH   8   9
BRANCH   8  11
ATOM     11  C   LIG d   1      -3.004  76.039 117.336  0.00  0.00     0.028 C 
ATOM     12  C   LIG d   1      -4.353  75.593 116.752  0.00  0.00     0.006 C 
ENDBRANCH   8  11
ENDBRANCH   7   8
ENDBRANCH   1   7
BRANCH   6  13
ATOM     13  N   LIG d   1      -1.201  77.007 113.867  0.00  0.00    -0.311 N 
ATOM     14  C   LIG d   1      -1.685  75.768 113.805  0.00  0.00     0.210 C 
ATOM     15  C   LIG d   1      -0.646  74.657 113.989  0.00  0.00     0.109 C 
ATOM     16  O   LIG d   1      -2.872  75.483 113.584  0.00  0.00    -0.276 OA
ATOM     17  H   LIG d   1      -0.221  77.146 114.018  0.00  0.00     0.149 HD
ENDBRANCH   6  13
BRANCH   5  18
ATOM     18  N   LIG d   1      -1.333  78.773 111.378  0.00  0.00     0.381 N 
ATOM     19  H   LIG d   1      -0.556  79.206 110.920  0.00  0.00    -0.090 HD
ATOM     20  H   LIG d   1      -2.171  79.026 110.884  0.00  0.00    -0.090 HD
ATOM     21  H   LIG d   1      -1.222  77.783 111.372  0.00  0.00    -0.090 HD
ENDBRANCH   5  18
BRANCH   3  22
ATOM     22  C   LIG d   1      -2.797  82.366 114.185  0.00  0.00     0.382 C 
ATOM     23  O   LIG d   1      -3.803  82.784 114.807  0.00  0.00    -0.241 OA
ATOM     24  O   LIG d   1      -2.013  83.184 113.667  0.00  0.00    -0.241 OA
ENDBRANCH   3  22
TORSDOF 7
ENDMDL
MODEL 2
REMARK VINA RESULT:      -4.9      1.625      2.446
REMARK  7 active torsions:
REMARK  status: ('A' for Active; 'I' for Inactive)
REMARK    1  A    between atoms: C_2  and  C_3 
REMARK    2  A    between atoms: C_3  and  O_6 
REMARK    3  A    between atoms: C_3  and  C_4 
REMARK    4  A    between atoms: C_7  and  O_6 
REMARK    5  A    between atoms: C_9  and  C_10 
REMARK    6  A    between atoms: N_15  and  C_14 
REMARK    7  A    between atoms: N_20  and  C_19 
REMARK       I    between atoms: C_22  and  N_20 
ROOT
ATOM      1  C   LIG d   1      -1.976  80.348 114.548  0.00  0.00     0.161 C 
ATOM      2  C   LIG d   1      -1.991  81.733 114.312  0.00  0.00     0.016 C 
ATOM      3  C   LIG d   1      -1.619  82.316 113.079  0.00  0.00     0.038 C 
ATOM      4  C   LIG d   1      -1.350  81.539 111.942  0.00  0.00     0.028 C 
ATOM      5  C   LIG d   1      -0.833  80.143 112.272  0.00  0.00    -0.047 C 
ATOM      6  C   LIG d   1      -1.792  79.479 113.286  0.00  0.00     0.091 C 
ENDROOT
BRANCH   1   7
ATOM      7  O   LIG d   1      -3.171  79.960 115.254  0.00  0.00    -0.368 OA
BRANCH   7   8
ATOM      8  C   LIG d   1      -3.032  79.766 116.683  0.00  0.00     0.119 C 
BRANCH   8   9
ATOM      9  C   LIG d   1      -3.123  78.252 116.956  0.00  0.00     0.028 C 
ATOM     10  C   LIG d   1      -1.776  77.653 117.396  0.00  0.00     0.006 C 
ENDBRANCH   8   9
BRANCH   8  11
ATOM     11  C   LIG d   1      -4.207  80.386 117.446  0.00  0.00     0.028 C 
ATOM     12  C   LIG d   1      -4.229  81.920 117.361  0.00  0.00     0.006 C 
ENDBRANCH   8  11
ENDBRANCH   7   8
ENDBRANCH   1   7
BRANCH   6  13
ATOM     13  N   LIG d   1      -1.315  78.142 113.727  0.00  0.00    -0.311 N 
ATOM     14  C   LIG d   1      -2.054  77.037 113.649  0.00  0.00     0.210 C 
ATOM     15  C   LIG d   1      -1.378  75.768 114.177  0.00  0.00     0.109 C 
ATOM     16  O   LIG d   1      -3.194  76.982 113.164  0.00  0.00    -0.276 OA
ATOM     17  H   LIG d   1      -0.389  78.090 114.105  0.00  0.00     0.149 HD
ENDBRANCH   6  13
BRANCH   5  18
ATOM     18  N   LIG d   1      -0.726  79.396 111.004  0.00  0.00     0.381 N 
ATOM     19  H   LIG d   1      -0.968  78.437 111.154  0.00  0.00    -0.090 HD
ATOM     20  H   LIG d   1       0.226  79.435 110.684  0.00  0.00    -0.090 HD
ATOM     21  H   LIG d   1      -1.331  79.796 110.321  0.00  0.00    -0.090 HD
ENDBRANCH   5  18
BRANCH   3  22
ATOM     22  C   LIG d   1      -1.475  83.692 112.985  0.00  0.00     0.382 C 
ATOM     23  O   LIG d   1      -1.574  84.404 114.013  0.00  0.00    -0.241 OA
ATOM     24  O   LIG d   1      -1.291  84.234 111.879  0.00  0.00    -0.241 OA
ENDBRANCH   3  22
TORSDOF 7
ENDMDL
MODEL 3
REMARK VINA RESULT:      -4.7      1.695      2.662
REMARK  7 active torsions:
REMARK  status: ('A' for Active; 'I' for Inactive)
REMARK    1  A    between atoms: C_2  and  C_3 
REMARK    2  A    between atoms: C_3  and  O_6 
REMARK    3  A    between atoms: C_3  and  C_4 
REMARK    4  A    between atoms: C_7  and  O_6 
REMARK    5  A    between atoms: C_9  and  C_10 
REMARK    6  A    between atoms: N_15  and  C_14 
REMARK    7  A    between atoms: N_20  and  C_19 
REMARK       I    between atoms: C_22  and  N_20 
ROOT
ATOM      1  C   LIG d   1      -1.989  80.404 114.466  0.00  0.00     0.161 C 
ATOM      2  C   LIG d   1      -1.996  81.785 114.210  0.00  0.00     0.016 C 
ATOM      3  C   LIG d   1      -1.590  82.350 112.979  0.00  0.00     0.038 C 
ATOM      4  C   LIG d   1      -1.291  81.557 111.862  0.00  0.00     0.028 C 
ATOM      5  C   LIG d   1      -0.785  80.165 112.225  0.00  0.00    -0.047 C 
ATOM      6  C   LIG d   1      -1.772  79.517 113.223  0.00  0.00     0.091 C 
ENDROOT
BRANCH   1   7
ATOM      7  O   LIG d   1      -3.204  80.027 115.145  0.00  0.00    -0.368 OA
BRANCH   7   8
ATOM      8  C   LIG d   1      -3.090  79.787 116.569  0.00  0.00     0.119 C 
BRANCH   8   9
ATOM      9  C   LIG d   1      -3.333  81.129 117.286  0.00  0.00     0.028 C 
ATOM     10  C   LIG d   1      -4.802  81.314 117.703  0.00  0.00     0.006 C 
ENDBRANCH   8   9
BRANCH   8  11
ATOM     11  C   LIG d   1      -1.665  79.375 116.953  0.00  0.00     0.028 C 
ATOM     12  C   LIG d   1      -1.561  77.896 117.356  0.00  0.00     0.006 C 
ENDBRANCH   8  11
ENDBRANCH   7   8
ENDBRANCH   1   7
BRANCH   6  13
ATOM     13  N   LIG d   1      -1.309  78.186 113.695  0.00  0.00    -0.311 N 
ATOM     14  C   LIG d   1      -2.063  77.089 113.650  0.00  0.00     0.210 C 
ATOM     15  C   LIG d   1      -1.400  75.825 114.206  0.00  0.00     0.109 C 
ATOM     16  O   LIG d   1      -3.207  77.036 113.174  0.00  0.00    -0.276 OA
ATOM     17  H   LIG d   1      -0.382  78.132 114.068  0.00  0.00     0.149 HD
ENDBRANCH   6  13
BRANCH   5  18
ATOM     18  N   LIG d   1      -0.645  79.400 110.971  0.00  0.00     0.381 N 
ATOM     19  H   LIG d   1      -0.905  78.447 111.125  0.00  0.00    -0.090 HD
ATOM     20  H   LIG d   1       0.318  79.422 110.684  0.00  0.00    -0.090 HD
ATOM     21  H   LIG d   1      -1.220  79.799 110.263  0.00  0.00    -0.090 HD
ENDBRANCH   5  18
BRANCH   3  22
ATOM     22  C   LIG d   1      -1.441  83.725 112.870  0.00  0.00     0.382 C 
ATOM     23  O   LIG d   1      -1.533  84.448 113.891  0.00  0.00    -0.241 OA
ATOM     24  O   LIG d   1      -1.260  84.254 111.757  0.00  0.00    -0.241 OA
ENDBRANCH   3  22
TORSDOF 7
ENDMDL
MODEL 4
REMARK VINA RESULT:      -4.5      2.284      3.801
REMARK  7 active torsions:
REMARK  status: ('A' for Active; 'I' for Inactive)
REMARK    1  A    between atoms: C_2  and  C_3 
REMARK    2  A    between atoms: C_3  and  O_6 
REMARK    3  A    between atoms: C_3  and  C_4 
REMARK    4  A    between atoms: C_7  and  O_6 
REMARK    5  A    between atoms: C_9  and  C_10 
REMARK    6  A    between atoms: N_15  and  C_14 
REMARK    7  A    between atoms: N_20  and  C_19 
REMARK       I    between atoms: C_22  and  N_20 
ROOT
ATOM      1  C   LIG d   1      -2.321  78.482 114.841  0.00  0.00     0.161 C 
ATOM      2  C   LIG d   1      -2.471  79.314 113.719  0.00  0.00     0.016 C 
ATOM      3  C   LIG d   1      -2.571  80.722 113.802  0.00  0.00     0.038 C 
ATOM      4  C   LIG d   1      -2.374  81.410 115.008  0.00  0.00     0.028 C 
ATOM      5  C   LIG d   1      -2.723  80.582 116.241  0.00  0.00    -0.047 C 
ATOM      6  C   LIG d   1      -1.993  79.222 116.155  0.00  0.00     0.091 C 
ENDROOT
BRANCH   1   7
ATOM      7  O   LIG d   1      -1.327  77.474 114.573  0.00  0.00    -0.368 OA
BRANCH   7   8
ATOM      8  C   LIG d   1      -1.815  76.232 114.009  0.00  0.00     0.119 C 
BRANCH   8   9
ATOM      9  C   LIG d   1      -3.184  75.938 114.653  0.00  0.00     0.028 C 
ATOM     10  C   LIG d   1      -4.206  75.398 113.638  0.00  0.00     0.006 C 
ENDBRANCH   8   9
BRANCH   8  11
ATOM     11  C   LIG d   1      -0.921  75.052 114.402  0.00  0.00     0.028 C 
ATOM     12  C   LIG d   1      -0.940  74.767 115.913  0.00  0.00     0.006 C 
ENDBRANCH   8  11
ENDBRANCH   7   8
ENDBRANCH   1   7
BRANCH   6  13
ATOM     13  N   LIG d   1      -2.346  78.318 117.281  0.00  0.00    -0.311 N 
ATOM     14  C   LIG d   1      -1.440  77.723 118.055  0.00  0.00     0.210 C 
ATOM     15  C   LIG d   1      -2.017  76.815 119.145  0.00  0.00     0.109 C 
ATOM     16  O   LIG d   1      -0.214  77.887 117.963  0.00  0.00    -0.276 OA
ATOM     17  H   LIG d   1      -3.319  78.154 117.446  0.00  0.00     0.149 HD
ENDBRANCH   6  13
BRANCH   5  18
ATOM     18  N   LIG d   1      -2.342  81.369 117.429  0.00  0.00     0.381 N 
ATOM     19  H   LIG d   1      -1.354  81.532 117.424  0.00  0.00    -0.090 HD
ATOM     20  H   LIG d   1      -2.571  80.844 118.254  0.00  0.00    -0.090 HD
ATOM     21  H   LIG d   1      -2.829  82.238 117.433  0.00  0.00    -0.090 HD
ENDBRANCH   5  18
BRANCH   3  22
ATOM     22  C   LIG d   1      -2.910  81.454 112.674  0.00  0.00     0.382 C 
ATOM     23  O   LIG d   1      -2.010  81.966 111.965  0.00  0.00    -0.241 OA
ATOM     24  O   LIG d   1      -4.105  81.646 112.381  0.00  0.00    -0.241 OA
ENDBRANCH   3  22
TORSDOF 7
ENDMDL
MODEL 5
REMARK VINA RESULT:      -4.2      2.128      3.161
REMARK  7 active torsions:
REMARK  status: ('A' for Active; 'I' for Inactive)
REMARK    1  A    between atoms: C_2  and  C_3 
REMARK    2  A    between atoms: C_3  and  O_6 
REMARK    3  A    between atoms: C_3  and  C_4 
REMARK    4  A    between atoms: C_7  and  O_6 
REMARK    5  A    between atoms: C_9  and  C_10 
REMARK    6  A    between atoms: N_15  and  C_14 
REMARK    7  A    between atoms: N_20  and  C_19 
REMARK       I    between atoms: C_22  and  N_20 
ROOT
ATOM      1  C   LIG d   1      -2.765  79.431 115.914  0.00  0.00     0.161 C 
ATOM      2  C   LIG d   1      -2.944  80.327 114.847  0.00  0.00     0.016 C 
ATOM      3  C   LIG d   1      -2.564  80.038 113.516  0.00  0.00     0.038 C 
ATOM      4  C   LIG d   1      -2.115  78.766 113.133  0.00  0.00     0.028 C 
ATOM      5  C   LIG d   1      -1.445  77.994 114.265  0.00  0.00    -0.047 C 
ATOM      6  C   LIG d   1      -2.379  77.997 115.496  0.00  0.00     0.091 C 
ENDROOT
BRANCH   1   7
ATOM      7  O   LIG d   1      -3.947  79.412 116.739  0.00  0.00    -0.368 OA
BRANCH   7   8
ATOM      8  C   LIG d   1      -3.728  79.501 118.168  0.00  0.00     0.119 C 
BRANCH   8   9
ATOM      9  C   LIG d   1      -4.525  78.361 118.831  0.00  0.00     0.028 C 
ATOM     10  C   LIG d   1      -5.409  77.602 117.826  0.00  0.00     0.006 C 
ENDBRANCH   8   9
BRANCH   8  11
ATOM     11  C   LIG d   1      -4.316  80.793 118.743  0.00  0.00     0.028 C 
ATOM     12  C   LIG d   1      -5.278  81.494 117.770  0.00  0.00     0.006 C 
ENDBRANCH   8  11
ENDBRANCH   7   8
ENDBRANCH   1   7
BRANCH   6  13
ATOM     13  N   LIG d   1      -1.764  77.335 116.676  0.00  0.00    -0.311 N 
ATOM     14  C   LIG d   1      -1.994  76.066 117.008  0.00  0.00     0.210 C 
ATOM     15  C   LIG d   1      -1.275  75.587 118.273  0.00  0.00     0.109 C 
ATOM     16  O   LIG d   1      -2.699  75.281 116.356  0.00  0.00    -0.276 OA
ATOM     17  H   LIG d   1      -1.153  77.890 117.244  0.00  0.00     0.149 HD
ENDBRANCH   6  13
BRANCH   5  18
ATOM     18  N   LIG d   1      -1.150  76.637 113.766  0.00  0.00     0.381 N 
ATOM     19  H   LIG d   1      -0.174  76.556 113.564  0.00  0.00    -0.090 HD
ATOM     20  H   LIG d   1      -1.662  76.485 112.916  0.00  0.00    -0.090 HD
ATOM     21  H   LIG d   1      -1.413  75.959 114.447  0.00  0.00    -0.090 HD
ENDBRANCH   5  18
BRANCH   3  22
ATOM     22  C   LIG d   1      -2.595  81.041 112.559  0.00  0.00     0.382 C 
ATOM     23  O   LIG d   1      -3.632  81.731 112.407  0.00  0.00    -0.241 OA
ATOM     24  O   LIG d   1      -1.614  81.236 111.816  0.00  0.00    -0.241 OA
ENDBRANCH   3  22
TORSDOF 7
ENDMDL
MODEL 6
REMARK VINA RESULT:      -4.2      1.629      2.331
REMARK  7 active torsions:
REMARK  status: ('A' for Active; 'I' for Inactive)
REMARK    1  A    between atoms: C_2  and  C_3 
REMARK    2  A    between atoms: C_3  and  O_6 
REMARK    3  A    between atoms: C_3  and  C_4 
REMARK    4  A    between atoms: C_7  and  O_6 
REMARK    5  A    between atoms: C_9  and  C_10 
REMARK    6  A    between atoms: N_15  and  C_14 
REMARK    7  A    between atoms: N_20  and  C_19 
REMARK       I    between atoms: C_22  and  N_20 
ROOT
ATOM      1  C   LIG d   1      -2.735  78.067 116.169  0.00  0.00     0.161 C 
ATOM      2  C   LIG d   1      -3.215  79.303 116.635  0.00  0.00     0.016 C 
ATOM      3  C   LIG d   1      -2.918  80.537 116.013  0.00  0.00     0.038 C 
ATOM      4  C   LIG d   1      -2.242  80.606 114.786  0.00  0.00     0.028 C 
ATOM      5  C   LIG d   1      -1.307  79.426 114.544  0.00  0.00    -0.047 C 
ATOM      6  C   LIG d   1      -2.088  78.112 114.769  0.00  0.00     0.091 C 
ENDROOT
BRANCH   1   7
ATOM      7  O   LIG d   1      -3.793  77.089 116.201  0.00  0.00    -0.368 OA
BRANCH   7   8
ATOM      8  C   LIG d   1      -3.596  75.966 117.095  0.00  0.00     0.119 C 
BRANCH   8   9
ATOM      9  C   LIG d   1      -4.503  74.820 116.606  0.00  0.00     0.028 C 
ATOM     10  C   LIG d   1      -5.374  75.232 115.406  0.00  0.00     0.006 C 
ENDBRANCH   8   9
BRANCH   8  11
ATOM     11  C   LIG d   1      -4.079  76.289 118.512  0.00  0.00     0.028 C 
ATOM     12  C   LIG d   1      -5.457  76.968 118.531  0.00  0.00     0.006 C 
ENDBRANCH   8  11
ENDBRANCH   7   8
ENDBRANCH   1   7
BRANCH   6  13
ATOM     13  N   LIG d   1      -1.225  76.909 114.634  0.00  0.00    -0.311 N 
ATOM     14  C   LIG d   1      -1.596  75.811 113.978  0.00  0.00     0.210 C 
ATOM     15  C   LIG d   1      -0.564  74.679 113.977  0.00  0.00     0.109 C 
ATOM     16  O   LIG d   1      -2.669  75.678 113.370  0.00  0.00    -0.276 OA
ATOM     17  H   LIG d   1      -0.325  76.942 115.071  0.00  0.00     0.149 HD
ENDBRANCH   6  13
BRANCH   5  18
ATOM     18  N   LIG d   1      -0.773  79.554 113.174  0.00  0.00     0.381 N 
ATOM     19  H   LIG d   1      -1.247  78.917 112.566  0.00  0.00    -0.090 HD
ATOM     20  H   LIG d   1       0.203  79.317 113.182  0.00  0.00    -0.090 HD
ATOM     21  H   LIG d   1      -0.894  80.488 112.848  0.00  0.00    -0.090 HD
ENDBRANCH   5  18
BRANCH   3  22
ATOM     22  C   LIG d   1      -3.266  81.724 116.641  0.00  0.00     0.382 C 
ATOM     23  O   LIG d   1      -4.456  82.122 116.614  0.00  0.00    -0.241 OA
ATOM     24  O   LIG d   1      -2.398  82.423 117.196  0.00  0.00    -0.241 OA
ENDBRANCH   3  22
TORSDOF 7
ENDMDL
MODEL 7
REMARK VINA RESULT:      -4.2      2.312      5.255
REMARK  7 active torsions:
REMARK  status: ('A' for Active; 'I' for Inactive)
REMARK    1  A    between atoms: C_2  and  C_3 
REMARK    2  A    between atoms: C_3  and  O_6 
REMARK    3  A    between atoms: C_3  and  C_4 
REMARK    4  A    between atoms: C_7  and  O_6 
REMARK    5  A    between atoms: C_9  and  C_10 
REMARK    6  A    between atoms: N_15  and  C_14 
REMARK    7  A    between atoms: N_20  and  C_19 
REMARK       I    between atoms: C_22  and  N_20 
ROOT
ATOM      1  C   LIG d   1      -2.236  80.045 114.903  0.00  0.00     0.161 C 
ATOM      2  C   LIG d   1      -2.601  78.829 115.505  0.00  0.00     0.016 C 
ATOM      3  C   LIG d   1      -2.543  77.583 114.839  0.00  0.00     0.038 C 
ATOM      4  C   LIG d   1      -1.968  77.448 113.567  0.00  0.00     0.028 C 
ATOM      5  C   LIG d   1      -2.052  78.718 112.727  0.00  0.00    -0.047 C 
ATOM      6  C   LIG d   1      -1.502  79.903 113.553  0.00  0.00     0.091 C 
ENDROOT
BRANCH   1   7
ATOM      7  O   LIG d   1      -1.449  80.828 115.822  0.00  0.00    -0.368 OA
BRANCH   7   8
ATOM      8  C   LIG d   1      -2.013  82.102 116.218  0.00  0.00     0.119 C 
BRANCH   8   9
ATOM      9  C   LIG d   1      -0.841  83.078 116.439  0.00  0.00     0.028 C 
ATOM     10  C   LIG d   1      -0.425  83.799 115.146  0.00  0.00     0.006 C 
ENDBRANCH   8   9
BRANCH   8  11
ATOM     11  C   LIG d   1      -2.718  82.002 117.574  0.00  0.00     0.028 C 
ATOM     12  C   LIG d   1      -4.244  81.874 117.443  0.00  0.00     0.006 C 
ENDBRANCH   8  11
ENDBRANCH   7   8
ENDBRANCH   1   7
BRANCH   6  13
ATOM     13  N   LIG d   1      -1.626  81.200 112.836  0.00  0.00    -0.311 N 
ATOM     14  C   LIG d   1      -0.652  81.721 112.092  0.00  0.00     0.210 C 
ATOM     15  C   LIG d   1      -0.979  83.076 111.457  0.00  0.00     0.109 C 
ATOM     16  O   LIG d   1       0.439  81.175 111.871  0.00  0.00    -0.276 OA
ATOM     17  H   LIG d   1      -2.490  81.695 112.935  0.00  0.00     0.149 HD
ENDBRANCH   6  13
BRANCH   5  18
ATOM     18  N   LIG d   1      -1.295  78.481 111.483  0.00  0.00     0.381 N 
ATOM     19  H   LIG d   1      -1.929  78.305 110.729  0.00  0.00    -0.090 HD
ATOM     20  H   LIG d   1      -0.717  77.668 111.604  0.00  0.00    -0.090 HD
ATOM     21  H   LIG d   1      -0.728  79.272 111.272  0.00  0.00    -0.090 HD
ENDBRANCH   5  18
BRANCH   3  22
ATOM     22  C   LIG d   1      -3.099  76.460 115.432  0.00  0.00     0.382 C 
ATOM     23  O   LIG d   1      -4.339  76.399 115.618  0.00  0.00    -0.241 OA
ATOM     24  O   LIG d   1      -2.373  75.527 115.824  0.00  0.00    -0.241 OA
ENDBRANCH   3  22
TORSDOF 7
ENDMDL
MODEL 8
REMARK VINA RESULT:      -4.2      2.512      5.384
REMARK  7 active torsions:
REMARK  status: ('A' for Active; 'I' for Inactive)
REMARK    1  A    between atoms: C_2  and  C_3 
REMARK    2  A    between atoms: C_3  and  O_6 
REMARK    3  A    between atoms: C_3  and  C_4 
REMARK    4  A    between atoms: C_7  and  O_6 
REMARK    5  A    between atoms: C_9  and  C_10 
REMARK    6  A    between atoms: N_15  and  C_14 
REMARK    7  A    between atoms: N_20  and  C_19 
REMARK       I    between atoms: C_22  and  N_20 
ROOT
ATOM      1  C   LIG d   1      -0.751  80.297 114.212  0.00  0.00     0.161 C 
ATOM      2  C   LIG d   1      -1.423  79.124 114.591  0.00  0.00     0.016 C 
ATOM      3  C   LIG d   1      -1.959  78.200 113.664  0.00  0.00     0.038 C 
ATOM      4  C   LIG d   1      -1.726  78.313 112.285  0.00  0.00     0.028 C 
ATOM      5  C   LIG d   1      -1.485  79.747 111.827  0.00  0.00    -0.047 C 
ATOM      6  C   LIG d   1      -0.389  80.381 112.714  0.00  0.00     0.091 C 
ENDROOT
BRANCH   1   7
ATOM      7  O   LIG d   1       0.429  80.468 115.022  0.00  0.00    -0.368 OA
BRANCH   7   8
ATOM      8  C   LIG d   1       0.340  81.458 116.077  0.00  0.00     0.119 C 
BRANCH   8   9
ATOM      9  C   LIG d   1      -0.029  80.718 117.377  0.00  0.00     0.028 C 
ATOM     10  C   LIG d   1      -1.213  81.371 118.108  0.00  0.00     0.006 C 
ENDBRANCH   8   9
BRANCH   8  11
ATOM     11  C   LIG d   1      -0.811  82.436 115.827  0.00  0.00     0.028 C 
ATOM     12  C   LIG d   1      -0.325  83.858 115.502  0.00  0.00     0.006 C 
ENDBRANCH   8  11
ENDBRANCH   7   8
ENDBRANCH   1   7
BRANCH   6  13
ATOM     13  N   LIG d   1      -0.152  81.811 112.388  0.00  0.00    -0.311 N 
ATOM     14  C   LIG d   1      -1.127  82.665 112.085  0.00  0.00     0.210 C 
ATOM     15  C   LIG d   1      -0.663  84.089 111.761  0.00  0.00     0.109 C 
ATOM     16  O   LIG d   1      -2.336  82.388 112.085  0.00  0.00    -0.276 OA
ATOM     17  H   LIG d   1       0.798  82.129 112.394  0.00  0.00     0.149 HD
ENDBRANCH   6  13
BRANCH   5  18
ATOM     18  N   LIG d   1      -1.119  79.703 110.399  0.00  0.00     0.381 N 
ATOM     19  H   LIG d   1      -0.138  79.867 110.295  0.00  0.00    -0.090 HD
ATOM     20  H   LIG d   1      -1.613  80.432 109.914  0.00  0.00    -0.090 HD
ATOM     21  H   LIG d   1      -1.359  78.817 110.012  0.00  0.00    -0.090 HD
ENDBRANCH   5  18
BRANCH   3  22
ATOM     22  C   LIG d   1      -2.773  77.171 114.112  0.00  0.00     0.382 C 
ATOM     23  O   LIG d   1      -3.296  77.235 115.251  0.00  0.00    -0.241 OA
ATOM     24  O   LIG d   1      -2.956  76.159 113.410  0.00  0.00    -0.241 OA
ENDBRANCH   3  22
TORSDOF 7
ENDMDL
MODEL 9
REMARK VINA RESULT:      -4.0      2.613      6.218
REMARK  7 active torsions:
REMARK  status: ('A' for Active; 'I' for Inactive)
REMARK    1  A    between atoms: C_2  and  C_3 
REMARK    2  A    between atoms: C_3  and  O_6 
REMARK    3  A    between atoms: C_3  and  C_4 
REMARK    4  A    between atoms: C_7  and  O_6 
REMARK    5  A    between atoms: C_9  and  C_10 
REMARK    6  A    between atoms: N_15  and  C_14 
REMARK    7  A    between atoms: N_20  and  C_19 
REMARK       I    between atoms: C_22  and  N_20 
ROOT
ATOM      1  C   LIG d   1      -2.431  79.085 115.592  0.00  0.00     0.161 C 
ATOM      2  C   LIG d   1      -1.977  77.969 114.870  0.00  0.00     0.016 C 
ATOM      3  C   LIG d   1      -2.131  76.637 115.316  0.00  0.00     0.038 C 
ATOM      4  C   LIG d   1      -2.891  76.319 116.452  0.00  0.00     0.028 C 
ATOM      5  C   LIG d   1      -2.938  77.442 117.483  0.00  0.00    -0.047 C 
ATOM      6  C   LIG d   1      -3.360  78.752 116.779  0.00  0.00     0.091 C 
ENDROOT
BRANCH   1   7
ATOM      7  O   LIG d   1      -3.073  80.017 114.700  0.00  0.00    -0.368 OA
BRANCH   7   8
ATOM      8  C   LIG d   1      -2.263  81.131 114.250  0.00  0.00     0.119 C 
BRANCH   8   9
ATOM      9  C   LIG d   1      -2.635  82.351 115.115  0.00  0.00     0.028 C 
ATOM     10  C   LIG d   1      -1.531  82.715 116.122  0.00  0.00     0.006 C 
ENDBRANCH   8   9
BRANCH   8  11
ATOM     11  C   LIG d   1      -2.612  81.530 112.814  0.00  0.00     0.028 C 
ATOM     12  C   LIG d   1      -1.516  82.376 112.147  0.00  0.00     0.006 C 
ENDBRANCH   8  11
ENDBRANCH   7   8
ENDBRANCH   1   7
BRANCH   6  13
ATOM     13  N   LIG d   1      -3.350  79.919 117.699  0.00  0.00    -0.311 N 
ATOM     14  C   LIG d   1      -4.426  80.661 117.954  0.00  0.00     0.210 C 
ATOM     15  C   LIG d   1      -4.192  81.830 118.917  0.00  0.00     0.109 C 
ATOM     16  O   LIG d   1      -5.559  80.444 117.499  0.00  0.00    -0.276 OA
ATOM     17  H   LIG d   1      -2.478  80.148 118.136  0.00  0.00     0.149 HD
ENDBRANCH   6  13
BRANCH   5  18
ATOM     18  N   LIG d   1      -3.872  77.031 118.548  0.00  0.00     0.381 N 
ATOM     19  H   LIG d   1      -3.486  76.263 119.059  0.00  0.00    -0.090 HD
ATOM     20  H   LIG d   1      -4.733  76.729 118.126  0.00  0.00    -0.090 HD
ATOM     21  H   LIG d   1      -4.045  77.795 119.163  0.00  0.00    -0.090 HD
ENDBRANCH   5  18
BRANCH   3  22
ATOM     22  C   LIG d   1      -1.488  75.608 114.645  0.00  0.00     0.382 C 
ATOM     23  O   LIG d   1      -1.028  74.633 115.286  0.00  0.00    -0.241 OA
ATOM     24  O   LIG d   1      -1.324  75.664 113.412  0.00  0.00    -0.241 OA
ENDBRANCH   3  22
TORSDOF 7
ENDMDL
