MODEL 1
REMARK VINA RESULT:      -5.1      0.000      0.000
REMARK  7 active torsions:
REMARK  status: ('A' for Active; 'I' for Inactive)
REMARK    1  A    between atoms: C_2  and  C_3 
REMARK    2  A    between atoms: C_3  and  O_6 
REMARK    3  A    between atoms: C_3  and  C_4 
REMARK    4  A    between atoms: C_7  and  O_6 
REMARK    5  A    between atoms: C_9  and  C_10 
REMARK    6  A    between atoms: N_15  and  C_14 
REMARK    7  A    between atoms: N_20  and  C_19 
REMARK       I    between atoms: C_22  and  N_20 
ROOT
ATOM      1  C   LIG d   1      -2.967  76.717 114.647  0.00  0.00     0.161 C 
ATOM      2  C   LIG d   1      -3.099  76.945 113.267  0.00  0.00     0.016 C 
ATOM      3  C   LIG d   1      -2.231  77.783 112.530  0.00  0.00     0.038 C 
ATOM      4  C   LIG d   1      -1.073  78.335 113.099  0.00  0.00     0.028 C 
ATOM      5  C   LIG d   1      -1.178  78.541 114.607  0.00  0.00    -0.047 C 
ATOM      6  C   LIG d   1      -1.645  77.221 115.262  0.00  0.00     0.091 C 
ENDROOT
BRANCH   1   7
ATOM      7  O   LIG d   1      -3.148  75.315 114.930  0.00  0.00    -0.368 OA
BRANCH   7   8
ATOM      8  C   LIG d   1      -4.381  74.955 115.600  0.00  0.00     0.119 C 
BRANCH   8   9
ATOM      9  C   LIG d   1      -5.393  74.539 114.515  0.00  0.00     0.028 C 
ATOM     10  C   LIG d   1      -6.432  75.637 114.231  0.00  0.00     0.006 C 
ENDBRANCH   8   9
BRANCH   8  11
ATOM     11  C   LIG d   1      -5.009  76.164 116.299  0.00  0.00     0.028 C 
ATOM     12  C   LIG d   1      -5.112  75.985 117.822  0.00  0.00     0.006 C 
ENDBRANCH   8  11
ENDBRANCH   7   8
ENDBRANCH   1   7
BRANCH   6  13
ATOM     13  N   LIG d   1      -1.854  77.359 116.727  0.00  0.00    -0.311 N 
ATOM     14  C   LIG d   1      -1.312  76.539 117.626  0.00  0.00     0.210 C 
ATOM     15  C   LIG d   1      -1.672  76.847 119.082  0.00  0.00     0.109 C 
ATOM     16  O   LIG d   1      -0.541  75.606 117.357  0.00  0.00    -0.276 OA
ATOM     17  H   LIG d   1      -2.442  78.109 117.035  0.00  0.00     0.149 HD
ENDBRANCH   6  13
BRANCH   5  18
ATOM     18  N   LIG d   1       0.142  78.991 115.088  0.00  0.00     0.381 N 
ATOM     19  H   LIG d   1       0.738  78.200 115.228  0.00  0.00    -0.090 HD
ATOM     20  H   LIG d   1       0.024  79.458 115.970  0.00  0.00    -0.090 HD
ATOM     21  H   LIG d   1       0.552  79.613 114.426  0.00  0.00    -0.090 HD
ENDBRANCH   5  18
BRANCH   3  22
ATOM     22  C   LIG d   1      -2.540  78.110 111.219  0.00  0.00     0.382 C 
ATOM     23  O   LIG d   1      -3.521  77.570 110.653  0.00  0.00    -0.241 OA
ATOM     24  O   LIG d   1      -1.824  78.904 110.580  0.00  0.00    -0.241 OA
ENDBRANCH   3  22
TORSDOF 7
ENDMDL
MODEL 2
REMARK VINA RESULT:      -4.9      1.544      2.084
REMARK  7 active torsions:
REMARK  status: ('A' for Active; 'I' for Inactive)
REMARK    1  A    between atoms: C_2  and  C_3 
REMARK    2  A    between atoms: C_3  and  O_6 
REMARK    3  A    between atoms: C_3  and  C_4 
REMARK    4  A    between atoms: C_7  and  O_6 
REMARK    5  A    between atoms: C_9  and  C_10 
REMARK    6  A    between atoms: N_15  and  C_14 
REMARK    7  A    between atoms: N_20  and  C_19 
REMARK       I    between atoms: C_22  and  N_20 
ROOT
ATOM      1  C   LIG d   1      -3.324  76.274 114.998  0.00  0.00     0.161 C 
ATOM      2  C   LIG d   1      -3.558  76.905 113.764  0.00  0.00     0.016 C 
ATOM      3  C   LIG d   1      -2.556  77.098 112.786  0.00  0.00     0.038 C 
ATOM      4  C   LIG d   1      -1.277  76.535 112.914  0.00  0.00     0.028 C 
ATOM      5  C   LIG d   1      -0.849  76.325 114.363  0.00  0.00    -0.047 C 
ATOM      6  C   LIG d   1      -1.963  75.555 115.109  0.00  0.00     0.091 C 
ENDROOT
BRANCH   1   7
ATOM      7  O   LIG d   1      -4.399  75.360 115.291  0.00  0.00    -0.368 OA
BRANCH   7   8
ATOM      8  C   LIG d   1      -5.504  75.900 116.057  0.00  0.00     0.119 C 
BRANCH   8   9
ATOM      9  C   LIG d   1      -5.220  75.614 117.545  0.00  0.00     0.028 C 
ATOM     10  C   LIG d   1      -5.202  76.895 118.396  0.00  0.00     0.006 C 
ENDBRANCH   8   9
BRANCH   8  11
ATOM     11  C   LIG d   1      -6.810  75.165 115.745  0.00  0.00     0.028 C 
ATOM     12  C   LIG d   1      -8.024  75.777 116.462  0.00  0.00     0.006 C 
ENDBRANCH   8  11
ENDBRANCH   7   8
ENDBRANCH   1   7
BRANCH   6  13
ATOM     13  N   LIG d   1      -1.662  75.382 116.554  0.00  0.00    -0.311 N 
ATOM     14  C   LIG d   1      -1.579  76.397 117.412  0.00  0.00     0.210 C 
ATOM     15  C   LIG d   1      -1.240  76.000 118.852  0.00  0.00     0.109 C 
ATOM     16  O   LIG d   1      -1.787  77.585 117.125  0.00  0.00    -0.276 OA
ATOM     17  H   LIG d   1      -1.511  74.447 116.879  0.00  0.00     0.149 HD
ENDBRANCH   6  13
BRANCH   5  18
ATOM     18  N   LIG d   1       0.439  75.608 114.348  0.00  0.00     0.381 N 
ATOM     19  H   LIG d   1       0.340  74.743 113.855  0.00  0.00    -0.090 HD
ATOM     20  H   LIG d   1       0.708  75.402 115.294  0.00  0.00    -0.090 HD
ATOM     21  H   LIG d   1       1.137  76.169 113.911  0.00  0.00    -0.090 HD
ENDBRANCH   5  18
BRANCH   3  22
ATOM     22  C   LIG d   1      -2.817  77.895 111.683  0.00  0.00     0.382 C 
ATOM     23  O   LIG d   1      -3.558  77.471 110.764  0.00  0.00    -0.241 OA
ATOM     24  O   LIG d   1      -2.285  79.016 111.574  0.00  0.00    -0.241 OA
ENDBRANCH   3  22
TORSDOF 7
ENDMDL
MODEL 3
REMARK VINA RESULT:      -4.5      2.701      5.491
REMARK  7 active torsions:
REMARK  status: ('A' for Active; 'I' for Inactive)
REMARK    1  A    between atoms: C_2  and  C_3 
REMARK    2  A    between atoms: C_3  and  O_6 
REMARK    3  A    between atoms: C_3  and  C_4 
REMARK    4  A    between atoms: C_7  and  O_6 
REMARK    5  A    between atoms: C_9  and  C_10 
REMARK    6  A    between atoms: N_15  and  C_14 
REMARK    7  A    between atoms: N_20  and  C_19 
REMARK       I    between atoms: C_22  and  N_20 
ROOT
ATOM      1  C   LIG d   1      -1.381  79.171 113.995  0.00  0.00     0.161 C 
ATOM      2  C   LIG d   1      -2.274  78.130 114.299  0.00  0.00     0.016 C 
ATOM      3  C   LIG d   1      -2.874  77.307 113.318  0.00  0.00     0.038 C 
ATOM      4  C   LIG d   1      -2.502  77.373 111.967  0.00  0.00     0.028 C 
ATOM      5  C   LIG d   1      -1.982  78.744 111.548  0.00  0.00    -0.047 C 
ATOM      6  C   LIG d   1      -0.878  79.185 112.536  0.00  0.00     0.091 C 
ENDROOT
BRANCH   1   7
ATOM      7  O   LIG d   1      -0.267  79.142 114.909  0.00  0.00    -0.368 OA
BRANCH   7   8
ATOM      8  C   LIG d   1      -0.578  78.797 116.282  0.00  0.00     0.119 C 
BRANCH   8   9
ATOM      9  C   LIG d   1      -0.311  80.046 117.144  0.00  0.00     0.028 C 
ATOM     10  C   LIG d   1      -0.990  79.964 118.522  0.00  0.00     0.006 C 
ENDBRANCH   8   9
BRANCH   8  11
ATOM     11  C   LIG d   1       0.376  77.724 116.816  0.00  0.00     0.028 C 
ATOM     12  C   LIG d   1      -0.285  76.342 116.927  0.00  0.00     0.006 C 
ENDBRANCH   8  11
ENDBRANCH   7   8
ENDBRANCH   1   7
BRANCH   6  13
ATOM     13  N   LIG d   1      -0.373  80.553 112.248  0.00  0.00    -0.311 N 
ATOM     14  C   LIG d   1      -1.168  81.613 112.109  0.00  0.00     0.210 C 
ATOM     15  C   LIG d   1      -0.444  82.927 111.794  0.00  0.00     0.109 C 
ATOM     16  O   LIG d   1      -2.400  81.597 112.247  0.00  0.00    -0.276 OA
ATOM     17  H   LIG d   1       0.617  80.663 112.152  0.00  0.00     0.149 HD
ENDBRANCH   6  13
BRANCH   5  18
ATOM     18  N   LIG d   1      -1.502  78.633 110.158  0.00  0.00     0.381 N 
ATOM     19  H   LIG d   1      -2.223  78.247 109.581  0.00  0.00    -0.090 HD
ATOM     20  H   LIG d   1      -0.713  78.011 110.135  0.00  0.00    -0.090 HD
ATOM     21  H   LIG d   1      -1.237  79.530 109.816  0.00  0.00    -0.090 HD
ENDBRANCH   5  18
BRANCH   3  22
ATOM     22  C   LIG d   1      -3.887  76.433 113.680  0.00  0.00     0.382 C 
ATOM     23  O   LIG d   1      -3.671  75.545 114.540  0.00  0.00    -0.241 OA
ATOM     24  O   LIG d   1      -5.001  76.492 113.126  0.00  0.00    -0.241 OA
ENDBRANCH   3  22
TORSDOF 7
ENDMDL
MODEL 4
REMARK VINA RESULT:      -4.5      2.818      6.030
REMARK  7 active torsions:
REMARK  status: ('A' for Active; 'I' for Inactive)
REMARK    1  A    between atoms: C_2  and  C_3 
REMARK    2  A    between atoms: C_3  and  O_6 
REMARK    3  A    between atoms: C_3  and  C_4 
REMARK    4  A    between atoms: C_7  and  O_6 
REMARK    5  A    between atoms: C_9  and  C_10 
REMARK    6  A    between atoms: N_15  and  C_14 
REMARK    7  A    between atoms: N_20  and  C_19 
REMARK       I    between atoms: C_22  and  N_20 
ROOT
ATOM      1  C   LIG d   1      -4.313  76.294 117.261  0.00  0.00     0.161 C 
ATOM      2  C   LIG d   1      -5.420  75.942 118.050  0.00  0.00     0.016 C 
ATOM      3  C   LIG d   1      -6.649  75.496 117.512  0.00  0.00     0.038 C 
ATOM      4  C   LIG d   1      -6.805  75.227 116.144  0.00  0.00     0.028 C 
ATOM      5  C   LIG d   1      -5.876  76.048 115.255  0.00  0.00    -0.047 C 
ATOM      6  C   LIG d   1      -4.427  75.901 115.773  0.00  0.00     0.091 C 
ENDROOT
BRANCH   1   7
ATOM      7  O   LIG d   1      -3.110  75.744 117.833  0.00  0.00    -0.368 OA
BRANCH   7   8
ATOM      8  C   LIG d   1      -2.075  76.697 118.181  0.00  0.00     0.119 C 
BRANCH   8   9
ATOM      9  C   LIG d   1      -0.737  75.934 118.218  0.00  0.00     0.028 C 
ATOM     10  C   LIG d   1      -0.915  74.424 117.988  0.00  0.00     0.006 C 
ENDBRANCH   8   9
BRANCH   8  11
ATOM     11  C   LIG d   1      -2.272  77.240 119.599  0.00  0.00     0.028 C 
ATOM     12  C   LIG d   1      -2.674  78.723 119.619  0.00  0.00     0.006 C 
ENDBRANCH   8  11
ENDBRANCH   7   8
ENDBRANCH   1   7
BRANCH   6  13
ATOM     13  N   LIG d   1      -3.466  76.740 115.011  0.00  0.00    -0.311 N 
ATOM     14  C   LIG d   1      -2.302  76.285 114.550  0.00  0.00     0.210 C 
ATOM     15  C   LIG d   1      -1.451  77.320 113.808  0.00  0.00     0.109 C 
ATOM     16  O   LIG d   1      -1.907  75.114 114.657  0.00  0.00    -0.276 OA
ATOM     17  H   LIG d   1      -3.720  77.695 114.851  0.00  0.00     0.149 HD
ENDBRANCH   6  13
BRANCH   5  18
ATOM     18  N   LIG d   1      -6.047  75.569 113.870  0.00  0.00     0.381 N 
ATOM     19  H   LIG d   1      -6.928  75.104 113.779  0.00  0.00    -0.090 HD
ATOM     20  H   LIG d   1      -5.318  74.908 113.663  0.00  0.00    -0.090 HD
ATOM     21  H   LIG d   1      -6.000  76.336 113.236  0.00  0.00    -0.090 HD
ENDBRANCH   5  18
BRANCH   3  22
ATOM     22  C   LIG d   1      -7.751  75.353 118.341  0.00  0.00     0.382 C 
ATOM     23  O   LIG d   1      -7.744  74.489 119.250  0.00  0.00    -0.241 OA
ATOM     24  O   LIG d   1      -8.770  76.047 118.163  0.00  0.00    -0.241 OA
ENDBRANCH   3  22
TORSDOF 7
ENDMDL
MODEL 5
REMARK VINA RESULT:      -4.4      2.328      4.326
REMARK  7 active torsions:
REMARK  status: ('A' for Active; 'I' for Inactive)
REMARK    1  A    between atoms: C_2  and  C_3 
REMARK    2  A    between atoms: C_3  and  O_6 
REMARK    3  A    between atoms: C_3  and  C_4 
REMARK    4  A    between atoms: C_7  and  O_6 
REMARK    5  A    between atoms: C_9  and  C_10 
REMARK    6  A    between atoms: N_15  and  C_14 
REMARK    7  A    between atoms: N_20  and  C_19 
REMARK       I    between atoms: C_22  and  N_20 
ROOT
ATOM      1  C   LIG d   1      -0.506  76.788 115.508  0.00  0.00     0.161 C 
ATOM      2  C   LIG d   1      -1.083  77.354 114.359  0.00  0.00     0.016 C 
ATOM      3  C   LIG d   1      -2.379  77.028 113.898  0.00  0.00     0.038 C 
ATOM      4  C   LIG d   1      -3.251  76.222 114.645  0.00  0.00     0.028 C 
ATOM      5  C   LIG d   1      -2.531  75.230 115.552  0.00  0.00    -0.047 C 
ATOM      6  C   LIG d   1      -1.484  75.991 116.397  0.00  0.00     0.091 C 
ENDROOT
BRANCH   1   7
ATOM      7  O   LIG d   1       0.151  77.813 116.280  0.00  0.00    -0.368 OA
BRANCH   7   8
ATOM      8  C   LIG d   1      -0.602  79.033 116.492  0.00  0.00     0.119 C 
BRANCH   8   9
ATOM      9  C   LIG d   1       0.320  80.214 116.132  0.00  0.00     0.028 C 
ATOM     10  C   LIG d   1       0.013  80.796 114.742  0.00  0.00     0.006 C 
ENDBRANCH   8   9
BRANCH   8  11
ATOM     11  C   LIG d   1      -0.948  79.224 117.971  0.00  0.00     0.028 C 
ATOM     12  C   LIG d   1      -0.586  80.624 118.491  0.00  0.00     0.006 C 
ENDBRANCH   8  11
ENDBRANCH   7   8
ENDBRANCH   1   7
BRANCH   6  13
ATOM     13  N   LIG d   1      -0.676  75.083 117.252  0.00  0.00    -0.311 N 
ATOM     14  C   LIG d   1      -0.528  75.251 118.565  0.00  0.00     0.210 C 
ATOM     15  C   LIG d   1       0.362  74.211 119.253  0.00  0.00     0.109 C 
ATOM     16  O   LIG d   1      -1.076  76.143 119.230  0.00  0.00    -0.276 OA
ATOM     17  H   LIG d   1      -0.223  74.314 116.799  0.00  0.00     0.149 HD
ENDBRANCH   6  13
BRANCH   5  18
ATOM     18  N   LIG d   1      -3.554  74.553 116.372  0.00  0.00     0.381 N 
ATOM     19  H   LIG d   1      -3.539  74.919 117.303  0.00  0.00    -0.090 HD
ATOM     20  H   LIG d   1      -3.338  73.573 116.416  0.00  0.00    -0.090 HD
ATOM     21  H   LIG d   1      -4.456  74.685 115.970  0.00  0.00    -0.090 HD
ENDBRANCH   5  18
BRANCH   3  22
ATOM     22  C   LIG d   1      -2.801  77.480 112.657  0.00  0.00     0.382 C 
ATOM     23  O   LIG d   1      -3.382  78.587 112.556  0.00  0.00    -0.241 OA
ATOM     24  O   LIG d   1      -2.647  76.774 111.642  0.00  0.00    -0.241 OA
ENDBRANCH   3  22
TORSDOF 7
ENDMDL
MODEL 6
REMARK VINA RESULT:      -4.3      3.102      4.214
REMARK  7 active torsions:
REMARK  status: ('A' for Active; 'I' for Inactive)
REMARK    1  A    between atoms: C_2  and  C_3 
REMARK    2  A    between atoms: C_3  and  O_6 
REMARK    3  A    between atoms: C_3  and  C_4 
REMARK    4  A    between atoms: C_7  and  O_6 
REMARK    5  A    between atoms: C_9  and  C_10 
REMARK    6  A    between atoms: N_15  and  C_14 
REMARK    7  A    between atoms: N_20  and  C_19 
REMARK       I    between atoms: C_22  and  N_20 
ROOT
ATOM      1  C   LIG d   1      -4.352  75.680 116.563  0.00  0.00     0.161 C 
ATOM      2  C   LIG d   1      -3.238  75.271 115.811  0.00  0.00     0.016 C 
ATOM      3  C   LIG d   1      -1.909  75.636 116.126  0.00  0.00     0.038 C 
ATOM      4  C   LIG d   1      -1.588  76.315 117.311  0.00  0.00     0.028 C 
ATOM      5  C   LIG d   1      -2.726  77.183 117.839  0.00  0.00    -0.047 C 
ATOM      6  C   LIG d   1      -4.011  76.328 117.921  0.00  0.00     0.091 C 
ENDROOT
BRANCH   1   7
ATOM      7  O   LIG d   1      -5.250  74.568 116.750  0.00  0.00    -0.368 OA
BRANCH   7   8
ATOM      8  C   LIG d   1      -6.475  74.602 115.976  0.00  0.00     0.119 C 
BRANCH   8   9
ATOM      9  C   LIG d   1      -6.583  76.002 115.342  0.00  0.00     0.028 C 
ATOM     10  C   LIG d   1      -6.550  75.955 113.805  0.00  0.00     0.006 C 
ENDBRANCH   8   9
BRANCH   8  11
ATOM     11  C   LIG d   1      -7.706  74.467 116.876  0.00  0.00     0.028 C 
ATOM     12  C   LIG d   1      -8.714  75.612 116.683  0.00  0.00     0.006 C 
ENDBRANCH   8  11
ENDBRANCH   7   8
ENDBRANCH   1   7
BRANCH   6  13
ATOM     13  N   LIG d   1      -5.193  77.122 118.349  0.00  0.00    -0.311 N 
ATOM     14  C   LIG d   1      -6.084  76.689 119.239  0.00  0.00     0.210 C 
ATOM     15  C   LIG d   1      -7.237  77.656 119.523  0.00  0.00     0.109 C 
ATOM     16  O   LIG d   1      -6.011  75.609 119.844  0.00  0.00    -0.276 OA
ATOM     17  H   LIG d   1      -5.312  78.024 117.931  0.00  0.00     0.149 HD
ENDBRANCH   6  13
BRANCH   5  18
ATOM     18  N   LIG d   1      -2.305  77.722 119.146  0.00  0.00     0.381 N 
ATOM     19  H   LIG d   1      -3.109  78.008 119.668  0.00  0.00    -0.090 HD
ATOM     20  H   LIG d   1      -1.725  78.528 118.993  0.00  0.00    -0.090 HD
ATOM     21  H   LIG d   1      -1.799  77.030 119.653  0.00  0.00    -0.090 HD
ENDBRANCH   5  18
BRANCH   3  22
ATOM     22  C   LIG d   1      -0.888  75.355 115.230  0.00  0.00     0.382 C 
ATOM     23  O   LIG d   1      -0.231  76.292 114.716  0.00  0.00    -0.241 OA
ATOM     24  O   LIG d   1      -0.646  74.180 114.896  0.00  0.00    -0.241 OA
ENDBRANCH   3  22
TORSDOF 7
ENDMDL
MODEL 7
REMARK VINA RESULT:      -4.3      2.999      4.760
REMARK  7 active torsions:
REMARK  status: ('A' for Active; 'I' for Inactive)
REMARK    1  A    between atoms: C_2  and  C_3 
REMARK    2  A    between atoms: C_3  and  O_6 
REMARK    3  A    between atoms: C_3  and  C_4 
REMARK    4  A    between atoms: C_7  and  O_6 
REMARK    5  A    between atoms: C_9  and  C_10 
REMARK    6  A    between atoms: N_15  and  C_14 
REMARK    7  A    between atoms: N_20  and  C_19 
REMARK       I    between atoms: C_22  and  N_20 
ROOT
ATOM      1  C   LIG d   1      -0.019  79.162 114.742  0.00  0.00     0.161 C 
ATOM      2  C   LIG d   1      -0.290  80.488 114.363  0.00  0.00     0.016 C 
ATOM      3  C   LIG d   1      -1.363  80.852 113.518  0.00  0.00     0.038 C 
ATOM      4  C   LIG d   1      -2.335  79.925 113.112  0.00  0.00     0.028 C 
ATOM      5  C   LIG d   1      -1.818  78.491 113.057  0.00  0.00    -0.047 C 
ATOM      6  C   LIG d   1      -1.134  78.152 114.400  0.00  0.00     0.091 C 
ENDROOT
BRANCH   1   7
ATOM      7  O   LIG d   1       0.291  79.110 116.149  0.00  0.00    -0.368 OA
BRANCH   7   8
ATOM      8  C   LIG d   1      -0.841  79.143 117.052  0.00  0.00     0.119 C 
BRANCH   8   9
ATOM      9  C   LIG d   1      -0.593  80.279 118.063  0.00  0.00     0.028 C 
ATOM     10  C   LIG d   1      -1.605  80.265 119.222  0.00  0.00     0.006 C 
ENDBRANCH   8   9
BRANCH   8  11
ATOM     11  C   LIG d   1      -0.922  77.864 117.891  0.00  0.00     0.028 C 
ATOM     12  C   LIG d   1       0.423  77.128 117.987  0.00  0.00     0.006 C 
ENDBRANCH   8  11
ENDBRANCH   7   8
ENDBRANCH   1   7
BRANCH   6  13
ATOM     13  N   LIG d   1      -0.526  76.795 114.400  0.00  0.00    -0.311 N 
ATOM     14  C   LIG d   1      -1.159  75.709 114.839  0.00  0.00     0.210 C 
ATOM     15  C   LIG d   1      -0.344  74.413 114.769  0.00  0.00     0.109 C 
ATOM     16  O   LIG d   1      -2.329  75.689 115.249  0.00  0.00    -0.276 OA
ATOM     17  H   LIG d   1       0.410  76.715 114.055  0.00  0.00     0.149 HD
ENDBRANCH   6  13
BRANCH   5  18
ATOM     18  N   LIG d   1      -2.966  77.615 112.755  0.00  0.00     0.381 N 
ATOM     19  H   LIG d   1      -3.193  77.066 113.560  0.00  0.00    -0.090 HD
ATOM     20  H   LIG d   1      -2.713  76.992 112.009  0.00  0.00    -0.090 HD
ATOM     21  H   LIG d   1      -3.753  78.165 112.486  0.00  0.00    -0.090 HD
ENDBRANCH   5  18
BRANCH   3  22
ATOM     22  C   LIG d   1      -1.448  82.149 113.036  0.00  0.00     0.382 C 
ATOM     23  O   LIG d   1      -1.461  82.359 111.799  0.00  0.00    -0.241 OA
ATOM     24  O   LIG d   1      -1.468  83.115 113.822  0.00  0.00    -0.241 OA
ENDBRANCH   3  22
TORSDOF 7
ENDMDL
MODEL 8
REMARK VINA RESULT:      -4.3      1.875      2.581
REMARK  7 active torsions:
REMARK  status: ('A' for Active; 'I' for Inactive)
REMARK    1  A    between atoms: C_2  and  C_3 
REMARK    2  A    between atoms: C_3  and  O_6 
REMARK    3  A    between atoms: C_3  and  C_4 
REMARK    4  A    between atoms: C_7  and  O_6 
REMARK    5  A    between atoms: C_9  and  C_10 
REMARK    6  A    between atoms: N_15  and  C_14 
REMARK    7  A    between atoms: N_20  and  C_19 
REMARK       I    between atoms: C_22  and  N_20 
ROOT
ATOM      1  C   LIG d   1      -1.601  76.935 114.930  0.00  0.00     0.161 C 
ATOM      2  C   LIG d   1      -1.684  76.727 113.543  0.00  0.00     0.016 C 
ATOM      3  C   LIG d   1      -1.446  77.742 112.588  0.00  0.00     0.038 C 
ATOM      4  C   LIG d   1      -0.958  79.005 112.955  0.00  0.00     0.028 C 
ATOM      5  C   LIG d   1      -1.343  79.415 114.372  0.00  0.00    -0.047 C 
ATOM      6  C   LIG d   1      -0.962  78.276 115.345  0.00  0.00     0.091 C 
ENDROOT
BRANCH   1   7
ATOM      7  O   LIG d   1      -0.905  75.835 115.548  0.00  0.00    -0.368 OA
BRANCH   7   8
ATOM      8  C   LIG d   1      -1.734  74.769 116.073  0.00  0.00     0.119 C 
BRANCH   8   9
ATOM      9  C   LIG d   1      -3.078  75.394 116.495  0.00  0.00     0.028 C 
ATOM     10  C   LIG d   1      -4.284  74.549 116.051  0.00  0.00     0.006 C 
ENDBRANCH   8   9
BRANCH   8  11
ATOM     11  C   LIG d   1      -1.140  74.180 117.355  0.00  0.00     0.028 C 
ATOM     12  C   LIG d   1      -0.303  75.198 118.146  0.00  0.00     0.006 C 
ENDBRANCH   8  11
ENDBRANCH   7   8
ENDBRANCH   1   7
BRANCH   6  13
ATOM     13  N   LIG d   1      -1.381  78.560 116.742  0.00  0.00    -0.311 N 
ATOM     14  C   LIG d   1      -0.647  79.270 117.598  0.00  0.00     0.210 C 
ATOM     15  C   LIG d   1      -1.255  79.428 118.995  0.00  0.00     0.109 C 
ATOM     16  O   LIG d   1       0.435  79.811 117.323  0.00  0.00    -0.276 OA
ATOM     17  H   LIG d   1      -2.260  78.185 117.040  0.00  0.00     0.149 HD
ENDBRANCH   6  13
BRANCH   5  18
ATOM     18  N   LIG d   1      -0.655  80.685 114.671  0.00  0.00     0.381 N 
ATOM     19  H   LIG d   1      -0.351  80.690 115.624  0.00  0.00    -0.090 HD
ATOM     20  H   LIG d   1      -1.302  81.443 114.542  0.00  0.00    -0.090 HD
ATOM     21  H   LIG d   1       0.127  80.800 114.065  0.00  0.00    -0.090 HD
ENDBRANCH   5  18
BRANCH   3  22
ATOM     22  C   LIG d   1      -1.735  77.510 111.252  0.00  0.00     0.382 C 
ATOM     23  O   LIG d   1      -1.962  78.475 110.483  0.00  0.00    -0.241 OA
ATOM     24  O   LIG d   1      -1.815  76.346 110.815  0.00  0.00    -0.241 OA
ENDBRANCH   3  22
TORSDOF 7
ENDMDL
MODEL 9
REMARK VINA RESULT:      -4.0      3.456      6.550
REMARK  7 active torsions:
REMARK  status: ('A' for Active; 'I' for Inactive)
REMARK    1  A    between atoms: C_2  and  C_3 
REMARK    2  A    between atoms: C_3  and  O_6 
REMARK    3  A    between atoms: C_3  and  C_4 
REMARK    4  A    between atoms: C_7  and  O_6 
REMARK    5  A    between atoms: C_9  and  C_10 
REMARK    6  A    between atoms: N_15  and  C_14 
REMARK    7  A    between atoms: N_20  and  C_19 
REMARK       I    between atoms: C_22  and  N_20 
ROOT
ATOM      1  C   LIG d   1      -0.688  80.008 113.688  0.00  0.00     0.161 C 
ATOM      2  C   LIG d   1      -1.541  78.992 114.151  0.00  0.00     0.016 C 
ATOM      3  C   LIG d   1      -2.119  78.017 113.307  0.00  0.00     0.038 C 
ATOM      4  C   LIG d   1      -1.761  77.899 111.956  0.00  0.00     0.028 C 
ATOM      5  C   LIG d   1      -1.294  79.212 111.337  0.00  0.00    -0.047 C 
ATOM      6  C   LIG d   1      -0.198  79.829 112.236  0.00  0.00     0.091 C 
ENDROOT
BRANCH   1   7
ATOM      7  O   LIG d   1       0.434  80.149 114.582  0.00  0.00    -0.368 OA
BRANCH   7   8
ATOM      8  C   LIG d   1       0.440  81.334 115.415  0.00  0.00     0.119 C 
BRANCH   8   9
ATOM      9  C   LIG d   1      -0.016  80.911 116.825  0.00  0.00     0.028 C 
ATOM     10  C   LIG d   1       0.438  81.902 117.911  0.00  0.00     0.006 C 
ENDBRANCH   8   9
BRANCH   8  11
ATOM     11  C   LIG d   1      -0.601  82.354 114.942  0.00  0.00     0.028 C 
ATOM     12  C   LIG d   1      -0.057  83.791 114.913  0.00  0.00     0.006 C 
ENDBRANCH   8  11
ENDBRANCH   7   8
ENDBRANCH   1   7
BRANCH   6  13
ATOM     13  N   LIG d   1       0.255  81.158 111.748  0.00  0.00    -0.311 N 
ATOM     14  C   LIG d   1      -0.573  82.173 111.510  0.00  0.00     0.210 C 
ATOM     15  C   LIG d   1       0.099  83.448 110.992  0.00  0.00     0.109 C 
ATOM     16  O   LIG d   1      -1.797  82.149 111.709  0.00  0.00    -0.276 OA
ATOM     17  H   LIG d   1       1.237  81.275 111.589  0.00  0.00     0.149 HD
ENDBRANCH   6  13
BRANCH   5  18
ATOM     18  N   LIG d   1      -0.822  78.918 109.970  0.00  0.00     0.381 N 
ATOM     19  H   LIG d   1      -1.556  78.488 109.444  0.00  0.00    -0.090 HD
ATOM     20  H   LIG d   1      -0.053  78.274 110.024  0.00  0.00    -0.090 HD
ATOM     21  H   LIG d   1      -0.530  79.759 109.522  0.00  0.00    -0.090 HD
ENDBRANCH   5  18
BRANCH   3  22
ATOM     22  C   LIG d   1      -3.098  77.170 113.805  0.00  0.00     0.382 C 
ATOM     23  O   LIG d   1      -3.013  76.735 114.979  0.00  0.00    -0.241 OA
ATOM     24  O   LIG d   1      -4.041  76.799 113.080  0.00  0.00    -0.241 OA
ENDBRANCH   3  22
TORSDOF 7
ENDMDL
