MODEL 1
REMARK VINA RESULT:      -5.3      0.000      0.000
REMARK  7 active torsions:
REMARK  status: ('A' for Active; 'I' for Inactive)
REMARK    1  A    between atoms: C_2  and  C_3 
REMARK    2  A    between atoms: C_3  and  O_6 
REMARK    3  A    between atoms: C_3  and  C_4 
REMARK    4  A    between atoms: C_7  and  O_6 
REMARK    5  A    between atoms: C_9  and  C_10 
REMARK    6  A    between atoms: N_15  and  C_14 
REMARK    7  A    between atoms: N_20  and  C_19 
REMARK       I    between atoms: C_22  and  N_20 
ROOT
ATOM      1  C   LIG d   1      -3.169  76.810 115.248  0.00  0.00     0.161 C 
ATOM      2  C   LIG d   1      -3.311  77.724 114.191  0.00  0.00     0.016 C 
ATOM      3  C   LIG d   1      -2.346  78.708 113.877  0.00  0.00     0.038 C 
ATOM      4  C   LIG d   1      -1.094  78.747 114.510  0.00  0.00     0.028 C 
ATOM      5  C   LIG d   1      -1.110  78.167 115.920  0.00  0.00    -0.047 C 
ATOM      6  C   LIG d   1      -1.761  76.766 115.879  0.00  0.00     0.091 C 
ENDROOT
BRANCH   1   7
ATOM      7  O   LIG d   1      -3.565  75.494 114.814  0.00  0.00    -0.368 OA
BRANCH   7   8
ATOM      8  C   LIG d   1      -4.698  74.910 115.502  0.00  0.00     0.119 C 
BRANCH   8   9
ATOM      9  C   LIG d   1      -5.739  74.523 114.433  0.00  0.00     0.028 C 
ATOM     10  C   LIG d   1      -6.657  75.698 114.056  0.00  0.00     0.006 C 
ENDBRANCH   8   9
BRANCH   8  11
ATOM     11  C   LIG d   1      -5.397  75.938 116.396  0.00  0.00     0.028 C 
ATOM     12  C   LIG d   1      -5.812  75.359 117.758  0.00  0.00     0.006 C 
ENDBRANCH   8  11
ENDBRANCH   7   8
ENDBRANCH   1   7
BRANCH   6  13
ATOM     13  N   LIG d   1      -1.893  76.162 117.231  0.00  0.00    -0.311 N 
ATOM     14  C   LIG d   1      -1.007  75.309 117.742  0.00  0.00     0.210 C 
ATOM     15  C   LIG d   1      -1.344  74.790 119.144  0.00  0.00     0.109 C 
ATOM     16  O   LIG d   1       0.042  74.958 117.181  0.00  0.00    -0.276 OA
ATOM     17  H   LIG d   1      -2.699  76.416 117.767  0.00  0.00     0.149 HD
ENDBRANCH   6  13
BRANCH   5  18
ATOM     18  N   LIG d   1       0.281  78.145 116.409  0.00  0.00     0.381 N 
ATOM     19  H   LIG d   1       0.407  77.376 117.037  0.00  0.00    -0.090 HD
ATOM     20  H   LIG d   1       0.463  78.996 116.911  0.00  0.00    -0.090 HD
ATOM     21  H   LIG d   1       0.911  78.062 115.641  0.00  0.00    -0.090 HD
ENDBRANCH   5  18
BRANCH   3  22
ATOM     22  C   LIG d   1      -2.645  79.692 112.947  0.00  0.00     0.382 C 
ATOM     23  O   LIG d   1      -1.967  79.787 111.895  0.00  0.00    -0.241 OA
ATOM     24  O   LIG d   1      -3.554  80.514 113.167  0.00  0.00    -0.241 OA
ENDBRANCH   3  22
TORSDOF 7
ENDMDL
MODEL 2
REMARK VINA RESULT:      -5.2      1.819      4.693
REMARK  7 active torsions:
REMARK  status: ('A' for Active; 'I' for Inactive)
REMARK    1  A    between atoms: C_2  and  C_3 
REMARK    2  A    between atoms: C_3  and  O_6 
REMARK    3  A    between atoms: C_3  and  C_4 
REMARK    4  A    between atoms: C_7  and  O_6 
REMARK    5  A    between atoms: C_9  and  C_10 
REMARK    6  A    between atoms: N_15  and  C_14 
REMARK    7  A    between atoms: N_20  and  C_19 
REMARK       I    between atoms: C_22  and  N_20 
ROOT
ATOM      1  C   LIG d   1      -2.255  75.599 114.951  0.00  0.00     0.161 C 
ATOM      2  C   LIG d   1      -2.049  75.218 116.288  0.00  0.00     0.016 C 
ATOM      3  C   LIG d   1      -1.337  76.007 117.221  0.00  0.00     0.038 C 
ATOM      4  C   LIG d   1      -0.910  77.308 116.918  0.00  0.00     0.028 C 
ATOM      5  C   LIG d   1      -0.653  77.531 115.432  0.00  0.00    -0.047 C 
ATOM      6  C   LIG d   1      -1.892  77.065 114.633  0.00  0.00     0.091 C 
ENDROOT
BRANCH   1   7
ATOM      7  O   LIG d   1      -3.618  75.326 114.570  0.00  0.00    -0.368 OA
BRANCH   7   8
ATOM      8  C   LIG d   1      -4.589  75.310 115.644  0.00  0.00     0.119 C 
BRANCH   8   9
ATOM      9  C   LIG d   1      -5.597  74.185 115.340  0.00  0.00     0.028 C 
ATOM     10  C   LIG d   1      -6.786  74.181 116.316  0.00  0.00     0.006 C 
ENDBRANCH   8   9
BRANCH   8  11
ATOM     11  C   LIG d   1      -5.416  76.599 115.668  0.00  0.00     0.028 C 
ATOM     12  C   LIG d   1      -4.932  77.597 116.732  0.00  0.00     0.006 C 
ENDBRANCH   8  11
ENDBRANCH   7   8
ENDBRANCH   1   7
BRANCH   6  13
ATOM     13  N   LIG d   1      -1.692  77.170 113.164  0.00  0.00    -0.311 N 
ATOM     14  C   LIG d   1      -2.573  77.739 112.343  0.00  0.00     0.210 C 
ATOM     15  C   LIG d   1      -2.181  77.724 110.863  0.00  0.00     0.109 C 
ATOM     16  O   LIG d   1      -3.627  78.284 112.705  0.00  0.00    -0.276 OA
ATOM     17  H   LIG d   1      -0.849  76.781 112.790  0.00  0.00     0.149 HD
ENDBRANCH   6  13
BRANCH   5  18
ATOM     18  N   LIG d   1      -0.348  78.962 115.242  0.00  0.00     0.381 N 
ATOM     19  H   LIG d   1       0.122  79.095 114.369  0.00  0.00    -0.090 HD
ATOM     20  H   LIG d   1       0.263  79.265 115.979  0.00  0.00    -0.090 HD
ATOM     21  H   LIG d   1      -1.190  79.495 115.258  0.00  0.00    -0.090 HD
ENDBRANCH   5  18
BRANCH   3  22
ATOM     22  C   LIG d   1      -1.012  75.478 118.461  0.00  0.00     0.382 C 
ATOM     23  O   LIG d   1      -1.848  75.512 119.396  0.00  0.00    -0.241 OA
ATOM     24  O   LIG d   1       0.123  75.008 118.669  0.00  0.00    -0.241 OA
ENDBRANCH   3  22
TORSDOF 7
ENDMDL
MODEL 3
REMARK VINA RESULT:      -4.9      2.074      5.158
REMARK  7 active torsions:
REMARK  status: ('A' for Active; 'I' for Inactive)
REMARK    1  A    between atoms: C_2  and  C_3 
REMARK    2  A    between atoms: C_3  and  O_6 
REMARK    3  A    between atoms: C_3  and  C_4 
REMARK    4  A    between atoms: C_7  and  O_6 
REMARK    5  A    between atoms: C_9  and  C_10 
REMARK    6  A    between atoms: N_15  and  C_14 
REMARK    7  A    between atoms: N_20  and  C_19 
REMARK       I    between atoms: C_22  and  N_20 
ROOT
ATOM      1  C   LIG d   1      -3.257  78.316 115.468  0.00  0.00     0.161 C 
ATOM      2  C   LIG d   1      -2.012  78.712 115.984  0.00  0.00     0.016 C 
ATOM      3  C   LIG d   1      -1.208  77.883 116.799  0.00  0.00     0.038 C 
ATOM      4  C   LIG d   1      -1.527  76.537 117.032  0.00  0.00     0.028 C 
ATOM      5  C   LIG d   1      -3.022  76.247 116.949  0.00  0.00    -0.047 C 
ATOM      6  C   LIG d   1      -3.570  76.812 115.619  0.00  0.00     0.091 C 
ENDROOT
BRANCH   1   7
ATOM      7  O   LIG d   1      -3.363  78.713 114.087  0.00  0.00    -0.368 OA
BRANCH   7   8
ATOM      8  C   LIG d   1      -2.164  78.562 113.286  0.00  0.00     0.119 C 
BRANCH   8   9
ATOM      9  C   LIG d   1      -1.978  79.862 112.481  0.00  0.00     0.028 C 
ATOM     10  C   LIG d   1      -2.838  81.016 113.023  0.00  0.00     0.006 C 
ENDBRANCH   8   9
BRANCH   8  11
ATOM     11  C   LIG d   1      -2.330  77.456 112.239  0.00  0.00     0.028 C 
ATOM     12  C   LIG d   1      -2.115  77.959 110.803  0.00  0.00     0.006 C 
ENDBRANCH   8  11
ENDBRANCH   7   8
ENDBRANCH   1   7
BRANCH   6  13
ATOM     13  N   LIG d   1      -5.042  76.645 115.496  0.00  0.00    -0.311 N 
ATOM     14  C   LIG d   1      -5.613  75.666 114.796  0.00  0.00     0.210 C 
ATOM     15  C   LIG d   1      -7.144  75.689 114.783  0.00  0.00     0.109 C 
ATOM     16  O   LIG d   1      -4.996  74.763 114.211  0.00  0.00    -0.276 OA
ATOM     17  H   LIG d   1      -5.618  77.316 115.965  0.00  0.00     0.149 HD
ENDBRANCH   6  13
BRANCH   5  18
ATOM     18  N   LIG d   1      -3.200  74.788 117.074  0.00  0.00     0.381 N 
ATOM     19  H   LIG d   1      -4.151  74.545 116.880  0.00  0.00    -0.090 HD
ATOM     20  H   LIG d   1      -2.990  74.514 118.018  0.00  0.00    -0.090 HD
ATOM     21  H   LIG d   1      -2.593  74.315 116.441  0.00  0.00    -0.090 HD
ENDBRANCH   5  18
BRANCH   3  22
ATOM     22  C   LIG d   1      -0.089  78.412 117.425  0.00  0.00     0.382 C 
ATOM     23  O   LIG d   1       0.440  77.801 118.385  0.00  0.00    -0.241 OA
ATOM     24  O   LIG d   1       0.372  79.513 117.071  0.00  0.00    -0.241 OA
ENDBRANCH   3  22
TORSDOF 7
ENDMDL
MODEL 4
REMARK VINA RESULT:      -4.8      2.488      4.411
REMARK  7 active torsions:
REMARK  status: ('A' for Active; 'I' for Inactive)
REMARK    1  A    between atoms: C_2  and  C_3 
REMARK    2  A    between atoms: C_3  and  O_6 
REMARK    3  A    between atoms: C_3  and  C_4 
REMARK    4  A    between atoms: C_7  and  O_6 
REMARK    5  A    between atoms: C_9  and  C_10 
REMARK    6  A    between atoms: N_15  and  C_14 
REMARK    7  A    between atoms: N_20  and  C_19 
REMARK       I    between atoms: C_22  and  N_20 
ROOT
ATOM      1  C   LIG d   1      -3.583  74.845 115.820  0.00  0.00     0.161 C 
ATOM      2  C   LIG d   1      -4.738  75.122 115.069  0.00  0.00     0.016 C 
ATOM      3  C   LIG d   1      -5.830  75.868 115.569  0.00  0.00     0.038 C 
ATOM      4  C   LIG d   1      -5.778  76.519 116.810  0.00  0.00     0.028 C 
ATOM      5  C   LIG d   1      -4.838  75.849 117.806  0.00  0.00    -0.047 C 
ATOM      6  C   LIG d   1      -3.461  75.641 117.136  0.00  0.00     0.091 C 
ENDROOT
BRANCH   1   7
ATOM      7  O   LIG d   1      -2.411  75.041 115.004  0.00  0.00    -0.368 OA
BRANCH   7   8
ATOM      8  C   LIG d   1      -1.878  76.388 114.968  0.00  0.00     0.119 C 
BRANCH   8   9
ATOM      9  C   LIG d   1      -1.864  76.841 113.495  0.00  0.00     0.028 C 
ATOM     10  C   LIG d   1      -3.120  77.644 113.116  0.00  0.00     0.006 C 
ENDBRANCH   8   9
BRANCH   8  11
ATOM     11  C   LIG d   1      -0.414  76.420 115.416  0.00  0.00     0.028 C 
ATOM     12  C   LIG d   1       0.202  75.018 115.539  0.00  0.00     0.006 C 
ENDBRANCH   8  11
ENDBRANCH   7   8
ENDBRANCH   1   7
BRANCH   6  13
ATOM     13  N   LIG d   1      -2.507  74.915 118.014  0.00  0.00    -0.311 N 
ATOM     14  C   LIG d   1      -1.633  75.527 118.812  0.00  0.00     0.210 C 
ATOM     15  C   LIG d   1      -0.728  74.590 119.618  0.00  0.00     0.109 C 
ATOM     16  O   LIG d   1      -1.544  76.756 118.952  0.00  0.00    -0.276 OA
ATOM     17  H   LIG d   1      -2.532  73.914 117.986  0.00  0.00     0.149 HD
ENDBRANCH   6  13
BRANCH   5  18
ATOM     18  N   LIG d   1      -4.774  76.707 119.005  0.00  0.00     0.381 N 
ATOM     19  H   LIG d   1      -3.977  77.309 118.948  0.00  0.00    -0.090 HD
ATOM     20  H   LIG d   1      -4.671  76.124 119.817  0.00  0.00    -0.090 HD
ATOM     21  H   LIG d   1      -5.605  77.250 119.080  0.00  0.00    -0.090 HD
ENDBRANCH   5  18
BRANCH   3  22
ATOM     22  C   LIG d   1      -7.008  75.934 114.840  0.00  0.00     0.382 C 
ATOM     23  O   LIG d   1      -6.969  76.149 113.604  0.00  0.00    -0.241 OA
ATOM     24  O   LIG d   1      -8.111  75.825 115.409  0.00  0.00    -0.241 OA
ENDBRANCH   3  22
TORSDOF 7
ENDMDL
MODEL 5
REMARK VINA RESULT:      -4.8      2.418      3.068
REMARK  7 active torsions:
REMARK  status: ('A' for Active; 'I' for Inactive)
REMARK    1  A    between atoms: C_2  and  C_3 
REMARK    2  A    between atoms: C_3  and  O_6 
REMARK    3  A    between atoms: C_3  and  C_4 
REMARK    4  A    between atoms: C_7  and  O_6 
REMARK    5  A    between atoms: C_9  and  C_10 
REMARK    6  A    between atoms: N_15  and  C_14 
REMARK    7  A    between atoms: N_20  and  C_19 
REMARK       I    between atoms: C_22  and  N_20 
ROOT
ATOM      1  C   LIG d   1      -3.140  78.089 114.948  0.00  0.00     0.161 C 
ATOM      2  C   LIG d   1      -3.253  79.410 114.482  0.00  0.00     0.016 C 
ATOM      3  C   LIG d   1      -2.765  79.836 113.226  0.00  0.00     0.038 C 
ATOM      4  C   LIG d   1      -2.261  78.931 112.280  0.00  0.00     0.028 C 
ATOM      5  C   LIG d   1      -1.666  77.673 112.903  0.00  0.00    -0.047 C 
ATOM      6  C   LIG d   1      -2.694  77.064 113.884  0.00  0.00     0.091 C 
ENDROOT
BRANCH   1   7
ATOM      7  O   LIG d   1      -4.382  77.676 115.551  0.00  0.00    -0.368 OA
BRANCH   7   8
ATOM      8  C   LIG d   1      -4.517  77.931 116.971  0.00  0.00     0.119 C 
BRANCH   8   9
ATOM      9  C   LIG d   1      -4.292  76.594 117.705  0.00  0.00     0.028 C 
ATOM     10  C   LIG d   1      -5.281  76.387 118.863  0.00  0.00     0.006 C 
ENDBRANCH   8   9
BRANCH   8  11
ATOM     11  C   LIG d   1      -5.945  78.354 117.328  0.00  0.00     0.028 C 
ATOM     12  C   LIG d   1      -6.067  79.859 117.615  0.00  0.00     0.006 C 
ENDBRANCH   8  11
ENDBRANCH   7   8
ENDBRANCH   1   7
BRANCH   6  13
ATOM     13  N   LIG d   1      -2.159  75.877 114.601  0.00  0.00    -0.311 N 
ATOM     14  C   LIG d   1      -1.029  75.893 115.305  0.00  0.00     0.210 C 
ATOM     15  C   LIG d   1      -0.649  74.555 115.948  0.00  0.00     0.109 C 
ATOM     16  O   LIG d   1      -0.322  76.895 115.485  0.00  0.00    -0.276 OA
ATOM     17  H   LIG d   1      -2.687  75.028 114.534  0.00  0.00     0.149 HD
ENDBRANCH   6  13
BRANCH   5  18
ATOM     18  N   LIG d   1      -1.305  76.758 111.803  0.00  0.00     0.381 N 
ATOM     19  H   LIG d   1      -0.756  77.245 111.124  0.00  0.00    -0.090 HD
ATOM     20  H   LIG d   1      -2.147  76.439 111.357  0.00  0.00    -0.090 HD
ATOM     21  H   LIG d   1      -0.794  75.981 112.159  0.00  0.00    -0.090 HD
ENDBRANCH   5  18
BRANCH   3  22
ATOM     22  C   LIG d   1      -2.741  81.189 112.921  0.00  0.00     0.382 C 
ATOM     23  O   LIG d   1      -3.649  81.943 113.344  0.00  0.00    -0.241 OA
ATOM     24  O   LIG d   1      -1.846  81.656 112.190  0.00  0.00    -0.241 OA
ENDBRANCH   3  22
TORSDOF 7
ENDMDL
MODEL 6
REMARK VINA RESULT:      -4.7      2.695      5.748
REMARK  7 active torsions:
REMARK  status: ('A' for Active; 'I' for Inactive)
REMARK    1  A    between atoms: C_2  and  C_3 
REMARK    2  A    between atoms: C_3  and  O_6 
REMARK    3  A    between atoms: C_3  and  C_4 
REMARK    4  A    between atoms: C_7  and  O_6 
REMARK    5  A    between atoms: C_9  and  C_10 
REMARK    6  A    between atoms: N_15  and  C_14 
REMARK    7  A    between atoms: N_20  and  C_19 
REMARK       I    between atoms: C_22  and  N_20 
ROOT
ATOM      1  C   LIG d   1      -2.151  79.109 114.722  0.00  0.00     0.161 C 
ATOM      2  C   LIG d   1      -3.030  78.054 115.019  0.00  0.00     0.016 C 
ATOM      3  C   LIG d   1      -3.564  77.187 114.039  0.00  0.00     0.038 C 
ATOM      4  C   LIG d   1      -3.135  77.223 112.704  0.00  0.00     0.028 C 
ATOM      5  C   LIG d   1      -2.632  78.594 112.266  0.00  0.00    -0.047 C 
ATOM      6  C   LIG d   1      -1.585  79.094 113.287  0.00  0.00     0.091 C 
ENDROOT
BRANCH   1   7
ATOM      7  O   LIG d   1      -1.078  79.138 115.684  0.00  0.00    -0.368 OA
BRANCH   7   8
ATOM      8  C   LIG d   1      -1.136  78.140 116.733  0.00  0.00     0.119 C 
BRANCH   8   9
ATOM      9  C   LIG d   1      -1.125  78.886 118.082  0.00  0.00     0.028 C 
ATOM     10  C   LIG d   1      -2.543  79.156 118.614  0.00  0.00     0.006 C 
ENDBRANCH   8   9
BRANCH   8  11
ATOM     11  C   LIG d   1       0.122  77.267 116.742  0.00  0.00     0.028 C 
ATOM     12  C   LIG d   1       0.100  76.180 115.656  0.00  0.00     0.006 C 
ENDBRANCH   8  11
ENDBRANCH   7   8
ENDBRANCH   1   7
BRANCH   6  13
ATOM     13  N   LIG d   1      -1.103  80.466 112.979  0.00  0.00    -0.311 N 
ATOM     14  C   LIG d   1      -1.918  81.492 112.737  0.00  0.00     0.210 C 
ATOM     15  C   LIG d   1      -1.214  82.816 112.421  0.00  0.00     0.109 C 
ATOM     16  O   LIG d   1      -3.156  81.439 112.786  0.00  0.00    -0.276 OA
ATOM     17  H   LIG d   1      -0.112  80.606 112.949  0.00  0.00     0.149 HD
ENDBRANCH   6  13
BRANCH   5  18
ATOM     18  N   LIG d   1      -2.089  78.455 110.901  0.00  0.00     0.381 N 
ATOM     19  H   LIG d   1      -1.181  78.036 110.939  0.00  0.00    -0.090 HD
ATOM     20  H   LIG d   1      -1.998  79.368 110.493  0.00  0.00    -0.090 HD
ATOM     21  H   LIG d   1      -2.698  77.894 110.347  0.00  0.00    -0.090 HD
ENDBRANCH   5  18
BRANCH   3  22
ATOM     22  C   LIG d   1      -4.570  76.297 114.384  0.00  0.00     0.382 C 
ATOM     23  O   LIG d   1      -4.369  75.061 114.301  0.00  0.00    -0.241 OA
ATOM     24  O   LIG d   1      -5.690  76.714 114.734  0.00  0.00    -0.241 OA
ENDBRANCH   3  22
TORSDOF 7
ENDMDL
MODEL 7
REMARK VINA RESULT:      -4.5      2.004      2.394
REMARK  7 active torsions:
REMARK  status: ('A' for Active; 'I' for Inactive)
REMARK    1  A    between atoms: C_2  and  C_3 
REMARK    2  A    between atoms: C_3  and  O_6 
REMARK    3  A    between atoms: C_3  and  C_4 
REMARK    4  A    between atoms: C_7  and  O_6 
REMARK    5  A    between atoms: C_9  and  C_10 
REMARK    6  A    between atoms: N_15  and  C_14 
REMARK    7  A    between atoms: N_20  and  C_19 
REMARK       I    between atoms: C_22  and  N_20 
ROOT
ATOM      1  C   LIG d   1      -3.027  77.967 114.766  0.00  0.00     0.161 C 
ATOM      2  C   LIG d   1      -3.197  79.295 114.341  0.00  0.00     0.016 C 
ATOM      3  C   LIG d   1      -2.723  79.782 113.101  0.00  0.00     0.038 C 
ATOM      4  C   LIG d   1      -2.175  78.931 112.130  0.00  0.00     0.028 C 
ATOM      5  C   LIG d   1      -1.527  77.681 112.717  0.00  0.00    -0.047 C 
ATOM      6  C   LIG d   1      -2.530  76.997 113.673  0.00  0.00     0.091 C 
ENDROOT
BRANCH   1   7
ATOM      7  O   LIG d   1      -4.251  77.480 115.349  0.00  0.00    -0.368 OA
BRANCH   7   8
ATOM      8  C   LIG d   1      -4.568  76.088 115.097  0.00  0.00     0.119 C 
BRANCH   8   9
ATOM      9  C   LIG d   1      -5.822  76.054 114.203  0.00  0.00     0.028 C 
ATOM     10  C   LIG d   1      -7.103  75.752 114.999  0.00  0.00     0.006 C 
ENDBRANCH   8   9
BRANCH   8  11
ATOM     11  C   LIG d   1      -4.969  75.366 116.387  0.00  0.00     0.028 C 
ATOM     12  C   LIG d   1      -3.998  74.236 116.764  0.00  0.00     0.006 C 
ENDBRANCH   8  11
ENDBRANCH   7   8
ENDBRANCH   1   7
BRANCH   6  13
ATOM     13  N   LIG d   1      -1.946  75.813 114.355  0.00  0.00    -0.311 N 
ATOM     14  C   LIG d   1      -0.863  75.872 115.127  0.00  0.00     0.210 C 
ATOM     15  C   LIG d   1      -0.416  74.531 115.718  0.00  0.00     0.109 C 
ATOM     16  O   LIG d   1      -0.249  76.913 115.406  0.00  0.00    -0.276 OA
ATOM     17  H   LIG d   1      -2.400  74.932 114.209  0.00  0.00     0.149 HD
ENDBRANCH   6  13
BRANCH   5  18
ATOM     18  N   LIG d   1      -1.121  76.819 111.591  0.00  0.00     0.381 N 
ATOM     19  H   LIG d   1      -1.397  75.874 111.771  0.00  0.00    -0.090 HD
ATOM     20  H   LIG d   1      -0.121  76.845 111.505  0.00  0.00    -0.090 HD
ATOM     21  H   LIG d   1      -1.543  77.140 110.747  0.00  0.00    -0.090 HD
ENDBRANCH   5  18
BRANCH   3  22
ATOM     22  C   LIG d   1      -2.759  81.143 112.839  0.00  0.00     0.382 C 
ATOM     23  O   LIG d   1      -1.878  81.665 112.113  0.00  0.00    -0.241 OA
ATOM     24  O   LIG d   1      -3.635  81.863 113.354  0.00  0.00    -0.241 OA
ENDBRANCH   3  22
TORSDOF 7
ENDMDL
MODEL 8
REMARK VINA RESULT:      -4.4      2.619      3.990
REMARK  7 active torsions:
REMARK  status: ('A' for Active; 'I' for Inactive)
REMARK    1  A    between atoms: C_2  and  C_3 
REMARK    2  A    between atoms: C_3  and  O_6 
REMARK    3  A    between atoms: C_3  and  C_4 
REMARK    4  A    between atoms: C_7  and  O_6 
REMARK    5  A    between atoms: C_9  and  C_10 
REMARK    6  A    between atoms: N_15  and  C_14 
REMARK    7  A    between atoms: N_20  and  C_19 
REMARK       I    between atoms: C_22  and  N_20 
ROOT
ATOM      1  C   LIG d   1      -4.790  77.470 116.191  0.00  0.00     0.161 C 
ATOM      2  C   LIG d   1      -3.699  77.104 115.385  0.00  0.00     0.016 C 
ATOM      3  C   LIG d   1      -2.437  76.734 115.904  0.00  0.00     0.038 C 
ATOM      4  C   LIG d   1      -2.224  76.559 117.280  0.00  0.00     0.028 C 
ATOM      5  C   LIG d   1      -3.148  77.405 118.149  0.00  0.00    -0.047 C 
ATOM      6  C   LIG d   1      -4.609  77.178 117.696  0.00  0.00     0.091 C 
ENDROOT
BRANCH   1   7
ATOM      7  O   LIG d   1      -5.992  76.845 115.701  0.00  0.00    -0.368 OA
BRANCH   7   8
ATOM      8  C   LIG d   1      -6.025  75.398 115.753  0.00  0.00     0.119 C 
BRANCH   8   9
ATOM      9  C   LIG d   1      -6.118  74.884 114.304  0.00  0.00     0.028 C 
ATOM     10  C   LIG d   1      -6.680  75.943 113.340  0.00  0.00     0.006 C 
ENDBRANCH   8   9
BRANCH   8  11
ATOM     11  C   LIG d   1      -7.295  74.894 116.445  0.00  0.00     0.028 C 
ATOM     12  C   LIG d   1      -8.478  75.864 116.298  0.00  0.00     0.006 C 
ENDBRANCH   8  11
ENDBRANCH   7   8
ENDBRANCH   1   7
BRANCH   6  13
ATOM     13  N   LIG d   1      -5.572  78.032 118.439  0.00  0.00    -0.311 N 
ATOM     14  C   LIG d   1      -6.480  77.548 119.284  0.00  0.00     0.210 C 
ATOM     15  C   LIG d   1      -7.388  78.599 119.930  0.00  0.00     0.109 C 
ATOM     16  O   LIG d   1      -6.599  76.351 119.585  0.00  0.00    -0.276 OA
ATOM     17  H   LIG d   1      -5.525  79.019 118.278  0.00  0.00     0.149 HD
ENDBRANCH   6  13
BRANCH   5  18
ATOM     18  N   LIG d   1      -2.913  77.022 119.554  0.00  0.00     0.381 N 
ATOM     19  H   LIG d   1      -3.620  76.380 119.853  0.00  0.00    -0.090 HD
ATOM     20  H   LIG d   1      -2.969  77.844 120.129  0.00  0.00    -0.090 HD
ATOM     21  H   LIG d   1      -2.013  76.604 119.647  0.00  0.00    -0.090 HD
ENDBRANCH   5  18
BRANCH   3  22
ATOM     22  C   LIG d   1      -1.361  76.574 115.045  0.00  0.00     0.382 C 
ATOM     23  O   LIG d   1      -1.523  76.012 113.935  0.00  0.00    -0.241 OA
ATOM     24  O   LIG d   1      -0.221  76.946 115.384  0.00  0.00    -0.241 OA
ENDBRANCH   3  22
TORSDOF 7
ENDMDL
MODEL 9
REMARK VINA RESULT:      -4.3      2.418      4.704
REMARK  7 active torsions:
REMARK  status: ('A' for Active; 'I' for Inactive)
REMARK    1  A    between atoms: C_2  and  C_3 
REMARK    2  A    between atoms: C_3  and  O_6 
REMARK    3  A    between atoms: C_3  and  C_4 
REMARK    4  A    between atoms: C_7  and  O_6 
REMARK    5  A    between atoms: C_9  and  C_10 
REMARK    6  A    between atoms: N_15  and  C_14 
REMARK    7  A    between atoms: N_20  and  C_19 
REMARK       I    between atoms: C_22  and  N_20 
ROOT
ATOM      1  C   LIG d   1      -3.674  77.506 115.880  0.00  0.00     0.161 C 
ATOM      2  C   LIG d   1      -3.352  77.603 117.244  0.00  0.00     0.016 C 
ATOM      3  C   LIG d   1      -2.177  78.227 117.724  0.00  0.00     0.038 C 
ATOM      4  C   LIG d   1      -1.313  78.934 116.875  0.00  0.00     0.028 C 
ATOM      5  C   LIG d   1      -1.334  78.432 115.435  0.00  0.00    -0.047 C 
ATOM      6  C   LIG d   1      -2.799  78.369 114.947  0.00  0.00     0.091 C 
ENDROOT
BRANCH   1   7
ATOM      7  O   LIG d   1      -5.069  77.812 115.685  0.00  0.00    -0.368 OA
BRANCH   7   8
ATOM      8  C   LIG d   1      -5.912  76.708 115.276  0.00  0.00     0.119 C 
BRANCH   8   9
ATOM      9  C   LIG d   1      -6.930  76.460 116.406  0.00  0.00     0.028 C 
ATOM     10  C   LIG d   1      -7.281  77.746 117.173  0.00  0.00     0.006 C 
ENDBRANCH   8   9
BRANCH   8  11
ATOM     11  C   LIG d   1      -5.111  75.408 115.160  0.00  0.00     0.028 C 
ATOM     12  C   LIG d   1      -5.920  74.263 114.529  0.00  0.00     0.006 C 
ENDBRANCH   8  11
ENDBRANCH   7   8
ENDBRANCH   1   7
BRANCH   6  13
ATOM     13  N   LIG d   1      -2.916  77.808 113.575  0.00  0.00    -0.311 N 
ATOM     14  C   LIG d   1      -2.956  78.560 112.477  0.00  0.00     0.210 C 
ATOM     15  C   LIG d   1      -3.099  77.782 111.165  0.00  0.00     0.109 C 
ATOM     16  O   LIG d   1      -2.855  79.796 112.461  0.00  0.00    -0.276 OA
ATOM     17  H   LIG d   1      -2.973  76.812 113.493  0.00  0.00     0.149 HD
ENDBRANCH   6  13
BRANCH   5  18
ATOM     18  N   LIG d   1      -0.496  79.344 114.633  0.00  0.00     0.381 N 
ATOM     19  H   LIG d   1      -0.009  79.975 115.237  0.00  0.00    -0.090 HD
ATOM     20  H   LIG d   1      -1.089  79.882 114.027  0.00  0.00    -0.090 HD
ATOM     21  H   LIG d   1       0.156  78.820 114.092  0.00  0.00    -0.090 HD
ENDBRANCH   5  18
BRANCH   3  22
ATOM     22  C   LIG d   1      -1.836  78.112 119.063  0.00  0.00     0.382 C 
ATOM     23  O   LIG d   1      -2.469  78.762 119.929  0.00  0.00    -0.241 OA
ATOM     24  O   LIG d   1      -0.875  77.400 119.411  0.00  0.00    -0.241 OA
ENDBRANCH   3  22
TORSDOF 7
ENDMDL
