MODEL 1
REMARK VINA RESULT:      -5.4      0.000      0.000
REMARK  7 active torsions:
REMARK  status: ('A' for Active; 'I' for Inactive)
REMARK    1  A    between atoms: C_2  and  C_3 
REMARK    2  A    between atoms: C_3  and  O_6 
REMARK    3  A    between atoms: C_3  and  C_4 
REMARK    4  A    between atoms: C_7  and  O_6 
REMARK    5  A    between atoms: C_9  and  C_10 
REMARK    6  A    between atoms: N_15  and  C_14 
REMARK    7  A    between atoms: N_20  and  C_19 
REMARK       I    between atoms: C_22  and  N_20 
ROOT
ATOM      1  C   LIG d   1      -2.729  79.803 114.711  0.00  0.00     0.161 C 
ATOM      2  C   LIG d   1      -2.251  81.007 114.168  0.00  0.00     0.016 C 
ATOM      3  C   LIG d   1      -1.555  81.085 112.939  0.00  0.00     0.038 C 
ATOM      4  C   LIG d   1      -1.422  79.976 112.091  0.00  0.00     0.028 C 
ATOM      5  C   LIG d   1      -1.446  78.642 112.830  0.00  0.00    -0.047 C 
ATOM      6  C   LIG d   1      -2.690  78.599 113.746  0.00  0.00     0.091 C 
ENDROOT
BRANCH   1   7
ATOM      7  O   LIG d   1      -4.063  79.993 115.222  0.00  0.00    -0.368 OA
BRANCH   7   8
ATOM      8  C   LIG d   1      -4.181  80.130 116.659  0.00  0.00     0.119 C 
BRANCH   8   9
ATOM      9  C   LIG d   1      -4.856  78.852 117.193  0.00  0.00     0.028 C 
ATOM     10  C   LIG d   1      -3.890  77.973 118.005  0.00  0.00     0.006 C 
ENDBRANCH   8   9
BRANCH   8  11
ATOM     11  C   LIG d   1      -5.127  81.275 117.034  0.00  0.00     0.028 C 
ATOM     12  C   LIG d   1      -4.968  81.726 118.494  0.00  0.00     0.006 C 
ENDBRANCH   8  11
ENDBRANCH   7   8
ENDBRANCH   1   7
BRANCH   6  13
ATOM     13  N   LIG d   1      -2.745  77.362 114.569  0.00  0.00    -0.311 N 
ATOM     14  C   LIG d   1      -3.710  76.451 114.458  0.00  0.00     0.210 C 
ATOM     15  C   LIG d   1      -3.588  75.260 115.415  0.00  0.00     0.109 C 
ATOM     16  O   LIG d   1      -4.638  76.499 113.637  0.00  0.00    -0.276 OA
ATOM     17  H   LIG d   1      -2.014  77.227 115.239  0.00  0.00     0.149 HD
ENDBRANCH   6  13
BRANCH   5  18
ATOM     18  N   LIG d   1      -1.438  77.571 111.815  0.00  0.00     0.381 N 
ATOM     19  H   LIG d   1      -1.336  77.969 110.903  0.00  0.00    -0.090 HD
ATOM     20  H   LIG d   1      -2.315  77.083 111.851  0.00  0.00    -0.090 HD
ATOM     21  H   LIG d   1      -0.690  76.938 111.995  0.00  0.00    -0.090 HD
ENDBRANCH   5  18
BRANCH   3  22
ATOM     22  C   LIG d   1      -0.949  82.276 112.567  0.00  0.00     0.382 C 
ATOM     23  O   LIG d   1      -1.308  82.860 111.516  0.00  0.00    -0.241 OA
ATOM     24  O   LIG d   1      -0.018  82.750 113.246  0.00  0.00    -0.241 OA
ENDBRANCH   3  22
TORSDOF 7
ENDMDL
MODEL 2
REMARK VINA RESULT:      -5.3      0.548      1.650
REMARK  7 active torsions:
REMARK  status: ('A' for Active; 'I' for Inactive)
REMARK    1  A    between atoms: C_2  and  C_3 
REMARK    2  A    between atoms: C_3  and  O_6 
REMARK    3  A    between atoms: C_3  and  C_4 
REMARK    4  A    between atoms: C_7  and  O_6 
REMARK    5  A    between atoms: C_9  and  C_10 
REMARK    6  A    between atoms: N_15  and  C_14 
REMARK    7  A    between atoms: N_20  and  C_19 
REMARK       I    between atoms: C_22  and  N_20 
ROOT
ATOM      1  C   LIG d   1      -2.824  79.592 114.784  0.00  0.00     0.161 C 
ATOM      2  C   LIG d   1      -2.338  80.816 114.295  0.00  0.00     0.016 C 
ATOM      3  C   LIG d   1      -1.605  80.937 113.092  0.00  0.00     0.038 C 
ATOM      4  C   LIG d   1      -1.437  79.856 112.214  0.00  0.00     0.028 C 
ATOM      5  C   LIG d   1      -1.475  78.499 112.910  0.00  0.00    -0.047 C 
ATOM      6  C   LIG d   1      -2.747  78.420 113.785  0.00  0.00     0.091 C 
ENDROOT
BRANCH   1   7
ATOM      7  O   LIG d   1      -4.175  79.758 115.259  0.00  0.00    -0.368 OA
BRANCH   7   8
ATOM      8  C   LIG d   1      -4.369  79.627 116.689  0.00  0.00     0.119 C 
BRANCH   8   9
ATOM      9  C   LIG d   1      -4.718  81.024 117.238  0.00  0.00     0.028 C 
ATOM     10  C   LIG d   1      -3.768  81.466 118.365  0.00  0.00     0.006 C 
ENDBRANCH   8   9
BRANCH   8  11
ATOM     11  C   LIG d   1      -3.069  79.228 117.393  0.00  0.00     0.028 C 
ATOM     12  C   LIG d   1      -3.159  77.854 118.076  0.00  0.00     0.006 C 
ENDBRANCH   8  11
ENDBRANCH   7   8
ENDBRANCH   1   7
BRANCH   6  13
ATOM     13  N   LIG d   1      -2.819  77.157 114.566  0.00  0.00    -0.311 N 
ATOM     14  C   LIG d   1      -3.836  76.301 114.483  0.00  0.00     0.210 C 
ATOM     15  C   LIG d   1      -3.721  75.071 115.389  0.00  0.00     0.109 C 
ATOM     16  O   LIG d   1      -4.806  76.427 113.721  0.00  0.00    -0.276 OA
ATOM     17  H   LIG d   1      -2.058  76.961 115.186  0.00  0.00     0.149 HD
ENDBRANCH   6  13
BRANCH   5  18
ATOM     18  N   LIG d   1      -1.427  77.460 111.864  0.00  0.00     0.381 N 
ATOM     19  H   LIG d   1      -2.298  76.970 111.833  0.00  0.00    -0.090 HD
ATOM     20  H   LIG d   1      -0.703  76.803 112.092  0.00  0.00    -0.090 HD
ATOM     21  H   LIG d   1      -1.241  77.877 110.978  0.00  0.00    -0.090 HD
ENDBRANCH   5  18
BRANCH   3  22
ATOM     22  C   LIG d   1      -0.996  82.142 112.776  0.00  0.00     0.382 C 
ATOM     23  O   LIG d   1      -0.051  82.571 113.481  0.00  0.00    -0.241 OA
ATOM     24  O   LIG d   1      -1.410  82.828 111.822  0.00  0.00    -0.241 OA
ENDBRANCH   3  22
TORSDOF 7
ENDMDL
MODEL 3
REMARK VINA RESULT:      -5.2      3.367      7.096
REMARK  7 active torsions:
REMARK  status: ('A' for Active; 'I' for Inactive)
REMARK    1  A    between atoms: C_2  and  C_3 
REMARK    2  A    between atoms: C_3  and  O_6 
REMARK    3  A    between atoms: C_3  and  C_4 
REMARK    4  A    between atoms: C_7  and  O_6 
REMARK    5  A    between atoms: C_9  and  C_10 
REMARK    6  A    between atoms: N_15  and  C_14 
REMARK    7  A    between atoms: N_20  and  C_19 
REMARK       I    between atoms: C_22  and  N_20 
ROOT
ATOM      1  C   LIG d   1      -5.627  77.942 117.037  0.00  0.00     0.161 C 
ATOM      2  C   LIG d   1      -6.900  77.572 117.502  0.00  0.00     0.016 C 
ATOM      3  C   LIG d   1      -7.823  78.489 118.054  0.00  0.00     0.038 C 
ATOM      4  C   LIG d   1      -7.593  79.873 118.039  0.00  0.00     0.028 C 
ATOM      5  C   LIG d   1      -6.113  80.240 118.041  0.00  0.00    -0.047 C 
ATOM      6  C   LIG d   1      -5.401  79.463 116.910  0.00  0.00     0.091 C 
ENDROOT
BRANCH   1   7
ATOM      7  O   LIG d   1      -5.357  77.289 115.780  0.00  0.00    -0.368 OA
BRANCH   7   8
ATOM      8  C   LIG d   1      -4.534  76.099 115.844  0.00  0.00     0.119 C 
BRANCH   8   9
ATOM      9  C   LIG d   1      -3.151  76.461 115.268  0.00  0.00     0.028 C 
ATOM     10  C   LIG d   1      -3.245  77.087 113.866  0.00  0.00     0.006 C 
ENDBRANCH   8   9
BRANCH   8  11
ATOM     11  C   LIG d   1      -5.077  74.995 114.931  0.00  0.00     0.028 C 
ATOM     12  C   LIG d   1      -6.338  74.322 115.496  0.00  0.00     0.006 C 
ENDBRANCH   8  11
ENDBRANCH   7   8
ENDBRANCH   1   7
BRANCH   6  13
ATOM     13  N   LIG d   1      -3.934  79.700 116.895  0.00  0.00    -0.311 N 
ATOM     14  C   LIG d   1      -3.284  80.207 115.849  0.00  0.00     0.210 C 
ATOM     15  C   LIG d   1      -1.771  80.352 116.037  0.00  0.00     0.109 C 
ATOM     16  O   LIG d   1      -3.822  80.581 114.796  0.00  0.00    -0.276 OA
ATOM     17  H   LIG d   1      -3.424  79.454 117.721  0.00  0.00     0.149 HD
ENDBRANCH   6  13
BRANCH   5  18
ATOM     18  N   LIG d   1      -6.017  81.704 117.885  0.00  0.00     0.381 N 
ATOM     19  H   LIG d   1      -6.675  82.015 117.199  0.00  0.00    -0.090 HD
ATOM     20  H   LIG d   1      -5.094  81.937 117.565  0.00  0.00    -0.090 HD
ATOM     21  H   LIG d   1      -6.197  82.152 118.756  0.00  0.00    -0.090 HD
ENDBRANCH   5  18
BRANCH   3  22
ATOM     22  C   LIG d   1      -8.976  78.020 118.665  0.00  0.00     0.382 C 
ATOM     23  O   LIG d   1     -10.059  78.005 118.032  0.00  0.00    -0.241 OA
ATOM     24  O   LIG d   1      -8.956  77.653 119.855  0.00  0.00    -0.241 OA
ENDBRANCH   3  22
TORSDOF 7
ENDMDL
MODEL 4
REMARK VINA RESULT:      -5.0      1.730      4.959
REMARK  7 active torsions:
REMARK  status: ('A' for Active; 'I' for Inactive)
REMARK    1  A    between atoms: C_2  and  C_3 
REMARK    2  A    between atoms: C_3  and  O_6 
REMARK    3  A    between atoms: C_3  and  C_4 
REMARK    4  A    between atoms: C_7  and  O_6 
REMARK    5  A    between atoms: C_9  and  C_10 
REMARK    6  A    between atoms: N_15  and  C_14 
REMARK    7  A    between atoms: N_20  and  C_19 
REMARK       I    between atoms: C_22  and  N_20 
ROOT
ATOM      1  C   LIG d   1      -2.868  80.218 114.106  0.00  0.00     0.161 C 
ATOM      2  C   LIG d   1      -3.336  78.949 114.488  0.00  0.00     0.016 C 
ATOM      3  C   LIG d   1      -2.938  77.750 113.853  0.00  0.00     0.038 C 
ATOM      4  C   LIG d   1      -1.923  77.724 112.886  0.00  0.00     0.028 C 
ATOM      5  C   LIG d   1      -1.785  79.034 112.117  0.00  0.00    -0.047 C 
ATOM      6  C   LIG d   1      -1.676  80.199 113.127  0.00  0.00     0.091 C 
ENDROOT
BRANCH   1   7
ATOM      7  O   LIG d   1      -2.542  80.991 115.278  0.00  0.00    -0.368 OA
BRANCH   7   8
ATOM      8  C   LIG d   1      -2.468  80.258 116.525  0.00  0.00     0.119 C 
BRANCH   8   9
ATOM      9  C   LIG d   1      -3.319  81.018 117.560  0.00  0.00     0.028 C 
ATOM     10  C   LIG d   1      -4.804  81.083 117.164  0.00  0.00     0.006 C 
ENDBRANCH   8   9
BRANCH   8  11
ATOM     11  C   LIG d   1      -1.044  80.262 117.090  0.00  0.00     0.028 C 
ATOM     12  C   LIG d   1      -0.188  79.101 116.557  0.00  0.00     0.006 C 
ENDBRANCH   8  11
ENDBRANCH   7   8
ENDBRANCH   1   7
BRANCH   6  13
ATOM     13  N   LIG d   1      -1.623  81.526 112.458  0.00  0.00    -0.311 N 
ATOM     14  C   LIG d   1      -0.748  82.476 112.783  0.00  0.00     0.210 C 
ATOM     15  C   LIG d   1      -0.878  83.776 111.982  0.00  0.00     0.109 C 
ATOM     16  O   LIG d   1       0.144  82.354 113.635  0.00  0.00    -0.276 OA
ATOM     17  H   LIG d   1      -2.291  81.698 111.732  0.00  0.00     0.149 HD
ENDBRANCH   6  13
BRANCH   5  18
ATOM     18  N   LIG d   1      -0.604  78.915 111.241  0.00  0.00     0.381 N 
ATOM     19  H   LIG d   1      -0.122  78.060 111.437  0.00  0.00    -0.090 HD
ATOM     20  H   LIG d   1       0.019  79.679 111.431  0.00  0.00    -0.090 HD
ATOM     21  H   LIG d   1      -0.885  78.935 110.285  0.00  0.00    -0.090 HD
ENDBRANCH   5  18
BRANCH   3  22
ATOM     22  C   LIG d   1      -3.588  76.563 114.158  0.00  0.00     0.382 C 
ATOM     23  O   LIG d   1      -4.783  76.397 113.815  0.00  0.00    -0.241 OA
ATOM     24  O   LIG d   1      -3.007  75.675 114.810  0.00  0.00    -0.241 OA
ENDBRANCH   3  22
TORSDOF 7
ENDMDL
MODEL 5
REMARK VINA RESULT:      -4.9      3.056      5.988
REMARK  7 active torsions:
REMARK  status: ('A' for Active; 'I' for Inactive)
REMARK    1  A    between atoms: C_2  and  C_3 
REMARK    2  A    between atoms: C_3  and  O_6 
REMARK    3  A    between atoms: C_3  and  C_4 
REMARK    4  A    between atoms: C_7  and  O_6 
REMARK    5  A    between atoms: C_9  and  C_10 
REMARK    6  A    between atoms: N_15  and  C_14 
REMARK    7  A    between atoms: N_20  and  C_19 
REMARK       I    between atoms: C_22  and  N_20 
ROOT
ATOM      1  C   LIG d   1      -4.189  78.740 116.256  0.00  0.00     0.161 C 
ATOM      2  C   LIG d   1      -3.848  77.582 115.537  0.00  0.00     0.016 C 
ATOM      3  C   LIG d   1      -4.590  76.380 115.601  0.00  0.00     0.038 C 
ATOM      4  C   LIG d   1      -5.817  76.302 116.276  0.00  0.00     0.028 C 
ATOM      5  C   LIG d   1      -5.941  77.295 117.426  0.00  0.00    -0.047 C 
ATOM      6  C   LIG d   1      -5.586  78.708 116.910  0.00  0.00     0.091 C 
ENDROOT
BRANCH   1   7
ATOM      7  O   LIG d   1      -4.060  79.898 115.407  0.00  0.00    -0.368 OA
BRANCH   7   8
ATOM      8  C   LIG d   1      -2.971  80.801 115.721  0.00  0.00     0.119 C 
BRANCH   8   9
ATOM      9  C   LIG d   1      -1.970  80.743 114.551  0.00  0.00     0.028 C 
ATOM     10  C   LIG d   1      -2.665  80.795 113.181  0.00  0.00     0.006 C 
ENDBRANCH   8   9
BRANCH   8  11
ATOM     11  C   LIG d   1      -2.189  80.324 116.948  0.00  0.00     0.028 C 
ATOM     12  C   LIG d   1      -2.276  81.305 118.128  0.00  0.00     0.006 C 
ENDBRANCH   8  11
ENDBRANCH   7   8
ENDBRANCH   1   7
BRANCH   6  13
ATOM     13  N   LIG d   1      -5.600  79.727 117.992  0.00  0.00    -0.311 N 
ATOM     14  C   LIG d   1      -6.246  80.888 117.897  0.00  0.00     0.210 C 
ATOM     15  C   LIG d   1      -6.115  81.802 119.119  0.00  0.00     0.109 C 
ATOM     16  O   LIG d   1      -6.942  81.233 116.930  0.00  0.00    -0.276 OA
ATOM     17  H   LIG d   1      -5.087  79.515 118.825  0.00  0.00     0.149 HD
ENDBRANCH   6  13
BRANCH   5  18
ATOM     18  N   LIG d   1      -7.316  77.199 117.952  0.00  0.00     0.381 N 
ATOM     19  H   LIG d   1      -7.349  77.565 118.882  0.00  0.00    -0.090 HD
ATOM     20  H   LIG d   1      -7.586  76.232 117.983  0.00  0.00    -0.090 HD
ATOM     21  H   LIG d   1      -7.941  77.707 117.365  0.00  0.00    -0.090 HD
ENDBRANCH   5  18
BRANCH   3  22
ATOM     22  C   LIG d   1      -4.084  75.229 115.018  0.00  0.00     0.382 C 
ATOM     23  O   LIG d   1      -2.875  74.928 115.169  0.00  0.00    -0.241 OA
ATOM     24  O   LIG d   1      -4.810  74.510 114.305  0.00  0.00    -0.241 OA
ENDBRANCH   3  22
TORSDOF 7
ENDMDL
MODEL 6
REMARK VINA RESULT:      -4.8      2.226      2.997
REMARK  7 active torsions:
REMARK  status: ('A' for Active; 'I' for Inactive)
REMARK    1  A    between atoms: C_2  and  C_3 
REMARK    2  A    between atoms: C_3  and  O_6 
REMARK    3  A    between atoms: C_3  and  C_4 
REMARK    4  A    between atoms: C_7  and  O_6 
REMARK    5  A    between atoms: C_9  and  C_10 
REMARK    6  A    between atoms: N_15  and  C_14 
REMARK    7  A    between atoms: N_20  and  C_19 
REMARK       I    between atoms: C_22  and  N_20 
ROOT
ATOM      1  C   LIG d   1      -2.514  78.925 116.386  0.00  0.00     0.161 C 
ATOM      2  C   LIG d   1      -2.886  79.956 115.507  0.00  0.00     0.016 C 
ATOM      3  C   LIG d   1      -2.601  79.938 114.122  0.00  0.00     0.038 C 
ATOM      4  C   LIG d   1      -2.054  78.810 113.492  0.00  0.00     0.028 C 
ATOM      5  C   LIG d   1      -1.203  77.950 114.421  0.00  0.00    -0.047 C 
ATOM      6  C   LIG d   1      -2.016  77.637 115.699  0.00  0.00     0.091 C 
ENDROOT
BRANCH   1   7
ATOM      7  O   LIG d   1      -3.607  78.626 117.278  0.00  0.00    -0.368 OA
BRANCH   7   8
ATOM      8  C   LIG d   1      -4.893  78.389 116.654  0.00  0.00     0.119 C 
BRANCH   8   9
ATOM      9  C   LIG d   1      -5.962  79.087 117.518  0.00  0.00     0.028 C 
ATOM     10  C   LIG d   1      -5.879  80.620 117.429  0.00  0.00     0.006 C 
ENDBRANCH   8   9
BRANCH   8  11
ATOM     11  C   LIG d   1      -5.258  76.902 116.678  0.00  0.00     0.028 C 
ATOM     12  C   LIG d   1      -6.712  76.639 116.255  0.00  0.00     0.006 C 
ENDBRANCH   8  11
ENDBRANCH   7   8
ENDBRANCH   1   7
BRANCH   6  13
ATOM     13  N   LIG d   1      -1.227  76.870 116.698  0.00  0.00    -0.311 N 
ATOM     14  C   LIG d   1      -1.213  75.539 116.756  0.00  0.00     0.210 C 
ATOM     15  C   LIG d   1      -0.350  74.950 117.876  0.00  0.00     0.109 C 
ATOM     16  O   LIG d   1      -1.809  74.790 115.967  0.00  0.00    -0.276 OA
ATOM     17  H   LIG d   1      -0.690  77.398 117.358  0.00  0.00     0.149 HD
ENDBRANCH   6  13
BRANCH   5  18
ATOM     18  N   LIG d   1      -0.811  76.740 113.674  0.00  0.00     0.381 N 
ATOM     19  H   LIG d   1      -0.444  76.998 112.780  0.00  0.00    -0.090 HD
ATOM     20  H   LIG d   1      -1.626  76.170 113.528  0.00  0.00    -0.090 HD
ATOM     21  H   LIG d   1      -0.127  76.229 114.188  0.00  0.00    -0.090 HD
ENDBRANCH   5  18
BRANCH   3  22
ATOM     22  C   LIG d   1      -2.827  81.073 113.359  0.00  0.00     0.382 C 
ATOM     23  O   LIG d   1      -2.066  81.346 112.400  0.00  0.00    -0.241 OA
ATOM     24  O   LIG d   1      -3.756  81.852 113.645  0.00  0.00    -0.241 OA
ENDBRANCH   3  22
TORSDOF 7
ENDMDL
MODEL 7
REMARK VINA RESULT:      -4.6      2.489      4.571
REMARK  7 active torsions:
REMARK  status: ('A' for Active; 'I' for Inactive)
REMARK    1  A    between atoms: C_2  and  C_3 
REMARK    2  A    between atoms: C_3  and  O_6 
REMARK    3  A    between atoms: C_3  and  C_4 
REMARK    4  A    between atoms: C_7  and  O_6 
REMARK    5  A    between atoms: C_9  and  C_10 
REMARK    6  A    between atoms: N_15  and  C_14 
REMARK    7  A    between atoms: N_20  and  C_19 
REMARK       I    between atoms: C_22  and  N_20 
ROOT
ATOM      1  C   LIG d   1      -3.306  78.505 114.441  0.00  0.00     0.161 C 
ATOM      2  C   LIG d   1      -2.935  77.955 113.203  0.00  0.00     0.016 C 
ATOM      3  C   LIG d   1      -1.890  78.472 112.403  0.00  0.00     0.038 C 
ATOM      4  C   LIG d   1      -1.040  79.490 112.862  0.00  0.00     0.028 C 
ATOM      5  C   LIG d   1      -1.693  80.408 113.888  0.00  0.00    -0.047 C 
ATOM      6  C   LIG d   1      -2.318  79.545 115.008  0.00  0.00     0.091 C 
ENDROOT
BRANCH   1   7
ATOM      7  O   LIG d   1      -3.526  77.449 115.398  0.00  0.00    -0.368 OA
BRANCH   7   8
ATOM      8  C   LIG d   1      -3.982  76.185 114.858  0.00  0.00     0.119 C 
BRANCH   8   9
ATOM      9  C   LIG d   1      -5.432  75.974 115.335  0.00  0.00     0.028 C 
ATOM     10  C   LIG d   1      -6.346  75.443 114.218  0.00  0.00     0.006 C 
ENDBRANCH   8   9
BRANCH   8  11
ATOM     11  C   LIG d   1      -3.189  75.011 115.441  0.00  0.00     0.028 C 
ATOM     12  C   LIG d   1      -1.773  75.412 115.885  0.00  0.00     0.006 C 
ENDBRANCH   8  11
ENDBRANCH   7   8
ENDBRANCH   1   7
BRANCH   6  13
ATOM     13  N   LIG d   1      -3.051  80.362 116.011  0.00  0.00    -0.311 N 
ATOM     14  C   LIG d   1      -2.716  80.415 117.299  0.00  0.00     0.210 C 
ATOM     15  C   LIG d   1      -3.617  81.302 118.165  0.00  0.00     0.109 C 
ATOM     16  O   LIG d   1      -1.740  79.838 117.801  0.00  0.00    -0.276 OA
ATOM     17  H   LIG d   1      -3.838  80.887 115.684  0.00  0.00     0.149 HD
ENDBRANCH   6  13
BRANCH   5  18
ATOM     18  N   LIG d   1      -0.657  81.334 114.382  0.00  0.00     0.381 N 
ATOM     19  H   LIG d   1      -0.486  82.046 113.700  0.00  0.00    -0.090 HD
ATOM     20  H   LIG d   1       0.196  80.822 114.523  0.00  0.00    -0.090 HD
ATOM     21  H   LIG d   1      -0.950  81.749 115.239  0.00  0.00    -0.090 HD
ENDBRANCH   5  18
BRANCH   3  22
ATOM     22  C   LIG d   1      -1.712  77.997 111.113  0.00  0.00     0.382 C 
ATOM     23  O   LIG d   1      -1.195  78.734 110.239  0.00  0.00    -0.241 OA
ATOM     24  O   LIG d   1      -2.103  76.856 110.800  0.00  0.00    -0.241 OA
ENDBRANCH   3  22
TORSDOF 7
ENDMDL
MODEL 8
REMARK VINA RESULT:      -4.5      3.061      6.413
REMARK  7 active torsions:
REMARK  status: ('A' for Active; 'I' for Inactive)
REMARK    1  A    between atoms: C_2  and  C_3 
REMARK    2  A    between atoms: C_3  and  O_6 
REMARK    3  A    between atoms: C_3  and  C_4 
REMARK    4  A    between atoms: C_7  and  O_6 
REMARK    5  A    between atoms: C_9  and  C_10 
REMARK    6  A    between atoms: N_15  and  C_14 
REMARK    7  A    between atoms: N_20  and  C_19 
REMARK       I    between atoms: C_22  and  N_20 
ROOT
ATOM      1  C   LIG d   1      -4.542  78.368 116.281  0.00  0.00     0.161 C 
ATOM      2  C   LIG d   1      -4.595  77.152 115.580  0.00  0.00     0.016 C 
ATOM      3  C   LIG d   1      -5.673  76.242 115.679  0.00  0.00     0.038 C 
ATOM      4  C   LIG d   1      -6.849  76.560 116.375  0.00  0.00     0.028 C 
ATOM      5  C   LIG d   1      -6.632  77.557 117.508  0.00  0.00    -0.047 C 
ATOM      6  C   LIG d   1      -5.866  78.782 116.958  0.00  0.00     0.091 C 
ENDROOT
BRANCH   1   7
ATOM      7  O   LIG d   1      -4.077  79.416 115.408  0.00  0.00    -0.368 OA
BRANCH   7   8
ATOM      8  C   LIG d   1      -2.640  79.562 115.296  0.00  0.00     0.119 C 
BRANCH   8   9
ATOM      9  C   LIG d   1      -2.238  80.808 116.110  0.00  0.00     0.028 C 
ATOM     10  C   LIG d   1      -1.715  80.450 117.511  0.00  0.00     0.006 C 
ENDBRANCH   8   9
BRANCH   8  11
ATOM     11  C   LIG d   1      -2.221  79.866 113.855  0.00  0.00     0.028 C 
ATOM     12  C   LIG d   1      -1.783  81.326 113.657  0.00  0.00     0.006 C 
ENDBRANCH   8  11
ENDBRANCH   7   8
ENDBRANCH   1   7
BRANCH   6  13
ATOM     13  N   LIG d   1      -5.538  79.769 118.020  0.00  0.00    -0.311 N 
ATOM     14  C   LIG d   1      -5.891  81.052 117.963  0.00  0.00     0.210 C 
ATOM     15  C   LIG d   1      -5.435  81.902 119.153  0.00  0.00     0.109 C 
ATOM     16  O   LIG d   1      -6.566  81.559 117.055  0.00  0.00    -0.276 OA
ATOM     17  H   LIG d   1      -5.018  79.435 118.809  0.00  0.00     0.149 HD
ENDBRANCH   6  13
BRANCH   5  18
ATOM     18  N   LIG d   1      -7.956  77.903 118.058  0.00  0.00     0.381 N 
ATOM     19  H   LIG d   1      -8.035  77.559 118.994  0.00  0.00    -0.090 HD
ATOM     20  H   LIG d   1      -8.665  77.461 117.499  0.00  0.00    -0.090 HD
ATOM     21  H   LIG d   1      -8.083  78.891 118.047  0.00  0.00    -0.090 HD
ENDBRANCH   5  18
BRANCH   3  22
ATOM     22  C   LIG d   1      -5.564  74.983 115.110  0.00  0.00     0.382 C 
ATOM     23  O   LIG d   1      -6.529  74.183 115.169  0.00  0.00    -0.241 OA
ATOM     24  O   LIG d   1      -4.498  74.620 114.578  0.00  0.00    -0.241 OA
ENDBRANCH   3  22
TORSDOF 7
ENDMDL
MODEL 9
REMARK VINA RESULT:      -4.4      4.408      7.472
REMARK  7 active torsions:
REMARK  status: ('A' for Active; 'I' for Inactive)
REMARK    1  A    between atoms: C_2  and  C_3 
REMARK    2  A    between atoms: C_3  and  O_6 
REMARK    3  A    between atoms: C_3  and  C_4 
REMARK    4  A    between atoms: C_7  and  O_6 
REMARK    5  A    between atoms: C_9  and  C_10 
REMARK    6  A    between atoms: N_15  and  C_14 
REMARK    7  A    between atoms: N_20  and  C_19 
REMARK       I    between atoms: C_22  and  N_20 
ROOT
ATOM      1  C   LIG d   1      -5.939  78.897 117.468  0.00  0.00     0.161 C 
ATOM      2  C   LIG d   1      -7.160  78.264 117.755  0.00  0.00     0.016 C 
ATOM      3  C   LIG d   1      -8.340  78.967 118.093  0.00  0.00     0.038 C 
ATOM      4  C   LIG d   1      -8.417  80.366 118.019  0.00  0.00     0.028 C 
ATOM      5  C   LIG d   1      -7.074  81.058 118.223  0.00  0.00    -0.047 C 
ATOM      6  C   LIG d   1      -6.032  80.425 117.273  0.00  0.00     0.091 C 
ENDROOT
BRANCH   1   7
ATOM      7  O   LIG d   1      -5.330  78.281 116.316  0.00  0.00    -0.368 OA
BRANCH   7   8
ATOM      8  C   LIG d   1      -4.687  77.002 116.542  0.00  0.00     0.119 C 
BRANCH   8   9
ATOM      9  C   LIG d   1      -3.165  77.245 116.559  0.00  0.00     0.028 C 
ATOM     10  C   LIG d   1      -2.633  77.535 117.972  0.00  0.00     0.006 C 
ENDBRANCH   8   9
BRANCH   8  11
ATOM     11  C   LIG d   1      -4.931  76.041 115.375  0.00  0.00     0.028 C 
ATOM     12  C   LIG d   1      -6.422  75.738 115.155  0.00  0.00     0.006 C 
ENDBRANCH   8  11
ENDBRANCH   7   8
ENDBRANCH   1   7
BRANCH   6  13
ATOM     13  N   LIG d   1      -4.671  80.987 117.468  0.00  0.00    -0.311 N 
ATOM     14  C   LIG d   1      -4.022  80.950 118.630  0.00  0.00     0.210 C 
ATOM     15  C   LIG d   1      -2.637  81.604 118.619  0.00  0.00     0.109 C 
ATOM     16  O   LIG d   1      -4.449  80.408 119.662  0.00  0.00    -0.276 OA
ATOM     17  H   LIG d   1      -4.237  81.417 116.675  0.00  0.00     0.149 HD
ENDBRANCH   6  13
BRANCH   5  18
ATOM     18  N   LIG d   1      -7.274  82.500 117.983  0.00  0.00     0.381 N 
ATOM     19  H   LIG d   1      -8.162  82.783 118.347  0.00  0.00    -0.090 HD
ATOM     20  H   LIG d   1      -7.271  82.668 116.993  0.00  0.00    -0.090 HD
ATOM     21  H   LIG d   1      -6.546  83.022 118.419  0.00  0.00    -0.090 HD
ENDBRANCH   5  18
BRANCH   3  22
ATOM     22  C   LIG d   1      -9.448  78.270 118.550  0.00  0.00     0.382 C 
ATOM     23  O   LIG d   1      -9.816  78.391 119.744  0.00  0.00    -0.241 OA
ATOM     24  O   LIG d   1     -10.057  77.487 117.797  0.00  0.00    -0.241 OA
ENDBRANCH   3  22
TORSDOF 7
ENDMDL
