MODEL 1
REMARK VINA RESULT:      -5.1      0.000      0.000
REMARK  7 active torsions:
REMARK  status: ('A' for Active; 'I' for Inactive)
REMARK    1  A    between atoms: C_2  and  C_3 
REMARK    2  A    between atoms: C_3  and  O_6 
REMARK    3  A    between atoms: C_3  and  C_4 
REMARK    4  A    between atoms: C_7  and  O_6 
REMARK    5  A    between atoms: C_9  and  C_10 
REMARK    6  A    between atoms: N_15  and  C_14 
REMARK    7  A    between atoms: N_20  and  C_19 
REMARK       I    between atoms: C_22  and  N_20 
ROOT
ATOM      1  C   LIG d   1      -3.128  78.310 115.658  0.00  0.00     0.161 C 
ATOM      2  C   LIG d   1      -3.227  79.379 114.751  0.00  0.00     0.016 C 
ATOM      3  C   LIG d   1      -2.569  79.401 113.500  0.00  0.00     0.038 C 
ATOM      4  C   LIG d   1      -1.884  78.283 113.002  0.00  0.00     0.028 C 
ATOM      5  C   LIG d   1      -1.337  77.372 114.096  0.00  0.00    -0.047 C 
ATOM      6  C   LIG d   1      -2.476  77.035 115.085  0.00  0.00     0.091 C 
ENDROOT
BRANCH   1   7
ATOM      7  O   LIG d   1      -4.429  78.008 116.200  0.00  0.00    -0.368 OA
BRANCH   7   8
ATOM      8  C   LIG d   1      -4.622  78.315 117.603  0.00  0.00     0.119 C 
BRANCH   8   9
ATOM      9  C   LIG d   1      -4.745  76.977 118.357  0.00  0.00     0.028 C 
ATOM     10  C   LIG d   1      -5.611  75.955 117.602  0.00  0.00     0.006 C 
ENDBRANCH   8   9
BRANCH   8  11
ATOM     11  C   LIG d   1      -5.952  79.037 117.837  0.00  0.00     0.028 C 
ATOM     12  C   LIG d   1      -5.827  80.565 117.738  0.00  0.00     0.006 C 
ENDBRANCH   8  11
ENDBRANCH   7   8
ENDBRANCH   1   7
BRANCH   6  13
ATOM     13  N   LIG d   1      -2.006  76.215 116.232  0.00  0.00    -0.311 N 
ATOM     14  C   LIG d   1      -2.095  74.887 116.270  0.00  0.00     0.210 C 
ATOM     15  C   LIG d   1      -1.570  74.240 117.555  0.00  0.00     0.109 C 
ATOM     16  O   LIG d   1      -2.529  74.181 115.348  0.00  0.00    -0.276 OA
ATOM     17  H   LIG d   1      -1.611  76.705 117.011  0.00  0.00     0.149 HD
ENDBRANCH   6  13
BRANCH   5  18
ATOM     18  N   LIG d   1      -0.769  76.179 113.439  0.00  0.00     0.381 N 
ATOM     19  H   LIG d   1      -1.479  75.483 113.329  0.00  0.00    -0.090 HD
ATOM     20  H   LIG d   1      -0.044  75.801 114.023  0.00  0.00    -0.090 HD
ATOM     21  H   LIG d   1      -0.394  76.425 112.550  0.00  0.00    -0.090 HD
ENDBRANCH   5  18
BRANCH   3  22
ATOM     22  C   LIG d   1      -2.559  80.567 112.749  0.00  0.00     0.382 C 
ATOM     23  O   LIG d   1      -1.471  81.043 112.344  0.00  0.00    -0.241 OA
ATOM     24  O   LIG d   1      -3.620  81.174 112.510  0.00  0.00    -0.241 OA
ENDBRANCH   3  22
TORSDOF 7
ENDMDL
MODEL 2
REMARK VINA RESULT:      -4.9      2.580      5.213
REMARK  7 active torsions:
REMARK  status: ('A' for Active; 'I' for Inactive)
REMARK    1  A    between atoms: C_2  and  C_3 
REMARK    2  A    between atoms: C_3  and  O_6 
REMARK    3  A    between atoms: C_3  and  C_4 
REMARK    4  A    between atoms: C_7  and  O_6 
REMARK    5  A    between atoms: C_9  and  C_10 
REMARK    6  A    between atoms: N_15  and  C_14 
REMARK    7  A    between atoms: N_20  and  C_19 
REMARK       I    between atoms: C_22  and  N_20 
ROOT
ATOM      1  C   LIG d   1      -2.060  79.207 114.553  0.00  0.00     0.161 C 
ATOM      2  C   LIG d   1      -3.026  78.296 115.012  0.00  0.00     0.016 C 
ATOM      3  C   LIG d   1      -3.585  77.280 114.203  0.00  0.00     0.038 C 
ATOM      4  C   LIG d   1      -3.101  77.009 112.914  0.00  0.00     0.028 C 
ATOM      5  C   LIG d   1      -2.480  78.224 112.232  0.00  0.00    -0.047 C 
ATOM      6  C   LIG d   1      -1.440  78.857 113.184  0.00  0.00     0.091 C 
ENDROOT
BRANCH   1   7
ATOM      7  O   LIG d   1      -1.027  79.366 115.546  0.00  0.00    -0.368 OA
BRANCH   7   8
ATOM      8  C   LIG d   1      -1.172  78.571 116.749  0.00  0.00     0.119 C 
BRANCH   8   9
ATOM      9  C   LIG d   1      -1.033  79.524 117.952  0.00  0.00     0.028 C 
ATOM     10  C   LIG d   1      -2.310  79.579 118.808  0.00  0.00     0.006 C 
ENDBRANCH   8   9
BRANCH   8  11
ATOM     11  C   LIG d   1      -0.026  77.566 116.894  0.00  0.00     0.028 C 
ATOM     12  C   LIG d   1      -0.426  76.142 116.475  0.00  0.00     0.006 C 
ENDBRANCH   8  11
ENDBRANCH   7   8
ENDBRANCH   1   7
BRANCH   6  13
ATOM     13  N   LIG d   1      -0.846  80.100 112.629  0.00  0.00    -0.311 N 
ATOM     14  C   LIG d   1      -1.571  81.106 112.142  0.00  0.00     0.210 C 
ATOM     15  C   LIG d   1      -0.759  82.286 111.600  0.00  0.00     0.109 C 
ATOM     16  O   LIG d   1      -2.811  81.146 112.138  0.00  0.00    -0.276 OA
ATOM     17  H   LIG d   1       0.153  80.165 112.622  0.00  0.00     0.149 HD
ENDBRANCH   6  13
BRANCH   5  18
ATOM     18  N   LIG d   1      -1.896  77.769 110.957  0.00  0.00     0.381 N 
ATOM     19  H   LIG d   1      -1.784  76.774 110.971  0.00  0.00    -0.090 HD
ATOM     20  H   LIG d   1      -0.988  78.186 110.848  0.00  0.00    -0.090 HD
ATOM     21  H   LIG d   1      -2.484  78.033 110.198  0.00  0.00    -0.090 HD
ENDBRANCH   5  18
BRANCH   3  22
ATOM     22  C   LIG d   1      -4.667  76.548 114.668  0.00  0.00     0.382 C 
ATOM     23  O   LIG d   1      -4.790  75.341 114.350  0.00  0.00    -0.241 OA
ATOM     24  O   LIG d   1      -5.544  77.092 115.365  0.00  0.00    -0.241 OA
ENDBRANCH   3  22
TORSDOF 7
ENDMDL
MODEL 3
REMARK VINA RESULT:      -4.7      1.836      4.529
REMARK  7 active torsions:
REMARK  status: ('A' for Active; 'I' for Inactive)
REMARK    1  A    between atoms: C_2  and  C_3 
REMARK    2  A    between atoms: C_3  and  O_6 
REMARK    3  A    between atoms: C_3  and  C_4 
REMARK    4  A    between atoms: C_7  and  O_6 
REMARK    5  A    between atoms: C_9  and  C_10 
REMARK    6  A    between atoms: N_15  and  C_14 
REMARK    7  A    between atoms: N_20  and  C_19 
REMARK       I    between atoms: C_22  and  N_20 
ROOT
ATOM      1  C   LIG d   1      -3.394  78.261 114.902  0.00  0.00     0.161 C 
ATOM      2  C   LIG d   1      -4.195  77.161 115.250  0.00  0.00     0.016 C 
ATOM      3  C   LIG d   1      -3.701  75.841 115.357  0.00  0.00     0.038 C 
ATOM      4  C   LIG d   1      -2.331  75.553 115.268  0.00  0.00     0.028 C 
ATOM      5  C   LIG d   1      -1.555  76.554 114.419  0.00  0.00    -0.047 C 
ATOM      6  C   LIG d   1      -1.876  77.984 114.911  0.00  0.00     0.091 C 
ENDROOT
BRANCH   1   7
ATOM      7  O   LIG d   1      -3.704  79.381 115.754  0.00  0.00    -0.368 OA
BRANCH   7   8
ATOM      8  C   LIG d   1      -4.192  79.057 117.080  0.00  0.00     0.119 C 
BRANCH   8   9
ATOM      9  C   LIG d   1      -5.273  80.094 117.441  0.00  0.00     0.028 C 
ATOM     10  C   LIG d   1      -6.615  79.439 117.806  0.00  0.00     0.006 C 
ENDBRANCH   8   9
BRANCH   8  11
ATOM     11  C   LIG d   1      -3.095  79.230 118.135  0.00  0.00     0.028 C 
ATOM     12  C   LIG d   1      -2.517  77.891 118.619  0.00  0.00     0.006 C 
ENDBRANCH   8  11
ENDBRANCH   7   8
ENDBRANCH   1   7
BRANCH   6  13
ATOM     13  N   LIG d   1      -1.223  79.029 114.079  0.00  0.00    -0.311 N 
ATOM     14  C   LIG d   1      -1.469  79.192 112.780  0.00  0.00     0.210 C 
ATOM     15  C   LIG d   1      -0.674  80.315 112.108  0.00  0.00     0.109 C 
ATOM     16  O   LIG d   1      -2.294  78.534 112.129  0.00  0.00    -0.276 OA
ATOM     17  H   LIG d   1      -0.563  79.628 114.535  0.00  0.00     0.149 HD
ENDBRANCH   6  13
BRANCH   5  18
ATOM     18  N   LIG d   1      -0.123  76.214 114.526  0.00  0.00     0.381 N 
ATOM     19  H   LIG d   1       0.401  77.029 114.775  0.00  0.00    -0.090 HD
ATOM     20  H   LIG d   1       0.202  75.892 113.631  0.00  0.00    -0.090 HD
ATOM     21  H   LIG d   1       0.008  75.503 115.211  0.00  0.00    -0.090 HD
ENDBRANCH   5  18
BRANCH   3  22
ATOM     22  C   LIG d   1      -4.587  74.786 115.515  0.00  0.00     0.382 C 
ATOM     23  O   LIG d   1      -4.724  74.245 116.638  0.00  0.00    -0.241 OA
ATOM     24  O   LIG d   1      -5.217  74.339 114.538  0.00  0.00    -0.241 OA
ENDBRANCH   3  22
TORSDOF 7
ENDMDL
MODEL 4
REMARK VINA RESULT:      -4.7      2.381      5.170
REMARK  7 active torsions:
REMARK  status: ('A' for Active; 'I' for Inactive)
REMARK    1  A    between atoms: C_2  and  C_3 
REMARK    2  A    between atoms: C_3  and  O_6 
REMARK    3  A    between atoms: C_3  and  C_4 
REMARK    4  A    between atoms: C_7  and  O_6 
REMARK    5  A    between atoms: C_9  and  C_10 
REMARK    6  A    between atoms: N_15  and  C_14 
REMARK    7  A    between atoms: N_20  and  C_19 
REMARK       I    between atoms: C_22  and  N_20 
ROOT
ATOM      1  C   LIG d   1      -2.171  76.089 115.166  0.00  0.00     0.161 C 
ATOM      2  C   LIG d   1      -2.094  75.455 116.417  0.00  0.00     0.016 C 
ATOM      3  C   LIG d   1      -1.503  76.050 117.555  0.00  0.00     0.038 C 
ATOM      4  C   LIG d   1      -1.081  77.388 117.558  0.00  0.00     0.028 C 
ATOM      5  C   LIG d   1      -0.679  77.899 116.179  0.00  0.00    -0.047 C 
ATOM      6  C   LIG d   1      -1.816  77.591 115.178  0.00  0.00     0.091 C 
ENDROOT
BRANCH   1   7
ATOM      7  O   LIG d   1      -3.480  75.888 114.596  0.00  0.00    -0.368 OA
BRANCH   7   8
ATOM      8  C   LIG d   1      -4.554  75.647 115.538  0.00  0.00     0.119 C 
BRANCH   8   9
ATOM      9  C   LIG d   1      -5.467  74.564 114.930  0.00  0.00     0.028 C 
ATOM     10  C   LIG d   1      -6.626  74.181 115.866  0.00  0.00     0.006 C 
ENDBRANCH   8   9
BRANCH   8  11
ATOM     11  C   LIG d   1      -5.443  76.883 115.698  0.00  0.00     0.028 C 
ATOM     12  C   LIG d   1      -5.110  77.697 116.959  0.00  0.00     0.006 C 
ENDBRANCH   8  11
ENDBRANCH   7   8
ENDBRANCH   1   7
BRANCH   6  13
ATOM     13  N   LIG d   1      -1.469  77.983 113.788  0.00  0.00    -0.311 N 
ATOM     14  C   LIG d   1      -2.198  78.828 113.061  0.00  0.00     0.210 C 
ATOM     15  C   LIG d   1      -1.673  79.080 111.644  0.00  0.00     0.109 C 
ATOM     16  O   LIG d   1      -3.211  79.417 113.466  0.00  0.00    -0.276 OA
ATOM     17  H   LIG d   1      -0.645  77.575 113.391  0.00  0.00     0.149 HD
ENDBRANCH   6  13
BRANCH   5  18
ATOM     18  N   LIG d   1      -0.394  79.341 116.304  0.00  0.00     0.381 N 
ATOM     19  H   LIG d   1      -1.031  79.863 115.736  0.00  0.00    -0.090 HD
ATOM     20  H   LIG d   1       0.539  79.517 115.975  0.00  0.00    -0.090 HD
ATOM     21  H   LIG d   1      -0.477  79.624 117.255  0.00  0.00    -0.090 HD
ENDBRANCH   5  18
BRANCH   3  22
ATOM     22  C   LIG d   1      -1.293  75.291 118.696  0.00  0.00     0.382 C 
ATOM     23  O   LIG d   1      -2.157  75.273 119.606  0.00  0.00    -0.241 OA
ATOM     24  O   LIG d   1      -0.231  74.658 118.847  0.00  0.00    -0.241 OA
ENDBRANCH   3  22
TORSDOF 7
ENDMDL
MODEL 5
REMARK VINA RESULT:      -4.6      1.833      2.538
REMARK  7 active torsions:
REMARK  status: ('A' for Active; 'I' for Inactive)
REMARK    1  A    between atoms: C_2  and  C_3 
REMARK    2  A    between atoms: C_3  and  O_6 
REMARK    3  A    between atoms: C_3  and  C_4 
REMARK    4  A    between atoms: C_7  and  O_6 
REMARK    5  A    between atoms: C_9  and  C_10 
REMARK    6  A    between atoms: N_15  and  C_14 
REMARK    7  A    between atoms: N_20  and  C_19 
REMARK       I    between atoms: C_22  and  N_20 
ROOT
ATOM      1  C   LIG d   1      -3.115  76.825 115.811  0.00  0.00     0.161 C 
ATOM      2  C   LIG d   1      -3.357  77.879 114.915  0.00  0.00     0.016 C 
ATOM      3  C   LIG d   1      -2.572  78.118 113.764  0.00  0.00     0.038 C 
ATOM      4  C   LIG d   1      -1.576  77.222 113.347  0.00  0.00     0.028 C 
ATOM      5  C   LIG d   1      -0.965  76.420 114.490  0.00  0.00    -0.047 C 
ATOM      6  C   LIG d   1      -2.102  75.772 115.313  0.00  0.00     0.091 C 
ENDROOT
BRANCH   1   7
ATOM      7  O   LIG d   1      -4.359  76.192 116.170  0.00  0.00    -0.368 OA
BRANCH   7   8
ATOM      8  C   LIG d   1      -5.564  76.833 115.682  0.00  0.00     0.119 C 
BRANCH   8   9
ATOM      9  C   LIG d   1      -6.326  77.377 116.906  0.00  0.00     0.028 C 
ATOM     10  C   LIG d   1      -7.088  76.274 117.660  0.00  0.00     0.006 C 
ENDBRANCH   8   9
BRANCH   8  11
ATOM     11  C   LIG d   1      -6.510  75.820 115.032  0.00  0.00     0.028 C 
ATOM     12  C   LIG d   1      -5.830  74.474 114.736  0.00  0.00     0.006 C 
ENDBRANCH   8  11
ENDBRANCH   7   8
ENDBRANCH   1   7
BRANCH   6  13
ATOM     13  N   LIG d   1      -1.595  75.038 116.501  0.00  0.00    -0.311 N 
ATOM     14  C   LIG d   1      -0.866  75.608 117.459  0.00  0.00     0.210 C 
ATOM     15  C   LIG d   1      -0.428  74.666 118.585  0.00  0.00     0.109 C 
ATOM     16  O   LIG d   1      -0.567  76.811 117.499  0.00  0.00    -0.276 OA
ATOM     17  H   LIG d   1      -1.818  74.064 116.565  0.00  0.00     0.149 HD
ENDBRANCH   6  13
BRANCH   5  18
ATOM     18  N   LIG d   1      -0.044  75.432 113.899  0.00  0.00     0.381 N 
ATOM     19  H   LIG d   1       0.566  75.885 113.248  0.00  0.00    -0.090 HD
ATOM     20  H   LIG d   1      -0.581  74.743 113.402  0.00  0.00    -0.090 HD
ATOM     21  H   LIG d   1       0.491  74.993 114.616  0.00  0.00    -0.090 HD
ENDBRANCH   5  18
BRANCH   3  22
ATOM     22  C   LIG d   1      -2.754  79.286 113.039  0.00  0.00     0.382 C 
ATOM     23  O   LIG d   1      -3.226  80.304 113.598  0.00  0.00    -0.241 OA
ATOM     24  O   LIG d   1      -2.493  79.320 111.821  0.00  0.00    -0.241 OA
ENDBRANCH   3  22
TORSDOF 7
ENDMDL
MODEL 6
REMARK VINA RESULT:      -4.5      2.772      4.506
REMARK  7 active torsions:
REMARK  status: ('A' for Active; 'I' for Inactive)
REMARK    1  A    between atoms: C_2  and  C_3 
REMARK    2  A    between atoms: C_3  and  O_6 
REMARK    3  A    between atoms: C_3  and  C_4 
REMARK    4  A    between atoms: C_7  and  O_6 
REMARK    5  A    between atoms: C_9  and  C_10 
REMARK    6  A    between atoms: N_15  and  C_14 
REMARK    7  A    between atoms: N_20  and  C_19 
REMARK       I    between atoms: C_22  and  N_20 
ROOT
ATOM      1  C   LIG d   1      -5.874  78.395 117.537  0.00  0.00     0.161 C 
ATOM      2  C   LIG d   1      -4.914  79.026 116.729  0.00  0.00     0.016 C 
ATOM      3  C   LIG d   1      -3.968  78.322 115.950  0.00  0.00     0.038 C 
ATOM      4  C   LIG d   1      -4.015  76.927 115.808  0.00  0.00     0.028 C 
ATOM      5  C   LIG d   1      -4.648  76.218 117.000  0.00  0.00    -0.047 C 
ATOM      6  C   LIG d   1      -6.013  76.875 117.308  0.00  0.00     0.091 C 
ENDROOT
BRANCH   1   7
ATOM      7  O   LIG d   1      -7.151  79.044 117.377  0.00  0.00    -0.368 OA
BRANCH   7   8
ATOM      8  C   LIG d   1      -7.626  79.805 118.515  0.00  0.00     0.119 C 
BRANCH   8   9
ATOM      9  C   LIG d   1      -9.108  79.442 118.728  0.00  0.00     0.028 C 
ATOM     10  C   LIG d   1     -10.057  80.577 118.308  0.00  0.00     0.006 C 
ENDBRANCH   8   9
BRANCH   8  11
ATOM     11  C   LIG d   1      -7.615  81.308 118.224  0.00  0.00     0.028 C 
ATOM     12  C   LIG d   1      -6.419  82.030 118.865  0.00  0.00     0.006 C 
ENDBRANCH   8  11
ENDBRANCH   7   8
ENDBRANCH   1   7
BRANCH   6  13
ATOM     13  N   LIG d   1      -6.662  76.296 118.513  0.00  0.00    -0.311 N 
ATOM     14  C   LIG d   1      -7.929  75.886 118.538  0.00  0.00     0.210 C 
ATOM     15  C   LIG d   1      -8.405  75.339 119.888  0.00  0.00     0.109 C 
ATOM     16  O   LIG d   1      -8.694  75.892 117.562  0.00  0.00    -0.276 OA
ATOM     17  H   LIG d   1      -6.104  76.224 119.341  0.00  0.00     0.149 HD
ENDBRANCH   6  13
BRANCH   5  18
ATOM     18  N   LIG d   1      -4.759  74.787 116.660  0.00  0.00     0.381 N 
ATOM     19  H   LIG d   1      -3.934  74.488 116.179  0.00  0.00    -0.090 HD
ATOM     20  H   LIG d   1      -5.545  74.658 116.047  0.00  0.00    -0.090 HD
ATOM     21  H   LIG d   1      -4.884  74.248 117.488  0.00  0.00    -0.090 HD
ENDBRANCH   5  18
BRANCH   3  22
ATOM     22  C   LIG d   1      -2.934  79.012 115.335  0.00  0.00     0.382 C 
ATOM     23  O   LIG d   1      -1.776  78.966 115.815  0.00  0.00    -0.241 OA
ATOM     24  O   LIG d   1      -3.154  79.715 114.331  0.00  0.00    -0.241 OA
ENDBRANCH   3  22
TORSDOF 7
ENDMDL
MODEL 7
REMARK VINA RESULT:      -4.4      3.075      4.587
REMARK  7 active torsions:
REMARK  status: ('A' for Active; 'I' for Inactive)
REMARK    1  A    between atoms: C_2  and  C_3 
REMARK    2  A    between atoms: C_3  and  O_6 
REMARK    3  A    between atoms: C_3  and  C_4 
REMARK    4  A    between atoms: C_7  and  O_6 
REMARK    5  A    between atoms: C_9  and  C_10 
REMARK    6  A    between atoms: N_15  and  C_14 
REMARK    7  A    between atoms: N_20  and  C_19 
REMARK       I    between atoms: C_22  and  N_20 
ROOT
ATOM      1  C   LIG d   1      -5.434  77.694 117.024  0.00  0.00     0.161 C 
ATOM      2  C   LIG d   1      -4.525  77.836 115.962  0.00  0.00     0.016 C 
ATOM      3  C   LIG d   1      -4.332  76.852 114.965  0.00  0.00     0.038 C 
ATOM      4  C   LIG d   1      -5.150  75.716 114.878  0.00  0.00     0.028 C 
ATOM      5  C   LIG d   1      -5.739  75.289 116.218  0.00  0.00    -0.047 C 
ATOM      6  C   LIG d   1      -6.414  76.511 116.882  0.00  0.00     0.091 C 
ENDROOT
BRANCH   1   7
ATOM      7  O   LIG d   1      -6.159  78.925 117.214  0.00  0.00    -0.368 OA
BRANCH   7   8
ATOM      8  C   LIG d   1      -5.394  80.042 117.731  0.00  0.00     0.119 C 
BRANCH   8   9
ATOM      9  C   LIG d   1      -4.763  79.594 119.064  0.00  0.00     0.028 C 
ATOM     10  C   LIG d   1      -3.251  79.870 119.119  0.00  0.00     0.006 C 
ENDBRANCH   8   9
BRANCH   8  11
ATOM     11  C   LIG d   1      -6.303  81.222 118.089  0.00  0.00     0.028 C 
ATOM     12  C   LIG d   1      -7.767  80.991 117.680  0.00  0.00     0.006 C 
ENDBRANCH   8  11
ENDBRANCH   7   8
ENDBRANCH   1   7
BRANCH   6  13
ATOM     13  N   LIG d   1      -6.943  76.200 118.236  0.00  0.00    -0.311 N 
ATOM     14  C   LIG d   1      -8.187  75.781 118.458  0.00  0.00     0.210 C 
ATOM     15  C   LIG d   1      -8.534  75.537 119.930  0.00  0.00     0.109 C 
ATOM     16  O   LIG d   1      -9.026  75.557 117.573  0.00  0.00    -0.276 OA
ATOM     17  H   LIG d   1      -6.319  76.325 119.009  0.00  0.00     0.149 HD
ENDBRANCH   6  13
BRANCH   5  18
ATOM     18  N   LIG d   1      -6.677  74.180 115.959  0.00  0.00     0.381 N 
ATOM     19  H   LIG d   1      -6.923  73.737 116.822  0.00  0.00    -0.090 HD
ATOM     20  H   LIG d   1      -6.224  73.501 115.373  0.00  0.00    -0.090 HD
ATOM     21  H   LIG d   1      -7.496  74.525 115.509  0.00  0.00    -0.090 HD
ENDBRANCH   5  18
BRANCH   3  22
ATOM     22  C   LIG d   1      -3.285  76.981 114.066  0.00  0.00     0.382 C 
ATOM     23  O   LIG d   1      -3.439  77.650 113.016  0.00  0.00    -0.241 OA
ATOM     24  O   LIG d   1      -2.202  76.399 114.269  0.00  0.00    -0.241 OA
ENDBRANCH   3  22
TORSDOF 7
ENDMDL
MODEL 8
REMARK VINA RESULT:      -4.3      2.250      2.844
REMARK  7 active torsions:
REMARK  status: ('A' for Active; 'I' for Inactive)
REMARK    1  A    between atoms: C_2  and  C_3 
REMARK    2  A    between atoms: C_3  and  O_6 
REMARK    3  A    between atoms: C_3  and  C_4 
REMARK    4  A    between atoms: C_7  and  O_6 
REMARK    5  A    between atoms: C_9  and  C_10 
REMARK    6  A    between atoms: N_15  and  C_14 
REMARK    7  A    between atoms: N_20  and  C_19 
REMARK       I    between atoms: C_22  and  N_20 
ROOT
ATOM      1  C   LIG d   1      -3.195  77.142 115.063  0.00  0.00     0.161 C 
ATOM      2  C   LIG d   1      -3.267  77.883 113.872  0.00  0.00     0.016 C 
ATOM      3  C   LIG d   1      -2.387  78.945 113.561  0.00  0.00     0.038 C 
ATOM      4  C   LIG d   1      -1.272  79.241 114.359  0.00  0.00     0.028 C 
ATOM      5  C   LIG d   1      -1.453  78.851 115.822  0.00  0.00    -0.047 C 
ATOM      6  C   LIG d   1      -1.917  77.378 115.895  0.00  0.00     0.091 C 
ENDROOT
BRANCH   1   7
ATOM      7  O   LIG d   1      -3.354  75.739 114.776  0.00  0.00    -0.368 OA
BRANCH   7   8
ATOM      8  C   LIG d   1      -4.588  75.131 115.231  0.00  0.00     0.119 C 
BRANCH   8   9
ATOM      9  C   LIG d   1      -5.703  76.185 115.087  0.00  0.00     0.028 C 
ATOM     10  C   LIG d   1      -6.703  75.834 113.973  0.00  0.00     0.006 C 
ENDBRANCH   8   9
BRANCH   8  11
ATOM     11  C   LIG d   1      -4.531  74.803 116.726  0.00  0.00     0.028 C 
ATOM     12  C   LIG d   1      -5.468  75.684 117.566  0.00  0.00     0.006 C 
ENDBRANCH   8  11
ENDBRANCH   7   8
ENDBRANCH   1   7
BRANCH   6  13
ATOM     13  N   LIG d   1      -2.199  76.941 117.287  0.00  0.00    -0.311 N 
ATOM     14  C   LIG d   1      -1.310  76.308 118.051  0.00  0.00     0.210 C 
ATOM     15  C   LIG d   1      -1.812  75.929 119.448  0.00  0.00     0.109 C 
ATOM     16  O   LIG d   1      -0.143  76.055 117.716  0.00  0.00    -0.276 OA
ATOM     17  H   LIG d   1      -3.111  77.135 117.650  0.00  0.00     0.149 HD
ENDBRANCH   6  13
BRANCH   5  18
ATOM     18  N   LIG d   1      -0.169  79.088 116.509  0.00  0.00     0.381 N 
ATOM     19  H   LIG d   1       0.151  80.016 116.317  0.00  0.00    -0.090 HD
ATOM     20  H   LIG d   1       0.513  78.440 116.156  0.00  0.00    -0.090 HD
ATOM     21  H   LIG d   1      -0.280  78.963 117.491  0.00  0.00    -0.090 HD
ENDBRANCH   5  18
BRANCH   3  22
ATOM     22  C   LIG d   1      -2.642  79.749 112.460  0.00  0.00     0.382 C 
ATOM     23  O   LIG d   1      -2.029  79.550 111.384  0.00  0.00    -0.241 OA
ATOM     24  O   LIG d   1      -3.444  80.698 112.544  0.00  0.00    -0.241 OA
ENDBRANCH   3  22
TORSDOF 7
ENDMDL
MODEL 9
REMARK VINA RESULT:      -4.2      2.949      5.797
REMARK  7 active torsions:
REMARK  status: ('A' for Active; 'I' for Inactive)
REMARK    1  A    between atoms: C_2  and  C_3 
REMARK    2  A    between atoms: C_3  and  O_6 
REMARK    3  A    between atoms: C_3  and  C_4 
REMARK    4  A    between atoms: C_7  and  O_6 
REMARK    5  A    between atoms: C_9  and  C_10 
REMARK    6  A    between atoms: N_15  and  C_14 
REMARK    7  A    between atoms: N_20  and  C_19 
REMARK       I    between atoms: C_22  and  N_20 
ROOT
ATOM      1  C   LIG d   1      -6.086  77.409 116.798  0.00  0.00     0.161 C 
ATOM      2  C   LIG d   1      -7.144  76.923 117.584  0.00  0.00     0.016 C 
ATOM      3  C   LIG d   1      -7.693  75.628 117.436  0.00  0.00     0.038 C 
ATOM      4  C   LIG d   1      -7.115  74.672 116.588  0.00  0.00     0.028 C 
ATOM      5  C   LIG d   1      -6.361  75.281 115.411  0.00  0.00    -0.047 C 
ATOM      6  C   LIG d   1      -5.371  76.341 115.945  0.00  0.00     0.091 C 
ENDROOT
BRANCH   1   7
ATOM      7  O   LIG d   1      -5.137  78.102 117.632  0.00  0.00    -0.368 OA
BRANCH   7   8
ATOM      8  C   LIG d   1      -5.677  79.139 118.488  0.00  0.00     0.119 C 
BRANCH   8   9
ATOM      9  C   LIG d   1      -5.641  80.460 117.695  0.00  0.00     0.028 C 
ATOM     10  C   LIG d   1      -6.991  81.197 117.721  0.00  0.00     0.006 C 
ENDBRANCH   8   9
BRANCH   8  11
ATOM     11  C   LIG d   1      -4.784  79.375 119.710  0.00  0.00     0.028 C 
ATOM     12  C   LIG d   1      -3.310  79.029 119.446  0.00  0.00     0.006 C 
ENDBRANCH   8  11
ENDBRANCH   7   8
ENDBRANCH   1   7
BRANCH   6  13
ATOM     13  N   LIG d   1      -4.652  77.047 114.851  0.00  0.00    -0.311 N 
ATOM     14  C   LIG d   1      -3.467  76.660 114.384  0.00  0.00     0.210 C 
ATOM     15  C   LIG d   1      -2.893  77.539 113.269  0.00  0.00     0.109 C 
ATOM     16  O   LIG d   1      -2.851  75.653 114.766  0.00  0.00    -0.276 OA
ATOM     17  H   LIG d   1      -5.095  77.856 114.463  0.00  0.00     0.149 HD
ENDBRANCH   6  13
BRANCH   5  18
ATOM     18  N   LIG d   1      -5.696  74.180 114.689  0.00  0.00     0.381 N 
ATOM     19  H   LIG d   1      -4.765  74.063 115.034  0.00  0.00    -0.090 HD
ATOM     20  H   LIG d   1      -5.644  74.416 113.714  0.00  0.00    -0.090 HD
ATOM     21  H   LIG d   1      -6.211  73.335 114.807  0.00  0.00    -0.090 HD
ENDBRANCH   5  18
BRANCH   3  22
ATOM     22  C   LIG d   1      -8.856  75.293 118.112  0.00  0.00     0.382 C 
ATOM     23  O   LIG d   1      -8.910  74.231 118.778  0.00  0.00    -0.241 OA
ATOM     24  O   LIG d   1      -9.866  76.017 118.029  0.00  0.00    -0.241 OA
ENDBRANCH   3  22
TORSDOF 7
ENDMDL
