MODEL 1
REMARK VINA RESULT:      -4.9      0.000      0.000
REMARK  7 active torsions:
REMARK  status: ('A' for Active; 'I' for Inactive)
REMARK    1  A    between atoms: C_2  and  C_3 
REMARK    2  A    between atoms: C_3  and  O_6 
REMARK    3  A    between atoms: C_3  and  C_4 
REMARK    4  A    between atoms: C_7  and  O_6 
REMARK    5  A    between atoms: C_9  and  C_10 
REMARK    6  A    between atoms: N_15  and  C_14 
REMARK    7  A    between atoms: N_20  and  C_19 
REMARK       I    between atoms: C_22  and  N_20 
ROOT
ATOM      1  C   LIG d   1      -2.414  80.288 115.154  0.00  0.00     0.161 C 
ATOM      2  C   LIG d   1      -1.967  81.461 114.525  0.00  0.00     0.016 C 
ATOM      3  C   LIG d   1      -1.294  81.469 113.281  0.00  0.00     0.038 C 
ATOM      4  C   LIG d   1      -1.156  80.308 112.506  0.00  0.00     0.028 C 
ATOM      5  C   LIG d   1      -1.145  79.026 113.331  0.00  0.00    -0.047 C 
ATOM      6  C   LIG d   1      -2.372  79.024 114.271  0.00  0.00     0.091 C 
ENDROOT
BRANCH   1   7
ATOM      7  O   LIG d   1      -3.743  80.490 115.676  0.00  0.00    -0.368 OA
BRANCH   7   8
ATOM      8  C   LIG d   1      -3.825  81.002 117.029  0.00  0.00     0.119 C 
BRANCH   8   9
ATOM      9  C   LIG d   1      -2.860  80.171 117.897  0.00  0.00     0.028 C 
ATOM     10  C   LIG d   1      -3.531  78.918 118.485  0.00  0.00     0.006 C 
ENDBRANCH   8   9
BRANCH   8  11
ATOM     11  C   LIG d   1      -5.214  80.768 117.630  0.00  0.00     0.028 C 
ATOM     12  C   LIG d   1      -5.971  82.077 117.907  0.00  0.00     0.006 C 
ENDBRANCH   8  11
ENDBRANCH   7   8
ENDBRANCH   1   7
BRANCH   6  13
ATOM     13  N   LIG d   1      -2.392  77.843 115.174  0.00  0.00    -0.311 N 
ATOM     14  C   LIG d   1      -2.945  76.677 114.845  0.00  0.00     0.210 C 
ATOM     15  C   LIG d   1      -2.874  75.598 115.930  0.00  0.00     0.109 C 
ATOM     16  O   LIG d   1      -3.460  76.425 113.745  0.00  0.00    -0.276 OA
ATOM     17  H   LIG d   1      -1.968  77.951 116.075  0.00  0.00     0.149 HD
ENDBRANCH   6  13
BRANCH   5  18
ATOM     18  N   LIG d   1      -1.135  77.890 112.390  0.00  0.00     0.381 N 
ATOM     19  H   LIG d   1      -1.251  78.225 111.454  0.00  0.00    -0.090 HD
ATOM     20  H   LIG d   1      -1.906  77.283 112.605  0.00  0.00    -0.090 HD
ATOM     21  H   LIG d   1      -0.277  77.390 112.468  0.00  0.00    -0.090 HD
ENDBRANCH   5  18
BRANCH   3  22
ATOM     22  C   LIG d   1      -0.715  82.642 112.820  0.00  0.00     0.382 C 
ATOM     23  O   LIG d   1      -1.175  83.209 111.800  0.00  0.00    -0.241 OA
ATOM     24  O   LIG d   1       0.289  83.115 113.385  0.00  0.00    -0.241 OA
ENDBRANCH   3  22
TORSDOF 7
ENDMDL
MODEL 2
REMARK VINA RESULT:      -4.9      0.699      1.541
REMARK  7 active torsions:
REMARK  status: ('A' for Active; 'I' for Inactive)
REMARK    1  A    between atoms: C_2  and  C_3 
REMARK    2  A    between atoms: C_3  and  O_6 
REMARK    3  A    between atoms: C_3  and  C_4 
REMARK    4  A    between atoms: C_7  and  O_6 
REMARK    5  A    between atoms: C_9  and  C_10 
REMARK    6  A    between atoms: N_15  and  C_14 
REMARK    7  A    between atoms: N_20  and  C_19 
REMARK       I    between atoms: C_22  and  N_20 
ROOT
ATOM      1  C   LIG d   1      -2.413  80.485 115.146  0.00  0.00     0.161 C 
ATOM      2  C   LIG d   1      -1.922  81.612 114.466  0.00  0.00     0.016 C 
ATOM      3  C   LIG d   1      -1.280  81.544 113.208  0.00  0.00     0.038 C 
ATOM      4  C   LIG d   1      -1.220  80.353 112.470  0.00  0.00     0.028 C 
ATOM      5  C   LIG d   1      -1.253  79.100 113.338  0.00  0.00    -0.047 C 
ATOM      6  C   LIG d   1      -2.455  79.191 114.305  0.00  0.00     0.091 C 
ENDROOT
BRANCH   1   7
ATOM      7  O   LIG d   1      -3.716  80.772 115.690  0.00  0.00    -0.368 OA
BRANCH   7   8
ATOM      8  C   LIG d   1      -3.843  80.664 117.129  0.00  0.00     0.119 C 
BRANCH   8   9
ATOM      9  C   LIG d   1      -4.931  81.662 117.574  0.00  0.00     0.028 C 
ATOM     10  C   LIG d   1      -6.239  80.962 117.978  0.00  0.00     0.006 C 
ENDBRANCH   8   9
BRANCH   8  11
ATOM     11  C   LIG d   1      -2.563  81.119 117.837  0.00  0.00     0.028 C 
ATOM     12  C   LIG d   1      -2.837  82.081 119.004  0.00  0.00     0.006 C 
ENDBRANCH   8  11
ENDBRANCH   7   8
ENDBRANCH   1   7
BRANCH   6  13
ATOM     13  N   LIG d   1      -2.513  78.044 115.248  0.00  0.00    -0.311 N 
ATOM     14  C   LIG d   1      -3.292  76.980 115.061  0.00  0.00     0.210 C 
ATOM     15  C   LIG d   1      -3.214  75.920 116.165  0.00  0.00     0.109 C 
ATOM     16  O   LIG d   1      -4.015  76.798 114.071  0.00  0.00    -0.276 OA
ATOM     17  H   LIG d   1      -1.934  78.094 116.064  0.00  0.00     0.149 HD
ENDBRANCH   6  13
BRANCH   5  18
ATOM     18  N   LIG d   1      -1.323  77.935 112.436  0.00  0.00     0.381 N 
ATOM     19  H   LIG d   1      -0.399  77.623 112.213  0.00  0.00    -0.090 HD
ATOM     20  H   LIG d   1      -1.778  78.211 111.584  0.00  0.00    -0.090 HD
ATOM     21  H   LIG d   1      -1.834  77.198 112.871  0.00  0.00    -0.090 HD
ENDBRANCH   5  18
BRANCH   3  22
ATOM     22  C   LIG d   1      -0.654  82.670 112.695  0.00  0.00     0.382 C 
ATOM     23  O   LIG d   1       0.351  83.148 113.275  0.00  0.00    -0.241 OA
ATOM     24  O   LIG d   1      -1.107  83.239 111.684  0.00  0.00    -0.241 OA
ENDBRANCH   3  22
TORSDOF 7
ENDMDL
MODEL 3
REMARK VINA RESULT:      -4.9      1.824      2.232
REMARK  7 active torsions:
REMARK  status: ('A' for Active; 'I' for Inactive)
REMARK    1  A    between atoms: C_2  and  C_3 
REMARK    2  A    between atoms: C_3  and  O_6 
REMARK    3  A    between atoms: C_3  and  C_4 
REMARK    4  A    between atoms: C_7  and  O_6 
REMARK    5  A    between atoms: C_9  and  C_10 
REMARK    6  A    between atoms: N_15  and  C_14 
REMARK    7  A    between atoms: N_20  and  C_19 
REMARK       I    between atoms: C_22  and  N_20 
ROOT
ATOM      1  C   LIG d   1      -0.150  79.947 115.004  0.00  0.00     0.161 C 
ATOM      2  C   LIG d   1      -0.113  81.245 114.468  0.00  0.00     0.016 C 
ATOM      3  C   LIG d   1      -0.736  81.602 113.250  0.00  0.00     0.038 C 
ATOM      4  C   LIG d   1      -1.571  80.713 112.556  0.00  0.00     0.028 C 
ATOM      5  C   LIG d   1      -1.227  79.247 112.795  0.00  0.00    -0.047 C 
ATOM      6  C   LIG d   1      -1.148  78.992 114.318  0.00  0.00     0.091 C 
ENDROOT
BRANCH   1   7
ATOM      7  O   LIG d   1      -0.409  80.011 116.420  0.00  0.00    -0.368 OA
BRANCH   7   8
ATOM      8  C   LIG d   1      -1.028  81.229 116.901  0.00  0.00     0.119 C 
BRANCH   8   9
ATOM      9  C   LIG d   1      -0.204  81.723 118.106  0.00  0.00     0.028 C 
ATOM     10  C   LIG d   1      -0.349  83.237 118.335  0.00  0.00     0.006 C 
ENDBRANCH   8   9
BRANCH   8  11
ATOM     11  C   LIG d   1      -2.431  80.961 117.453  0.00  0.00     0.028 C 
ATOM     12  C   LIG d   1      -3.509  80.947 116.357  0.00  0.00     0.006 C 
ENDBRANCH   8  11
ENDBRANCH   7   8
ENDBRANCH   1   7
BRANCH   6  13
ATOM     13  N   LIG d   1      -0.734  77.601 114.639  0.00  0.00    -0.311 N 
ATOM     14  C   LIG d   1      -1.596  76.601 114.811  0.00  0.00     0.210 C 
ATOM     15  C   LIG d   1      -0.959  75.251 115.155  0.00  0.00     0.109 C 
ATOM     16  O   LIG d   1      -2.825  76.696 114.679  0.00  0.00    -0.276 OA
ATOM     17  H   LIG d   1       0.248  77.428 114.733  0.00  0.00     0.149 HD
ENDBRANCH   6  13
BRANCH   5  18
ATOM     18  N   LIG d   1      -2.258  78.432 112.125  0.00  0.00     0.381 N 
ATOM     19  H   LIG d   1      -1.824  77.798 111.484  0.00  0.00    -0.090 HD
ATOM     20  H   LIG d   1      -2.865  79.040 111.604  0.00  0.00    -0.090 HD
ATOM     21  H   LIG d   1      -2.784  77.925 112.801  0.00  0.00    -0.090 HD
ENDBRANCH   5  18
BRANCH   3  22
ATOM     22  C   LIG d   1      -0.494  82.849 112.693  0.00  0.00     0.382 C 
ATOM     23  O   LIG d   1      -1.189  83.251 111.729  0.00  0.00    -0.241 OA
ATOM     24  O   LIG d   1       0.440  83.558 113.114  0.00  0.00    -0.241 OA
ENDBRANCH   3  22
TORSDOF 7
ENDMDL
MODEL 4
REMARK VINA RESULT:      -4.7      2.405      4.724
REMARK  7 active torsions:
REMARK  status: ('A' for Active; 'I' for Inactive)
REMARK    1  A    between atoms: C_2  and  C_3 
REMARK    2  A    between atoms: C_3  and  O_6 
REMARK    3  A    between atoms: C_3  and  C_4 
REMARK    4  A    between atoms: C_7  and  O_6 
REMARK    5  A    between atoms: C_9  and  C_10 
REMARK    6  A    between atoms: N_15  and  C_14 
REMARK    7  A    between atoms: N_20  and  C_19 
REMARK       I    between atoms: C_22  and  N_20 
ROOT
ATOM      1  C   LIG d   1      -2.820  78.012 115.382  0.00  0.00     0.161 C 
ATOM      2  C   LIG d   1      -2.524  78.819 114.270  0.00  0.00     0.016 C 
ATOM      3  C   LIG d   1      -2.511  80.232 114.315  0.00  0.00     0.038 C 
ATOM      4  C   LIG d   1      -2.646  80.936 115.521  0.00  0.00     0.028 C 
ATOM      5  C   LIG d   1      -3.447  80.182 116.577  0.00  0.00    -0.047 C 
ATOM      6  C   LIG d   1      -2.860  78.760 116.731  0.00  0.00     0.091 C 
ENDROOT
BRANCH   1   7
ATOM      7  O   LIG d   1      -1.892  76.911 115.447  0.00  0.00    -0.368 OA
BRANCH   7   8
ATOM      8  C   LIG d   1      -2.313  75.684 114.803  0.00  0.00     0.119 C 
BRANCH   8   9
ATOM      9  C   LIG d   1      -3.776  75.425 115.211  0.00  0.00     0.028 C 
ATOM     10  C   LIG d   1      -4.557  74.650 114.136  0.00  0.00     0.006 C 
ENDBRANCH   8   9
BRANCH   8  11
ATOM     11  C   LIG d   1      -1.526  74.480 115.329  0.00  0.00     0.028 C 
ATOM     12  C   LIG d   1      -1.809  74.184 116.810  0.00  0.00     0.006 C 
ENDBRANCH   8  11
ENDBRANCH   7   8
ENDBRANCH   1   7
BRANCH   6  13
ATOM     13  N   LIG d   1      -3.638  77.926 117.684  0.00  0.00    -0.311 N 
ATOM     14  C   LIG d   1      -3.076  77.190 118.641  0.00  0.00     0.210 C 
ATOM     15  C   LIG d   1      -4.058  76.389 119.502  0.00  0.00     0.109 C 
ATOM     16  O   LIG d   1      -1.859  77.148 118.879  0.00  0.00    -0.276 OA
ATOM     17  H   LIG d   1      -4.634  77.926 117.583  0.00  0.00     0.149 HD
ENDBRANCH   6  13
BRANCH   5  18
ATOM     18  N   LIG d   1      -3.392  80.968 117.823  0.00  0.00     0.381 N 
ATOM     19  H   LIG d   1      -4.185  80.753 118.395  0.00  0.00    -0.090 HD
ATOM     20  H   LIG d   1      -3.426  81.946 117.593  0.00  0.00    -0.090 HD
ATOM     21  H   LIG d   1      -2.552  80.765 118.318  0.00  0.00    -0.090 HD
ENDBRANCH   5  18
BRANCH   3  22
ATOM     22  C   LIG d   1      -2.401  80.956 113.138  0.00  0.00     0.382 C 
ATOM     23  O   LIG d   1      -3.191  81.904 112.909  0.00  0.00    -0.241 OA
ATOM     24  O   LIG d   1      -1.552  80.645 112.282  0.00  0.00    -0.241 OA
ENDBRANCH   3  22
TORSDOF 7
ENDMDL
MODEL 5
REMARK VINA RESULT:      -4.6      2.155      2.805
REMARK  7 active torsions:
REMARK  status: ('A' for Active; 'I' for Inactive)
REMARK    1  A    between atoms: C_2  and  C_3 
REMARK    2  A    between atoms: C_3  and  O_6 
REMARK    3  A    between atoms: C_3  and  C_4 
REMARK    4  A    between atoms: C_7  and  O_6 
REMARK    5  A    between atoms: C_9  and  C_10 
REMARK    6  A    between atoms: N_15  and  C_14 
REMARK    7  A    between atoms: N_20  and  C_19 
REMARK       I    between atoms: C_22  and  N_20 
ROOT
ATOM      1  C   LIG d   1      -2.471  80.131 116.631  0.00  0.00     0.161 C 
ATOM      2  C   LIG d   1      -2.692  80.883 115.466  0.00  0.00     0.016 C 
ATOM      3  C   LIG d   1      -2.288  80.460 114.178  0.00  0.00     0.038 C 
ATOM      4  C   LIG d   1      -1.768  79.177 113.949  0.00  0.00     0.028 C 
ATOM      5  C   LIG d   1      -1.064  78.583 115.164  0.00  0.00    -0.047 C 
ATOM      6  C   LIG d   1      -2.005  78.681 116.386  0.00  0.00     0.091 C 
ENDROOT
BRANCH   1   7
ATOM      7  O   LIG d   1      -3.655  80.145 117.453  0.00  0.00    -0.368 OA
BRANCH   7   8
ATOM      8  C   LIG d   1      -3.537  80.821 118.729  0.00  0.00     0.119 C 
BRANCH   8   9
ATOM      9  C   LIG d   1      -4.564  81.970 118.741  0.00  0.00     0.028 C 
ATOM     10  C   LIG d   1      -5.589  81.853 117.601  0.00  0.00     0.006 C 
ENDBRANCH   8   9
BRANCH   8  11
ATOM     11  C   LIG d   1      -2.170  81.496 118.878  0.00  0.00     0.028 C 
ATOM     12  C   LIG d   1      -2.264  82.902 119.492  0.00  0.00     0.006 C 
ENDBRANCH   8  11
ENDBRANCH   7   8
ENDBRANCH   1   7
BRANCH   6  13
ATOM     13  N   LIG d   1      -1.362  78.198 117.636  0.00  0.00    -0.311 N 
ATOM     14  C   LIG d   1      -1.488  76.952 118.091  0.00  0.00     0.210 C 
ATOM     15  C   LIG d   1      -0.759  76.669 119.409  0.00  0.00     0.109 C 
ATOM     16  O   LIG d   1      -2.106  76.047 117.512  0.00  0.00    -0.276 OA
ATOM     17  H   LIG d   1      -0.815  78.858 118.153  0.00  0.00     0.149 HD
ENDBRANCH   6  13
BRANCH   5  18
ATOM     18  N   LIG d   1      -0.693  77.195 114.829  0.00  0.00     0.381 N 
ATOM     19  H   LIG d   1      -0.033  77.193 114.077  0.00  0.00    -0.090 HD
ATOM     20  H   LIG d   1      -1.516  76.702 114.528  0.00  0.00    -0.090 HD
ATOM     21  H   LIG d   1      -0.301  76.745 115.627  0.00  0.00    -0.090 HD
ENDBRANCH   5  18
BRANCH   3  22
ATOM     22  C   LIG d   1      -2.367  81.340 113.109  0.00  0.00     0.382 C 
ATOM     23  O   LIG d   1      -1.361  81.543 112.389  0.00  0.00    -0.241 OA
ATOM     24  O   LIG d   1      -3.420  81.966 112.883  0.00  0.00    -0.241 OA
ENDBRANCH   3  22
TORSDOF 7
ENDMDL
MODEL 6
REMARK VINA RESULT:      -4.5      4.278      8.103
REMARK  7 active torsions:
REMARK  status: ('A' for Active; 'I' for Inactive)
REMARK    1  A    between atoms: C_2  and  C_3 
REMARK    2  A    between atoms: C_3  and  O_6 
REMARK    3  A    between atoms: C_3  and  C_4 
REMARK    4  A    between atoms: C_7  and  O_6 
REMARK    5  A    between atoms: C_9  and  C_10 
REMARK    6  A    between atoms: N_15  and  C_14 
REMARK    7  A    between atoms: N_20  and  C_19 
REMARK       I    between atoms: C_22  and  N_20 
ROOT
ATOM      1  C   LIG d   1      -6.049  77.386 117.190  0.00  0.00     0.161 C 
ATOM      2  C   LIG d   1      -6.999  76.352 117.137  0.00  0.00     0.016 C 
ATOM      3  C   LIG d   1      -8.309  76.471 117.654  0.00  0.00     0.038 C 
ATOM      4  C   LIG d   1      -8.811  77.693 118.127  0.00  0.00     0.028 C 
ATOM      5  C   LIG d   1      -7.730  78.625 118.663  0.00  0.00    -0.047 C 
ATOM      6  C   LIG d   1      -6.614  78.761 117.602  0.00  0.00     0.091 C 
ENDROOT
BRANCH   1   7
ATOM      7  O   LIG d   1      -5.363  77.484 115.926  0.00  0.00    -0.368 OA
BRANCH   7   8
ATOM      8  C   LIG d   1      -4.432  76.417 115.622  0.00  0.00     0.119 C 
BRANCH   8   9
ATOM      9  C   LIG d   1      -3.014  77.021 115.638  0.00  0.00     0.028 C 
ATOM     10  C   LIG d   1      -2.587  77.550 114.258  0.00  0.00     0.006 C 
ENDBRANCH   8   9
BRANCH   8  11
ATOM     11  C   LIG d   1      -4.633  75.891 114.198  0.00  0.00     0.028 C 
ATOM     12  C   LIG d   1      -4.627  74.356 114.123  0.00  0.00     0.006 C 
ENDBRANCH   8  11
ENDBRANCH   7   8
ENDBRANCH   1   7
BRANCH   6  13
ATOM     13  N   LIG d   1      -5.476  79.589 118.080  0.00  0.00    -0.311 N 
ATOM     14  C   LIG d   1      -5.360  80.892 117.826  0.00  0.00     0.210 C 
ATOM     15  C   LIG d   1      -4.099  81.551 118.395  0.00  0.00     0.109 C 
ATOM     16  O   LIG d   1      -6.197  81.570 117.212  0.00  0.00    -0.276 OA
ATOM     17  H   LIG d   1      -4.766  79.126 118.613  0.00  0.00     0.149 HD
ENDBRANCH   6  13
BRANCH   5  18
ATOM     18  N   LIG d   1      -8.373  79.910 118.995  0.00  0.00     0.381 N 
ATOM     19  H   LIG d   1      -9.269  79.744 119.408  0.00  0.00    -0.090 HD
ATOM     20  H   LIG d   1      -8.509  80.433 118.148  0.00  0.00    -0.090 HD
ATOM     21  H   LIG d   1      -7.799  80.426 119.624  0.00  0.00    -0.090 HD
ENDBRANCH   5  18
BRANCH   3  22
ATOM     22  C   LIG d   1      -9.120  75.350 117.737  0.00  0.00     0.382 C 
ATOM     23  O   LIG d   1      -8.889  74.472 118.604  0.00  0.00    -0.241 OA
ATOM     24  O   LIG d   1     -10.053  75.183 116.929  0.00  0.00    -0.241 OA
ENDBRANCH   3  22
TORSDOF 7
ENDMDL
MODEL 7
REMARK VINA RESULT:      -4.5      1.594      1.919
REMARK  7 active torsions:
REMARK  status: ('A' for Active; 'I' for Inactive)
REMARK    1  A    between atoms: C_2  and  C_3 
REMARK    2  A    between atoms: C_3  and  O_6 
REMARK    3  A    between atoms: C_3  and  C_4 
REMARK    4  A    between atoms: C_7  and  O_6 
REMARK    5  A    between atoms: C_9  and  C_10 
REMARK    6  A    between atoms: N_15  and  C_14 
REMARK    7  A    between atoms: N_20  and  C_19 
REMARK       I    between atoms: C_22  and  N_20 
ROOT
ATOM      1  C   LIG d   1      -2.951  79.834 116.177  0.00  0.00     0.161 C 
ATOM      2  C   LIG d   1      -2.642  80.804 115.209  0.00  0.00     0.016 C 
ATOM      3  C   LIG d   1      -1.753  80.574 114.133  0.00  0.00     0.038 C 
ATOM      4  C   LIG d   1      -1.226  79.302 113.866  0.00  0.00     0.028 C 
ATOM      5  C   LIG d   1      -1.111  78.421 115.106  0.00  0.00    -0.047 C 
ATOM      6  C   LIG d   1      -2.472  78.407 115.839  0.00  0.00     0.091 C 
ENDROOT
BRANCH   1   7
ATOM      7  O   LIG d   1      -4.369  79.839 116.437  0.00  0.00    -0.368 OA
BRANCH   7   8
ATOM      8  C   LIG d   1      -4.771  80.256 117.765  0.00  0.00     0.119 C 
BRANCH   8   9
ATOM      9  C   LIG d   1      -6.042  79.465 118.133  0.00  0.00     0.028 C 
ATOM     10  C   LIG d   1      -6.112  78.103 117.423  0.00  0.00     0.006 C 
ENDBRANCH   8   9
BRANCH   8  11
ATOM     11  C   LIG d   1      -5.190  81.729 117.784  0.00  0.00     0.028 C 
ATOM     12  C   LIG d   1      -6.713  81.914 117.874  0.00  0.00     0.006 C 
ENDBRANCH   8  11
ENDBRANCH   7   8
ENDBRANCH   1   7
BRANCH   6  13
ATOM     13  N   LIG d   1      -2.424  77.636 117.109  0.00  0.00    -0.311 N 
ATOM     14  C   LIG d   1      -2.789  76.359 117.205  0.00  0.00     0.210 C 
ATOM     15  C   LIG d   1      -2.681  75.760 118.611  0.00  0.00     0.109 C 
ATOM     16  O   LIG d   1      -3.162  75.656 116.253  0.00  0.00    -0.276 OA
ATOM     17  H   LIG d   1      -2.104  78.121 117.924  0.00  0.00     0.149 HD
ENDBRANCH   6  13
BRANCH   5  18
ATOM     18  N   LIG d   1      -0.679  77.082 114.663  0.00  0.00     0.381 N 
ATOM     19  H   LIG d   1       0.222  76.873 115.044  0.00  0.00    -0.090 HD
ATOM     20  H   LIG d   1      -0.606  77.079 113.661  0.00  0.00    -0.090 HD
ATOM     21  H   LIG d   1      -1.340  76.396 114.957  0.00  0.00    -0.090 HD
ENDBRANCH   5  18
BRANCH   3  22
ATOM     22  C   LIG d   1      -1.351  81.634 113.335  0.00  0.00     0.382 C 
ATOM     23  O   LIG d   1      -2.200  82.272 112.665  0.00  0.00    -0.241 OA
ATOM     24  O   LIG d   1      -0.146  81.934 113.241  0.00  0.00    -0.241 OA
ENDBRANCH   3  22
TORSDOF 7
ENDMDL
MODEL 8
REMARK VINA RESULT:      -4.5      2.408      4.522
REMARK  7 active torsions:
REMARK  status: ('A' for Active; 'I' for Inactive)
REMARK    1  A    between atoms: C_2  and  C_3 
REMARK    2  A    between atoms: C_3  and  O_6 
REMARK    3  A    between atoms: C_3  and  C_4 
REMARK    4  A    between atoms: C_7  and  O_6 
REMARK    5  A    between atoms: C_9  and  C_10 
REMARK    6  A    between atoms: N_15  and  C_14 
REMARK    7  A    between atoms: N_20  and  C_19 
REMARK       I    between atoms: C_22  and  N_20 
ROOT
ATOM      1  C   LIG d   1      -2.824  77.950 115.353  0.00  0.00     0.161 C 
ATOM      2  C   LIG d   1      -2.528  78.762 114.245  0.00  0.00     0.016 C 
ATOM      3  C   LIG d   1      -2.529  80.175 114.293  0.00  0.00     0.038 C 
ATOM      4  C   LIG d   1      -2.680  80.876 115.499  0.00  0.00     0.028 C 
ATOM      5  C   LIG d   1      -3.481  80.112 116.547  0.00  0.00    -0.047 C 
ATOM      6  C   LIG d   1      -2.882  78.696 116.703  0.00  0.00     0.091 C 
ENDROOT
BRANCH   1   7
ATOM      7  O   LIG d   1      -1.886  76.858 115.424  0.00  0.00    -0.368 OA
BRANCH   7   8
ATOM      8  C   LIG d   1      -2.460  75.533 115.542  0.00  0.00     0.119 C 
BRANCH   8   9
ATOM      9  C   LIG d   1      -1.399  74.525 115.058  0.00  0.00     0.028 C 
ATOM     10  C   LIG d   1       0.033  75.069 115.195  0.00  0.00     0.006 C 
ENDBRANCH   8   9
BRANCH   8  11
ATOM     11  C   LIG d   1      -3.651  75.354 114.596  0.00  0.00     0.028 C 
ATOM     12  C   LIG d   1      -4.795  74.544 115.225  0.00  0.00     0.006 C 
ENDBRANCH   8  11
ENDBRANCH   7   8
ENDBRANCH   1   7
BRANCH   6  13
ATOM     13  N   LIG d   1      -3.658  77.853 117.649  0.00  0.00    -0.311 N 
ATOM     14  C   LIG d   1      -4.939  77.535 117.467  0.00  0.00     0.210 C 
ATOM     15  C   LIG d   1      -5.555  76.672 118.573  0.00  0.00     0.109 C 
ATOM     16  O   LIG d   1      -5.614  77.859 116.478  0.00  0.00    -0.276 OA
ATOM     17  H   LIG d   1      -3.179  77.521 118.464  0.00  0.00     0.149 HD
ENDBRANCH   6  13
BRANCH   5  18
ATOM     18  N   LIG d   1      -3.443  80.896 117.796  0.00  0.00     0.381 N 
ATOM     19  H   LIG d   1      -3.277  81.860 117.585  0.00  0.00    -0.090 HD
ATOM     20  H   LIG d   1      -2.686  80.563 118.366  0.00  0.00    -0.090 HD
ATOM     21  H   LIG d   1      -4.305  80.800 118.286  0.00  0.00    -0.090 HD
ENDBRANCH   5  18
BRANCH   3  22
ATOM     22  C   LIG d   1      -2.417  80.902 113.118  0.00  0.00     0.382 C 
ATOM     23  O   LIG d   1      -1.540  80.598 112.273  0.00  0.00    -0.241 OA
ATOM     24  O   LIG d   1      -3.153  81.885 112.911  0.00  0.00    -0.241 OA
ENDBRANCH   3  22
TORSDOF 7
ENDMDL
MODEL 9
REMARK VINA RESULT:      -4.3      1.797      2.296
REMARK  7 active torsions:
REMARK  status: ('A' for Active; 'I' for Inactive)
REMARK    1  A    between atoms: C_2  and  C_3 
REMARK    2  A    between atoms: C_3  and  O_6 
REMARK    3  A    between atoms: C_3  and  C_4 
REMARK    4  A    between atoms: C_7  and  O_6 
REMARK    5  A    between atoms: C_9  and  C_10 
REMARK    6  A    between atoms: N_15  and  C_14 
REMARK    7  A    between atoms: N_20  and  C_19 
REMARK       I    between atoms: C_22  and  N_20 
ROOT
ATOM      1  C   LIG d   1      -1.646  79.224 115.874  0.00  0.00     0.161 C 
ATOM      2  C   LIG d   1      -2.118  80.403 115.275  0.00  0.00     0.016 C 
ATOM      3  C   LIG d   1      -2.287  80.553 113.879  0.00  0.00     0.038 C 
ATOM      4  C   LIG d   1      -2.137  79.475 112.994  0.00  0.00     0.028 C 
ATOM      5  C   LIG d   1      -1.175  78.405 113.500  0.00  0.00    -0.047 C 
ATOM      6  C   LIG d   1      -1.583  78.001 114.935  0.00  0.00     0.091 C 
ENDROOT
BRANCH   1   7
ATOM      7  O   LIG d   1      -2.435  78.919 117.041  0.00  0.00    -0.368 OA
BRANCH   7   8
ATOM      8  C   LIG d   1      -3.800  79.406 117.032  0.00  0.00     0.119 C 
BRANCH   8   9
ATOM      9  C   LIG d   1      -3.942  80.406 118.196  0.00  0.00     0.028 C 
ATOM     10  C   LIG d   1      -2.944  80.130 119.333  0.00  0.00     0.006 C 
ENDBRANCH   8   9
BRANCH   8  11
ATOM     11  C   LIG d   1      -4.794  78.282 117.340  0.00  0.00     0.028 C 
ATOM     12  C   LIG d   1      -4.632  77.071 116.407  0.00  0.00     0.006 C 
ENDBRANCH   8  11
ENDBRANCH   7   8
ENDBRANCH   1   7
BRANCH   6  13
ATOM     13  N   LIG d   1      -0.644  77.019 115.536  0.00  0.00    -0.311 N 
ATOM     14  C   LIG d   1      -0.768  75.701 115.391  0.00  0.00     0.210 C 
ATOM     15  C   LIG d   1       0.297  74.868 116.110  0.00  0.00     0.109 C 
ATOM     16  O   LIG d   1      -1.641  75.144 114.708  0.00  0.00    -0.276 OA
ATOM     17  H   LIG d   1       0.112  77.386 116.081  0.00  0.00     0.149 HD
ENDBRANCH   6  13
BRANCH   5  18
ATOM     18  N   LIG d   1      -1.220  77.280 112.547  0.00  0.00     0.381 N 
ATOM     19  H   LIG d   1      -2.162  76.961 112.444  0.00  0.00    -0.090 HD
ATOM     20  H   LIG d   1      -0.669  76.523 112.913  0.00  0.00    -0.090 HD
ATOM     21  H   LIG d   1      -0.859  77.566 111.664  0.00  0.00    -0.090 HD
ENDBRANCH   5  18
BRANCH   3  22
ATOM     22  C   LIG d   1      -2.570  81.804 113.351  0.00  0.00     0.382 C 
ATOM     23  O   LIG d   1      -3.649  82.375 113.639  0.00  0.00    -0.241 OA
ATOM     24  O   LIG d   1      -1.781  82.348 112.556  0.00  0.00    -0.241 OA
ENDBRANCH   3  22
TORSDOF 7
ENDMDL
