MODEL 1
REMARK VINA RESULT:      -5.0      0.000      0.000
REMARK  7 active torsions:
REMARK  status: ('A' for Active; 'I' for Inactive)
REMARK    1  A    between atoms: C_2  and  C_3 
REMARK    2  A    between atoms: C_3  and  O_6 
REMARK    3  A    between atoms: C_3  and  C_4 
REMARK    4  A    between atoms: C_7  and  O_6 
REMARK    5  A    between atoms: C_9  and  C_10 
REMARK    6  A    between atoms: N_15  and  C_14 
REMARK    7  A    between atoms: N_20  and  C_19 
REMARK       I    between atoms: C_22  and  N_20 
ROOT
ATOM      1  C   LIG d   1      -2.715  77.998 116.115  0.00  0.00     0.161 C 
ATOM      2  C   LIG d   1      -3.023  78.804 115.007  0.00  0.00     0.016 C 
ATOM      3  C   LIG d   1      -2.367  78.695 113.759  0.00  0.00     0.038 C 
ATOM      4  C   LIG d   1      -1.457  77.663 113.488  0.00  0.00     0.028 C 
ATOM      5  C   LIG d   1      -0.746  77.140 114.731  0.00  0.00    -0.047 C 
ATOM      6  C   LIG d   1      -1.802  76.793 115.805  0.00  0.00     0.091 C 
ENDROOT
BRANCH   1   7
ATOM      7  O   LIG d   1      -3.931  77.554 116.750  0.00  0.00    -0.368 OA
BRANCH   7   8
ATOM      8  C   LIG d   1      -4.976  77.082 115.865  0.00  0.00     0.119 C 
BRANCH   8   9
ATOM      9  C   LIG d   1      -6.328  77.428 116.519  0.00  0.00     0.028 C 
ATOM     10  C   LIG d   1      -7.198  76.183 116.763  0.00  0.00     0.006 C 
ENDBRANCH   8   9
BRANCH   8  11
ATOM     11  C   LIG d   1      -4.960  75.555 115.750  0.00  0.00     0.028 C 
ATOM     12  C   LIG d   1      -4.794  75.068 114.302  0.00  0.00     0.006 C 
ENDBRANCH   8  11
ENDBRANCH   7   8
ENDBRANCH   1   7
BRANCH   6  13
ATOM     13  N   LIG d   1      -1.187  76.353 117.084  0.00  0.00    -0.311 N 
ATOM     14  C   LIG d   1      -1.293  75.114 117.561  0.00  0.00     0.210 C 
ATOM     15  C   LIG d   1      -0.600  74.878 118.907  0.00  0.00     0.109 C 
ATOM     16  O   LIG d   1      -1.868  74.180 116.981  0.00  0.00    -0.276 OA
ATOM     17  H   LIG d   1      -0.676  77.040 117.604  0.00  0.00     0.149 HD
ENDBRANCH   6  13
BRANCH   5  18
ATOM     18  N   LIG d   1       0.069  75.980 114.324  0.00  0.00     0.381 N 
ATOM     19  H   LIG d   1       0.226  75.383 115.112  0.00  0.00    -0.090 HD
ATOM     20  H   LIG d   1       0.959  76.307 113.994  0.00  0.00    -0.090 HD
ATOM     21  H   LIG d   1      -0.396  75.474 113.603  0.00  0.00    -0.090 HD
ENDBRANCH   5  18
BRANCH   3  22
ATOM     22  C   LIG d   1      -2.592  79.650 112.779  0.00  0.00     0.382 C 
ATOM     23  O   LIG d   1      -3.292  80.659 113.036  0.00  0.00    -0.241 OA
ATOM     24  O   LIG d   1      -2.140  79.494 111.629  0.00  0.00    -0.241 OA
ENDBRANCH   3  22
TORSDOF 7
ENDMDL
MODEL 2
REMARK VINA RESULT:      -4.9      1.728      2.566
REMARK  7 active torsions:
REMARK  status: ('A' for Active; 'I' for Inactive)
REMARK    1  A    between atoms: C_2  and  C_3 
REMARK    2  A    between atoms: C_3  and  O_6 
REMARK    3  A    between atoms: C_3  and  C_4 
REMARK    4  A    between atoms: C_7  and  O_6 
REMARK    5  A    between atoms: C_9  and  C_10 
REMARK    6  A    between atoms: N_15  and  C_14 
REMARK    7  A    between atoms: N_20  and  C_19 
REMARK       I    between atoms: C_22  and  N_20 
ROOT
ATOM      1  C   LIG d   1      -3.015  78.666 115.530  0.00  0.00     0.161 C 
ATOM      2  C   LIG d   1      -3.176  79.641 114.531  0.00  0.00     0.016 C 
ATOM      3  C   LIG d   1      -2.494  79.606 113.293  0.00  0.00     0.038 C 
ATOM      4  C   LIG d   1      -1.714  78.505 112.907  0.00  0.00     0.028 C 
ATOM      5  C   LIG d   1      -1.123  77.739 114.086  0.00  0.00    -0.047 C 
ATOM      6  C   LIG d   1      -2.254  77.400 115.083  0.00  0.00     0.091 C 
ENDROOT
BRANCH   1   7
ATOM      7  O   LIG d   1      -4.301  78.311 116.077  0.00  0.00    -0.368 OA
BRANCH   7   8
ATOM      8  C   LIG d   1      -4.659  78.946 117.329  0.00  0.00     0.119 C 
BRANCH   8   9
ATOM      9  C   LIG d   1      -4.531  77.886 118.440  0.00  0.00     0.028 C 
ATOM     10  C   LIG d   1      -3.324  78.141 119.358  0.00  0.00     0.006 C 
ENDBRANCH   8   9
BRANCH   8  11
ATOM     11  C   LIG d   1      -6.131  79.369 117.338  0.00  0.00     0.028 C 
ATOM     12  C   LIG d   1      -6.320  80.862 117.647  0.00  0.00     0.006 C 
ENDBRANCH   8  11
ENDBRANCH   7   8
ENDBRANCH   1   7
BRANCH   6  13
ATOM     13  N   LIG d   1      -1.749  76.724 116.306  0.00  0.00    -0.311 N 
ATOM     14  C   LIG d   1      -2.214  75.555 116.742  0.00  0.00     0.210 C 
ATOM     15  C   LIG d   1      -1.569  75.043 118.033  0.00  0.00     0.109 C 
ATOM     16  O   LIG d   1      -3.078  74.877 116.164  0.00  0.00    -0.276 OA
ATOM     17  H   LIG d   1      -1.026  77.189 116.818  0.00  0.00     0.149 HD
ENDBRANCH   6  13
BRANCH   5  18
ATOM     18  N   LIG d   1      -0.451  76.541 113.546  0.00  0.00     0.381 N 
ATOM     19  H   LIG d   1       0.540  76.633 113.652  0.00  0.00    -0.090 HD
ATOM     20  H   LIG d   1      -0.657  76.466 112.566  0.00  0.00    -0.090 HD
ATOM     21  H   LIG d   1      -0.769  75.727 114.024  0.00  0.00    -0.090 HD
ENDBRANCH   5  18
BRANCH   3  22
ATOM     22  C   LIG d   1      -2.556  80.699 112.443  0.00  0.00     0.382 C 
ATOM     23  O   LIG d   1      -1.547  81.034 111.777  0.00  0.00    -0.241 OA
ATOM     24  O   LIG d   1      -3.596  81.381 112.367  0.00  0.00    -0.241 OA
ENDBRANCH   3  22
TORSDOF 7
ENDMDL
MODEL 3
REMARK VINA RESULT:      -4.8      1.906      4.897
REMARK  7 active torsions:
REMARK  status: ('A' for Active; 'I' for Inactive)
REMARK    1  A    between atoms: C_2  and  C_3 
REMARK    2  A    between atoms: C_3  and  O_6 
REMARK    3  A    between atoms: C_3  and  C_4 
REMARK    4  A    between atoms: C_7  and  O_6 
REMARK    5  A    between atoms: C_9  and  C_10 
REMARK    6  A    between atoms: N_15  and  C_14 
REMARK    7  A    between atoms: N_20  and  C_19 
REMARK       I    between atoms: C_22  and  N_20 
ROOT
ATOM      1  C   LIG d   1      -1.939  75.726 114.863  0.00  0.00     0.161 C 
ATOM      2  C   LIG d   1      -1.718  75.285 116.179  0.00  0.00     0.016 C 
ATOM      3  C   LIG d   1      -1.035  76.051 117.152  0.00  0.00     0.038 C 
ATOM      4  C   LIG d   1      -0.658  77.381 116.917  0.00  0.00     0.028 C 
ATOM      5  C   LIG d   1      -0.412  77.691 115.444  0.00  0.00    -0.047 C 
ATOM      6  C   LIG d   1      -1.633  77.219 114.622  0.00  0.00     0.091 C 
ENDROOT
BRANCH   1   7
ATOM      7  O   LIG d   1      -3.291  75.422 114.467  0.00  0.00    -0.368 OA
BRANCH   7   8
ATOM      8  C   LIG d   1      -4.292  75.491 115.512  0.00  0.00     0.119 C 
BRANCH   8   9
ATOM      9  C   LIG d   1      -5.232  74.282 115.334  0.00  0.00     0.028 C 
ATOM     10  C   LIG d   1      -6.276  74.180 116.459  0.00  0.00     0.006 C 
ENDBRANCH   8   9
BRANCH   8  11
ATOM     11  C   LIG d   1      -5.184  76.725 115.348  0.00  0.00     0.028 C 
ATOM     12  C   LIG d   1      -4.856  77.836 116.358  0.00  0.00     0.006 C 
ENDBRANCH   8  11
ENDBRANCH   7   8
ENDBRANCH   1   7
BRANCH   6  13
ATOM     13  N   LIG d   1      -1.439  77.407 113.160  0.00  0.00    -0.311 N 
ATOM     14  C   LIG d   1      -2.318  78.032 112.379  0.00  0.00     0.210 C 
ATOM     15  C   LIG d   1      -1.933  78.099 110.897  0.00  0.00     0.109 C 
ATOM     16  O   LIG d   1      -3.364  78.566 112.777  0.00  0.00    -0.276 OA
ATOM     17  H   LIG d   1      -0.601  77.033 112.759  0.00  0.00     0.149 HD
ENDBRANCH   6  13
BRANCH   5  18
ATOM     18  N   LIG d   1      -0.161  79.140 115.329  0.00  0.00     0.381 N 
ATOM     19  H   LIG d   1      -0.493  79.471 114.445  0.00  0.00    -0.090 HD
ATOM     20  H   LIG d   1       0.829  79.303 115.375  0.00  0.00    -0.090 HD
ATOM     21  H   LIG d   1      -0.621  79.625 116.067  0.00  0.00    -0.090 HD
ENDBRANCH   5  18
BRANCH   3  22
ATOM     22  C   LIG d   1      -0.688  75.472 118.363  0.00  0.00     0.382 C 
ATOM     23  O   LIG d   1      -0.211  76.179 119.282  0.00  0.00    -0.241 OA
ATOM     24  O   LIG d   1      -0.804  74.243 118.532  0.00  0.00    -0.241 OA
ENDBRANCH   3  22
TORSDOF 7
ENDMDL
MODEL 4
REMARK VINA RESULT:      -4.7      1.355      1.963
REMARK  7 active torsions:
REMARK  status: ('A' for Active; 'I' for Inactive)
REMARK    1  A    between atoms: C_2  and  C_3 
REMARK    2  A    between atoms: C_3  and  O_6 
REMARK    3  A    between atoms: C_3  and  C_4 
REMARK    4  A    between atoms: C_7  and  O_6 
REMARK    5  A    between atoms: C_9  and  C_10 
REMARK    6  A    between atoms: N_15  and  C_14 
REMARK    7  A    between atoms: N_20  and  C_19 
REMARK       I    between atoms: C_22  and  N_20 
ROOT
ATOM      1  C   LIG d   1      -3.137  78.399 115.248  0.00  0.00     0.161 C 
ATOM      2  C   LIG d   1      -3.149  78.489 113.846  0.00  0.00     0.016 C 
ATOM      3  C   LIG d   1      -2.145  77.931 113.022  0.00  0.00     0.038 C 
ATOM      4  C   LIG d   1      -1.133  77.109 113.539  0.00  0.00     0.028 C 
ATOM      5  C   LIG d   1      -0.795  77.408 114.996  0.00  0.00    -0.047 C 
ATOM      6  C   LIG d   1      -2.101  77.411 115.824  0.00  0.00     0.091 C 
ENDROOT
BRANCH   1   7
ATOM      7  O   LIG d   1      -4.457  78.077 115.728  0.00  0.00    -0.368 OA
BRANCH   7   8
ATOM      8  C   LIG d   1      -4.695  76.685 116.052  0.00  0.00     0.119 C 
BRANCH   8   9
ATOM      9  C   LIG d   1      -5.626  76.110 114.966  0.00  0.00     0.028 C 
ATOM     10  C   LIG d   1      -4.905  75.111 114.044  0.00  0.00     0.006 C 
ENDBRANCH   8   9
BRANCH   8  11
ATOM     11  C   LIG d   1      -5.469  76.543 117.366  0.00  0.00     0.028 C 
ATOM     12  C   LIG d   1      -6.820  75.832 117.188  0.00  0.00     0.006 C 
ENDBRANCH   8  11
ENDBRANCH   7   8
ENDBRANCH   1   7
BRANCH   6  13
ATOM     13  N   LIG d   1      -1.870  77.779 117.245  0.00  0.00    -0.311 N 
ATOM     14  C   LIG d   1      -1.697  76.883 118.215  0.00  0.00     0.210 C 
ATOM     15  C   LIG d   1      -1.494  77.476 119.613  0.00  0.00     0.109 C 
ATOM     16  O   LIG d   1      -1.659  75.655 118.046  0.00  0.00    -0.276 OA
ATOM     17  H   LIG d   1      -1.854  78.755 117.467  0.00  0.00     0.149 HD
ENDBRANCH   6  13
BRANCH   5  18
ATOM     18  N   LIG d   1       0.173  76.391 115.447  0.00  0.00     0.381 N 
ATOM     19  H   LIG d   1       1.104  76.743 115.352  0.00  0.00    -0.090 HD
ATOM     20  H   LIG d   1       0.083  75.576 114.866  0.00  0.00    -0.090 HD
ATOM     21  H   LIG d   1      -0.003  76.150 116.398  0.00  0.00    -0.090 HD
ENDBRANCH   5  18
BRANCH   3  22
ATOM     22  C   LIG d   1      -2.124  78.227 111.667  0.00  0.00     0.382 C 
ATOM     23  O   LIG d   1      -1.675  79.330 111.273  0.00  0.00    -0.241 OA
ATOM     24  O   LIG d   1      -2.590  77.423 110.838  0.00  0.00    -0.241 OA
ENDBRANCH   3  22
TORSDOF 7
ENDMDL
MODEL 5
REMARK VINA RESULT:      -4.6      2.890      4.117
REMARK  7 active torsions:
REMARK  status: ('A' for Active; 'I' for Inactive)
REMARK    1  A    between atoms: C_2  and  C_3 
REMARK    2  A    between atoms: C_3  and  O_6 
REMARK    3  A    between atoms: C_3  and  C_4 
REMARK    4  A    between atoms: C_7  and  O_6 
REMARK    5  A    between atoms: C_9  and  C_10 
REMARK    6  A    between atoms: N_15  and  C_14 
REMARK    7  A    between atoms: N_20  and  C_19 
REMARK       I    between atoms: C_22  and  N_20 
ROOT
ATOM      1  C   LIG d   1      -5.295  77.820 116.843  0.00  0.00     0.161 C 
ATOM      2  C   LIG d   1      -6.032  79.005 117.000  0.00  0.00     0.016 C 
ATOM      3  C   LIG d   1      -5.562  80.123 117.728  0.00  0.00     0.038 C 
ATOM      4  C   LIG d   1      -4.252  80.187 118.225  0.00  0.00     0.028 C 
ATOM      5  C   LIG d   1      -3.651  78.818 118.526  0.00  0.00    -0.047 C 
ATOM      6  C   LIG d   1      -3.819  77.913 117.285  0.00  0.00     0.091 C 
ENDROOT
BRANCH   1   7
ATOM      7  O   LIG d   1      -5.382  77.367 115.478  0.00  0.00    -0.368 OA
BRANCH   7   8
ATOM      8  C   LIG d   1      -6.178  76.178 115.250  0.00  0.00     0.119 C 
BRANCH   8   9
ATOM      9  C   LIG d   1      -6.851  75.808 116.587  0.00  0.00     0.028 C 
ATOM     10  C   LIG d   1      -6.708  74.314 116.923  0.00  0.00     0.006 C 
ENDBRANCH   8   9
BRANCH   8  11
ATOM     11  C   LIG d   1      -5.296  74.976 114.895  0.00  0.00     0.028 C 
ATOM     12  C   LIG d   1      -3.991  75.382 114.193  0.00  0.00     0.006 C 
ENDBRANCH   8  11
ENDBRANCH   7   8
ENDBRANCH   1   7
BRANCH   6  13
ATOM     13  N   LIG d   1      -3.333  76.528 117.523  0.00  0.00    -0.311 N 
ATOM     14  C   LIG d   1      -2.110  76.114 117.194  0.00  0.00     0.210 C 
ATOM     15  C   LIG d   1      -1.820  74.643 117.509  0.00  0.00     0.109 C 
ATOM     16  O   LIG d   1      -1.228  76.833 116.701  0.00  0.00    -0.276 OA
ATOM     17  H   LIG d   1      -3.973  75.887 117.948  0.00  0.00     0.149 HD
ENDBRANCH   6  13
BRANCH   5  18
ATOM     18  N   LIG d   1      -2.240  79.025 118.905  0.00  0.00     0.381 N 
ATOM     19  H   LIG d   1      -1.907  79.883 118.513  0.00  0.00    -0.090 HD
ATOM     20  H   LIG d   1      -1.690  78.272 118.531  0.00  0.00    -0.090 HD
ATOM     21  H   LIG d   1      -2.154  79.048 119.897  0.00  0.00    -0.090 HD
ENDBRANCH   5  18
BRANCH   3  22
ATOM     22  C   LIG d   1      -6.422  81.177 117.999  0.00  0.00     0.382 C 
ATOM     23  O   LIG d   1      -6.599  81.553 119.182  0.00  0.00    -0.241 OA
ATOM     24  O   LIG d   1      -7.057  81.727 117.079  0.00  0.00    -0.241 OA
ENDBRANCH   3  22
TORSDOF 7
ENDMDL
MODEL 6
REMARK VINA RESULT:      -4.5      3.010      4.785
REMARK  7 active torsions:
REMARK  status: ('A' for Active; 'I' for Inactive)
REMARK    1  A    between atoms: C_2  and  C_3 
REMARK    2  A    between atoms: C_3  and  O_6 
REMARK    3  A    between atoms: C_3  and  C_4 
REMARK    4  A    between atoms: C_7  and  O_6 
REMARK    5  A    between atoms: C_9  and  C_10 
REMARK    6  A    between atoms: N_15  and  C_14 
REMARK    7  A    between atoms: N_20  and  C_19 
REMARK       I    between atoms: C_22  and  N_20 
ROOT
ATOM      1  C   LIG d   1      -4.653  77.983 116.406  0.00  0.00     0.161 C 
ATOM      2  C   LIG d   1      -3.637  78.050 115.437  0.00  0.00     0.016 C 
ATOM      3  C   LIG d   1      -3.191  76.930 114.698  0.00  0.00     0.038 C 
ATOM      4  C   LIG d   1      -3.839  75.688 114.770  0.00  0.00     0.028 C 
ATOM      5  C   LIG d   1      -4.541  75.448 116.103  0.00  0.00    -0.047 C 
ATOM      6  C   LIG d   1      -5.447  76.660 116.419  0.00  0.00     0.091 C 
ENDROOT
BRANCH   1   7
ATOM      7  O   LIG d   1      -5.547  79.103 116.254  0.00  0.00    -0.368 OA
BRANCH   7   8
ATOM      8  C   LIG d   1      -5.421  80.157 117.240  0.00  0.00     0.119 C 
BRANCH   8   9
ATOM      9  C   LIG d   1      -4.536  79.620 118.381  0.00  0.00     0.028 C 
ATOM     10  C   LIG d   1      -3.408  80.596 118.758  0.00  0.00     0.006 C 
ENDBRANCH   8   9
BRANCH   8  11
ATOM     11  C   LIG d   1      -6.771  80.476 117.890  0.00  0.00     0.028 C 
ATOM     12  C   LIG d   1      -6.933  81.967 118.225  0.00  0.00     0.006 C 
ENDBRANCH   8  11
ENDBRANCH   7   8
ENDBRANCH   1   7
BRANCH   6  13
ATOM     13  N   LIG d   1      -6.106  76.544 117.746  0.00  0.00    -0.311 N 
ATOM     14  C   LIG d   1      -7.427  76.486 117.906  0.00  0.00     0.210 C 
ATOM     15  C   LIG d   1      -7.899  76.389 119.360  0.00  0.00     0.109 C 
ATOM     16  O   LIG d   1      -8.252  76.472 116.979  0.00  0.00    -0.276 OA
ATOM     17  H   LIG d   1      -5.510  76.517 118.550  0.00  0.00     0.149 HD
ENDBRANCH   6  13
BRANCH   5  18
ATOM     18  N   LIG d   1      -5.288  74.181 115.991  0.00  0.00     0.381 N 
ATOM     19  H   LIG d   1      -4.908  73.628 115.249  0.00  0.00    -0.090 HD
ATOM     20  H   LIG d   1      -6.247  74.387 115.771  0.00  0.00    -0.090 HD
ATOM     21  H   LIG d   1      -5.238  73.678 116.850  0.00  0.00    -0.090 HD
ENDBRANCH   5  18
BRANCH   3  22
ATOM     22  C   LIG d   1      -2.059  77.037 113.904  0.00  0.00     0.382 C 
ATOM     23  O   LIG d   1      -2.172  77.087 112.656  0.00  0.00    -0.241 OA
ATOM     24  O   LIG d   1      -0.925  77.040 114.419  0.00  0.00    -0.241 OA
ENDBRANCH   3  22
TORSDOF 7
ENDMDL
MODEL 7
REMARK VINA RESULT:      -4.4      3.208      5.110
REMARK  7 active torsions:
REMARK  status: ('A' for Active; 'I' for Inactive)
REMARK    1  A    between atoms: C_2  and  C_3 
REMARK    2  A    between atoms: C_3  and  O_6 
REMARK    3  A    between atoms: C_3  and  C_4 
REMARK    4  A    between atoms: C_7  and  O_6 
REMARK    5  A    between atoms: C_9  and  C_10 
REMARK    6  A    between atoms: N_15  and  C_14 
REMARK    7  A    between atoms: N_20  and  C_19 
REMARK       I    between atoms: C_22  and  N_20 
ROOT
ATOM      1  C   LIG d   1      -6.168  77.502 117.148  0.00  0.00     0.161 C 
ATOM      2  C   LIG d   1      -6.186  76.667 116.019  0.00  0.00     0.016 C 
ATOM      3  C   LIG d   1      -5.095  76.537 115.129  0.00  0.00     0.038 C 
ATOM      4  C   LIG d   1      -3.848  77.122 115.396  0.00  0.00     0.028 C 
ATOM      5  C   LIG d   1      -3.939  78.378 116.256  0.00  0.00    -0.047 C 
ATOM      6  C   LIG d   1      -4.778  78.062 117.516  0.00  0.00     0.091 C 
ENDROOT
BRANCH   1   7
ATOM      7  O   LIG d   1      -6.744  76.813 118.275  0.00  0.00    -0.368 OA
BRANCH   7   8
ATOM      8  C   LIG d   1      -7.837  77.488 118.945  0.00  0.00     0.119 C 
BRANCH   8   9
ATOM      9  C   LIG d   1      -8.649  76.419 119.701  0.00  0.00     0.028 C 
ATOM     10  C   LIG d   1      -7.847  75.126 119.930  0.00  0.00     0.006 C 
ENDBRANCH   8   9
BRANCH   8  11
ATOM     11  C   LIG d   1      -8.814  78.102 117.938  0.00  0.00     0.028 C 
ATOM     12  C   LIG d   1      -9.391  79.446 118.410  0.00  0.00     0.006 C 
ENDBRANCH   8  11
ENDBRANCH   7   8
ENDBRANCH   1   7
BRANCH   6  13
ATOM     13  N   LIG d   1      -4.988  79.259 118.372  0.00  0.00    -0.311 N 
ATOM     14  C   LIG d   1      -5.652  80.341 117.969  0.00  0.00     0.210 C 
ATOM     15  C   LIG d   1      -5.735  81.471 119.000  0.00  0.00     0.109 C 
ATOM     16  O   LIG d   1      -6.207  80.461 116.866  0.00  0.00    -0.276 OA
ATOM     17  H   LIG d   1      -4.597  79.236 119.293  0.00  0.00     0.149 HD
ENDBRANCH   6  13
BRANCH   5  18
ATOM     18  N   LIG d   1      -2.562  78.804 116.571  0.00  0.00     0.381 N 
ATOM     19  H   LIG d   1      -2.571  79.426 117.354  0.00  0.00    -0.090 HD
ATOM     20  H   LIG d   1      -2.186  79.297 115.780  0.00  0.00    -0.090 HD
ATOM     21  H   LIG d   1      -1.998  78.009 116.775  0.00  0.00    -0.090 HD
ENDBRANCH   5  18
BRANCH   3  22
ATOM     22  C   LIG d   1      -5.257  75.847 113.938  0.00  0.00     0.382 C 
ATOM     23  O   LIG d   1      -5.875  76.379 112.984  0.00  0.00    -0.241 OA
ATOM     24  O   LIG d   1      -4.833  74.681 113.820  0.00  0.00    -0.241 OA
ENDBRANCH   3  22
TORSDOF 7
ENDMDL
MODEL 8
REMARK VINA RESULT:      -4.2      3.108      5.554
REMARK  7 active torsions:
REMARK  status: ('A' for Active; 'I' for Inactive)
REMARK    1  A    between atoms: C_2  and  C_3 
REMARK    2  A    between atoms: C_3  and  O_6 
REMARK    3  A    between atoms: C_3  and  C_4 
REMARK    4  A    between atoms: C_7  and  O_6 
REMARK    5  A    between atoms: C_9  and  C_10 
REMARK    6  A    between atoms: N_15  and  C_14 
REMARK    7  A    between atoms: N_20  and  C_19 
REMARK       I    between atoms: C_22  and  N_20 
ROOT
ATOM      1  C   LIG d   1      -4.580  78.566 116.768  0.00  0.00     0.161 C 
ATOM      2  C   LIG d   1      -5.061  79.852 117.066  0.00  0.00     0.016 C 
ATOM      3  C   LIG d   1      -6.341  80.097 117.613  0.00  0.00     0.038 C 
ATOM      4  C   LIG d   1      -7.175  79.054 118.044  0.00  0.00     0.028 C 
ATOM      5  C   LIG d   1      -6.941  77.745 117.299  0.00  0.00    -0.047 C 
ATOM      6  C   LIG d   1      -5.432  77.411 117.334  0.00  0.00     0.091 C 
ENDROOT
BRANCH   1   7
ATOM      7  O   LIG d   1      -3.213  78.442 117.206  0.00  0.00    -0.368 OA
BRANCH   7   8
ATOM      8  C   LIG d   1      -2.239  78.139 116.177  0.00  0.00     0.119 C 
BRANCH   8   9
ATOM      9  C   LIG d   1      -1.022  79.057 116.407  0.00  0.00     0.028 C 
ATOM     10  C   LIG d   1      -1.225  80.015 117.592  0.00  0.00     0.006 C 
ENDBRANCH   8   9
BRANCH   8  11
ATOM     11  C   LIG d   1      -2.766  78.504 114.786  0.00  0.00     0.028 C 
ATOM     12  C   LIG d   1      -2.319  77.512 113.701  0.00  0.00     0.006 C 
ENDBRANCH   8  11
ENDBRANCH   7   8
ENDBRANCH   1   7
BRANCH   6  13
ATOM     13  N   LIG d   1      -5.104  76.188 116.556  0.00  0.00    -0.311 N 
ATOM     14  C   LIG d   1      -5.422  76.028 115.272  0.00  0.00     0.210 C 
ATOM     15  C   LIG d   1      -5.009  74.683 114.666  0.00  0.00     0.109 C 
ATOM     16  O   LIG d   1      -5.979  76.885 114.570  0.00  0.00    -0.276 OA
ATOM     17  H   LIG d   1      -4.625  75.454 117.040  0.00  0.00     0.149 HD
ENDBRANCH   6  13
BRANCH   5  18
ATOM     18  N   LIG d   1      -7.777  76.712 117.940  0.00  0.00     0.381 N 
ATOM     19  H   LIG d   1      -8.609  77.129 118.306  0.00  0.00    -0.090 HD
ATOM     20  H   LIG d   1      -7.265  76.307 118.704  0.00  0.00    -0.090 HD
ATOM     21  H   LIG d   1      -8.013  76.005 117.278  0.00  0.00    -0.090 HD
ENDBRANCH   5  18
BRANCH   3  22
ATOM     22  C   LIG d   1      -6.815  81.397 117.698  0.00  0.00     0.382 C 
ATOM     23  O   LIG d   1      -7.637  81.822 116.850  0.00  0.00    -0.241 OA
ATOM     24  O   LIG d   1      -6.398  82.165 118.586  0.00  0.00    -0.241 OA
ENDBRANCH   3  22
TORSDOF 7
ENDMDL
MODEL 9
REMARK VINA RESULT:      -4.1      3.076      4.191
REMARK  7 active torsions:
REMARK  status: ('A' for Active; 'I' for Inactive)
REMARK    1  A    between atoms: C_2  and  C_3 
REMARK    2  A    between atoms: C_3  and  O_6 
REMARK    3  A    between atoms: C_3  and  C_4 
REMARK    4  A    between atoms: C_7  and  O_6 
REMARK    5  A    between atoms: C_9  and  C_10 
REMARK    6  A    between atoms: N_15  and  C_14 
REMARK    7  A    between atoms: N_20  and  C_19 
REMARK       I    between atoms: C_22  and  N_20 
ROOT
ATOM      1  C   LIG d   1      -5.036  77.820 118.735  0.00  0.00     0.161 C 
ATOM      2  C   LIG d   1      -5.764  79.021 118.733  0.00  0.00     0.016 C 
ATOM      3  C   LIG d   1      -5.579  80.041 117.772  0.00  0.00     0.038 C 
ATOM      4  C   LIG d   1      -4.754  79.864 116.652  0.00  0.00     0.028 C 
ATOM      5  C   LIG d   1      -3.620  78.871 116.886  0.00  0.00    -0.047 C 
ATOM      6  C   LIG d   1      -4.210  77.562 117.458  0.00  0.00     0.091 C 
ENDROOT
BRANCH   1   7
ATOM      7  O   LIG d   1      -5.921  76.712 118.992  0.00  0.00    -0.368 OA
BRANCH   7   8
ATOM      8  C   LIG d   1      -7.144  76.680 118.217  0.00  0.00     0.119 C 
BRANCH   8   9
ATOM      9  C   LIG d   1      -8.294  76.327 119.180  0.00  0.00     0.028 C 
ATOM     10  C   LIG d   1      -9.591  77.083 118.848  0.00  0.00     0.006 C 
ENDBRANCH   8   9
BRANCH   8  11
ATOM     11  C   LIG d   1      -7.120  75.551 117.182  0.00  0.00     0.028 C 
ATOM     12  C   LIG d   1      -7.014  76.067 115.739  0.00  0.00     0.006 C 
ENDBRANCH   8  11
ENDBRANCH   7   8
ENDBRANCH   1   7
BRANCH   6  13
ATOM     13  N   LIG d   1      -3.159  76.567 117.795  0.00  0.00    -0.311 N 
ATOM     14  C   LIG d   1      -2.761  75.609 116.959  0.00  0.00     0.210 C 
ATOM     15  C   LIG d   1      -1.679  74.676 117.512  0.00  0.00     0.109 C 
ATOM     16  O   LIG d   1      -3.178  75.463 115.800  0.00  0.00    -0.276 OA
ATOM     17  H   LIG d   1      -2.744  76.631 118.704  0.00  0.00     0.149 HD
ENDBRANCH   6  13
BRANCH   5  18
ATOM     18  N   LIG d   1      -2.923  78.679 115.600  0.00  0.00     0.381 N 
ATOM     19  H   LIG d   1      -3.551  78.862 114.844  0.00  0.00    -0.090 HD
ATOM     20  H   LIG d   1      -2.620  77.723 115.534  0.00  0.00    -0.090 HD
ATOM     21  H   LIG d   1      -2.137  79.289 115.544  0.00  0.00    -0.090 HD
ENDBRANCH   5  18
BRANCH   3  22
ATOM     22  C   LIG d   1      -6.195  81.271 117.948  0.00  0.00     0.382 C 
ATOM     23  O   LIG d   1      -6.895  81.759 117.028  0.00  0.00    -0.241 OA
ATOM     24  O   LIG d   1      -6.023  81.919 118.998  0.00  0.00    -0.241 OA
ENDBRANCH   3  22
TORSDOF 7
ENDMDL
