MODEL 1
REMARK VINA RESULT:      -5.3      0.000      0.000
REMARK  7 active torsions:
REMARK  status: ('A' for Active; 'I' for Inactive)
REMARK    1  A    between atoms: C_2  and  C_3 
REMARK    2  A    between atoms: C_3  and  O_6 
REMARK    3  A    between atoms: C_3  and  C_4 
REMARK    4  A    between atoms: C_7  and  O_6 
REMARK    5  A    between atoms: C_9  and  C_10 
REMARK    6  A    between atoms: N_15  and  C_14 
REMARK    7  A    between atoms: N_20  and  C_19 
REMARK       I    between atoms: C_22  and  N_20 
ROOT
ATOM      1  C   LIG d   1      -3.583  76.232 114.964  0.00  0.00     0.161 C 
ATOM      2  C   LIG d   1      -3.383  76.025 116.339  0.00  0.00     0.016 C 
ATOM      3  C   LIG d   1      -2.309  76.591 117.063  0.00  0.00     0.038 C 
ATOM      4  C   LIG d   1      -1.442  77.533 116.488  0.00  0.00     0.028 C 
ATOM      5  C   LIG d   1      -1.302  77.384 114.977  0.00  0.00    -0.047 C 
ATOM      6  C   LIG d   1      -2.712  77.345 114.344  0.00  0.00     0.091 C 
ENDROOT
BRANCH   1   7
ATOM      7  O   LIG d   1      -4.978  76.487 114.706  0.00  0.00    -0.368 OA
BRANCH   7   8
ATOM      8  C   LIG d   1      -5.700  75.436 114.017  0.00  0.00     0.119 C 
BRANCH   8   9
ATOM      9  C   LIG d   1      -6.762  76.112 113.127  0.00  0.00     0.028 C 
ATOM     10  C   LIG d   1      -6.205  76.509 111.749  0.00  0.00     0.006 C 
ENDBRANCH   8   9
BRANCH   8  11
ATOM     11  C   LIG d   1      -6.490  74.566 115.000  0.00  0.00     0.028 C 
ATOM     12  C   LIG d   1      -7.826  75.201 115.418  0.00  0.00     0.006 C 
ENDBRANCH   8  11
ENDBRANCH   7   8
ENDBRANCH   1   7
BRANCH   6  13
ATOM     13  N   LIG d   1      -2.668  77.117 112.876  0.00  0.00    -0.311 N 
ATOM     14  C   LIG d   1      -2.684  78.102 111.981  0.00  0.00     0.210 C 
ATOM     15  C   LIG d   1      -2.652  77.647 110.518  0.00  0.00     0.109 C 
ATOM     16  O   LIG d   1      -2.690  79.311 112.259  0.00  0.00    -0.276 OA
ATOM     17  H   LIG d   1      -2.631  76.167 112.563  0.00  0.00     0.149 HD
ENDBRANCH   6  13
BRANCH   5  18
ATOM     18  N   LIG d   1      -0.481  78.510 114.493  0.00  0.00     0.381 N 
ATOM     19  H   LIG d   1       0.487  78.260 114.520  0.00  0.00    -0.090 HD
ATOM     20  H   LIG d   1      -0.621  79.299 115.099  0.00  0.00    -0.090 HD
ATOM     21  H   LIG d   1      -0.744  78.748 113.561  0.00  0.00    -0.090 HD
ENDBRANCH   5  18
BRANCH   3  22
ATOM     22  C   LIG d   1      -2.070  76.186 118.367  0.00  0.00     0.382 C 
ATOM     23  O   LIG d   1      -1.376  75.165 118.589  0.00  0.00    -0.241 OA
ATOM     24  O   LIG d   1      -2.576  76.803 119.324  0.00  0.00    -0.241 OA
ENDBRANCH   3  22
TORSDOF 7
ENDMDL
MODEL 2
REMARK VINA RESULT:      -5.1      1.260      1.992
REMARK  7 active torsions:
REMARK  status: ('A' for Active; 'I' for Inactive)
REMARK    1  A    between atoms: C_2  and  C_3 
REMARK    2  A    between atoms: C_3  and  O_6 
REMARK    3  A    between atoms: C_3  and  C_4 
REMARK    4  A    between atoms: C_7  and  O_6 
REMARK    5  A    between atoms: C_9  and  C_10 
REMARK    6  A    between atoms: N_15  and  C_14 
REMARK    7  A    between atoms: N_20  and  C_19 
REMARK       I    between atoms: C_22  and  N_20 
ROOT
ATOM      1  C   LIG d   1      -2.092  75.961 114.060  0.00  0.00     0.161 C 
ATOM      2  C   LIG d   1      -2.236  75.612 115.413  0.00  0.00     0.016 C 
ATOM      3  C   LIG d   1      -1.889  76.473 116.480  0.00  0.00     0.038 C 
ATOM      4  C   LIG d   1      -1.513  77.807 116.264  0.00  0.00     0.028 C 
ATOM      5  C   LIG d   1      -0.871  78.042 114.901  0.00  0.00    -0.047 C 
ATOM      6  C   LIG d   1      -1.788  77.452 113.805  0.00  0.00     0.091 C 
ENDROOT
BRANCH   1   7
ATOM      7  O   LIG d   1      -3.262  75.555 113.323  0.00  0.00    -0.368 OA
BRANCH   7   8
ATOM      8  C   LIG d   1      -4.427  76.406 113.459  0.00  0.00     0.119 C 
BRANCH   8   9
ATOM      9  C   LIG d   1      -5.595  75.520 113.932  0.00  0.00     0.028 C 
ATOM     10  C   LIG d   1      -5.897  75.697 115.430  0.00  0.00     0.006 C 
ENDBRANCH   8   9
BRANCH   8  11
ATOM     11  C   LIG d   1      -4.868  76.967 112.103  0.00  0.00     0.028 C 
ATOM     12  C   LIG d   1      -6.284  76.522 111.706  0.00  0.00     0.006 C 
ENDBRANCH   8  11
ENDBRANCH   7   8
ENDBRANCH   1   7
BRANCH   6  13
ATOM     13  N   LIG d   1      -1.194  77.565 112.448  0.00  0.00    -0.311 N 
ATOM     14  C   LIG d   1      -1.460  78.567 111.612  0.00  0.00     0.210 C 
ATOM     15  C   LIG d   1      -0.757  78.480 110.253  0.00  0.00     0.109 C 
ATOM     16  O   LIG d   1      -2.185  79.537 111.879  0.00  0.00    -0.276 OA
ATOM     17  H   LIG d   1      -0.569  76.837 112.161  0.00  0.00     0.149 HD
ENDBRANCH   6  13
BRANCH   5  18
ATOM     18  N   LIG d   1      -0.655  79.494 114.754  0.00  0.00     0.381 N 
ATOM     19  H   LIG d   1      -1.427  79.993 115.150  0.00  0.00    -0.090 HD
ATOM     20  H   LIG d   1      -0.604  79.718 113.776  0.00  0.00    -0.090 HD
ATOM     21  H   LIG d   1       0.190  79.761 115.209  0.00  0.00    -0.090 HD
ENDBRANCH   5  18
BRANCH   3  22
ATOM     22  C   LIG d   1      -1.878  75.988 117.779  0.00  0.00     0.382 C 
ATOM     23  O   LIG d   1      -1.251  74.936 118.050  0.00  0.00    -0.241 OA
ATOM     24  O   LIG d   1      -2.525  76.564 118.674  0.00  0.00    -0.241 OA
ENDBRANCH   3  22
TORSDOF 7
ENDMDL
MODEL 3
REMARK VINA RESULT:      -5.1      2.034      4.877
REMARK  7 active torsions:
REMARK  status: ('A' for Active; 'I' for Inactive)
REMARK    1  A    between atoms: C_2  and  C_3 
REMARK    2  A    between atoms: C_3  and  O_6 
REMARK    3  A    between atoms: C_3  and  C_4 
REMARK    4  A    between atoms: C_7  and  O_6 
REMARK    5  A    between atoms: C_9  and  C_10 
REMARK    6  A    between atoms: N_15  and  C_14 
REMARK    7  A    between atoms: N_20  and  C_19 
REMARK       I    between atoms: C_22  and  N_20 
ROOT
ATOM      1  C   LIG d   1      -3.437  75.966 115.025  0.00  0.00     0.161 C 
ATOM      2  C   LIG d   1      -3.656  76.453 113.725  0.00  0.00     0.016 C 
ATOM      3  C   LIG d   1      -2.620  76.924 112.886  0.00  0.00     0.038 C 
ATOM      4  C   LIG d   1      -1.268  76.799 113.236  0.00  0.00     0.028 C 
ATOM      5  C   LIG d   1      -1.031  76.779 114.743  0.00  0.00    -0.047 C 
ATOM      6  C   LIG d   1      -1.957  75.719 115.382  0.00  0.00     0.091 C 
ENDROOT
BRANCH   1   7
ATOM      7  O   LIG d   1      -4.210  74.768 115.234  0.00  0.00    -0.368 OA
BRANCH   7   8
ATOM      8  C   LIG d   1      -5.340  74.887 116.134  0.00  0.00     0.119 C 
BRANCH   8   9
ATOM      9  C   LIG d   1      -6.600  74.465 115.353  0.00  0.00     0.028 C 
ATOM     10  C   LIG d   1      -7.380  75.671 114.803  0.00  0.00     0.006 C 
ENDBRANCH   8   9
BRANCH   8  11
ATOM     11  C   LIG d   1      -5.581  76.345 116.535  0.00  0.00     0.028 C 
ATOM     12  C   LIG d   1      -5.751  76.525 118.052  0.00  0.00     0.006 C 
ENDBRANCH   8  11
ENDBRANCH   7   8
ENDBRANCH   1   7
BRANCH   6  13
ATOM     13  N   LIG d   1      -1.850  75.693 116.864  0.00  0.00    -0.311 N 
ATOM     14  C   LIG d   1      -0.987  74.922 117.524  0.00  0.00     0.210 C 
ATOM     15  C   LIG d   1      -1.056  75.033 119.050  0.00  0.00     0.109 C 
ATOM     16  O   LIG d   1      -0.149  74.180 116.989  0.00  0.00    -0.276 OA
ATOM     17  H   LIG d   1      -2.471  76.287 117.377  0.00  0.00     0.149 HD
ENDBRANCH   6  13
BRANCH   5  18
ATOM     18  N   LIG d   1       0.401  76.507 114.966  0.00  0.00     0.381 N 
ATOM     19  H   LIG d   1       0.917  77.363 114.938  0.00  0.00    -0.090 HD
ATOM     20  H   LIG d   1       0.737  75.911 114.229  0.00  0.00    -0.090 HD
ATOM     21  H   LIG d   1       0.530  76.061 115.848  0.00  0.00    -0.090 HD
ENDBRANCH   5  18
BRANCH   3  22
ATOM     22  C   LIG d   1      -2.936  77.565 111.698  0.00  0.00     0.382 C 
ATOM     23  O   LIG d   1      -2.268  78.559 111.325  0.00  0.00    -0.241 OA
ATOM     24  O   LIG d   1      -3.909  77.188 111.016  0.00  0.00    -0.241 OA
ENDBRANCH   3  22
TORSDOF 7
ENDMDL
MODEL 4
REMARK VINA RESULT:      -5.0      2.345      5.400
REMARK  7 active torsions:
REMARK  status: ('A' for Active; 'I' for Inactive)
REMARK    1  A    between atoms: C_2  and  C_3 
REMARK    2  A    between atoms: C_3  and  O_6 
REMARK    3  A    between atoms: C_3  and  C_4 
REMARK    4  A    between atoms: C_7  and  O_6 
REMARK    5  A    between atoms: C_9  and  C_10 
REMARK    6  A    between atoms: N_15  and  C_14 
REMARK    7  A    between atoms: N_20  and  C_19 
REMARK       I    between atoms: C_22  and  N_20 
ROOT
ATOM      1  C   LIG d   1      -5.716  75.598 115.593  0.00  0.00     0.161 C 
ATOM      2  C   LIG d   1      -6.396  75.689 114.367  0.00  0.00     0.016 C 
ATOM      3  C   LIG d   1      -5.767  76.050 113.154  0.00  0.00     0.038 C 
ATOM      4  C   LIG d   1      -4.376  76.199 113.055  0.00  0.00     0.028 C 
ATOM      5  C   LIG d   1      -3.717  76.611 114.367  0.00  0.00    -0.047 C 
ATOM      6  C   LIG d   1      -4.178  75.649 115.485  0.00  0.00     0.091 C 
ENDROOT
BRANCH   1   7
ATOM      7  O   LIG d   1      -6.131  74.410 116.295  0.00  0.00    -0.368 OA
BRANCH   7   8
ATOM      8  C   LIG d   1      -7.063  74.606 117.387  0.00  0.00     0.119 C 
BRANCH   8   9
ATOM      9  C   LIG d   1      -8.458  74.183 116.887  0.00  0.00     0.028 C 
ATOM     10  C   LIG d   1      -9.561  75.157 117.333  0.00  0.00     0.006 C 
ENDBRANCH   8   9
BRANCH   8  11
ATOM     11  C   LIG d   1      -7.193  76.088 117.748  0.00  0.00     0.028 C 
ATOM     12  C   LIG d   1      -6.538  76.434 119.095  0.00  0.00     0.006 C 
ENDBRANCH   8  11
ENDBRANCH   7   8
ENDBRANCH   1   7
BRANCH   6  13
ATOM     13  N   LIG d   1      -3.646  76.032 116.819  0.00  0.00    -0.311 N 
ATOM     14  C   LIG d   1      -2.471  75.613 117.287  0.00  0.00     0.210 C 
ATOM     15  C   LIG d   1      -2.122  76.110 118.693  0.00  0.00     0.109 C 
ATOM     16  O   LIG d   1      -1.672  74.903 116.659  0.00  0.00    -0.276 OA
ATOM     17  H   LIG d   1      -4.216  76.632 117.382  0.00  0.00     0.149 HD
ENDBRANCH   6  13
BRANCH   5  18
ATOM     18  N   LIG d   1      -2.257  76.595 114.157  0.00  0.00     0.381 N 
ATOM     19  H   LIG d   1      -1.922  75.652 114.172  0.00  0.00    -0.090 HD
ATOM     20  H   LIG d   1      -1.815  77.099 114.905  0.00  0.00    -0.090 HD
ATOM     21  H   LIG d   1      -2.033  77.020 113.283  0.00  0.00    -0.090 HD
ENDBRANCH   5  18
BRANCH   3  22
ATOM     22  C   LIG d   1      -6.538  76.305 112.030  0.00  0.00     0.382 C 
ATOM     23  O   LIG d   1      -6.314  75.685 110.962  0.00  0.00    -0.241 OA
ATOM     24  O   LIG d   1      -7.425  77.179 112.057  0.00  0.00    -0.241 OA
ENDBRANCH   3  22
TORSDOF 7
ENDMDL
MODEL 5
REMARK VINA RESULT:      -5.0      3.580      4.638
REMARK  7 active torsions:
REMARK  status: ('A' for Active; 'I' for Inactive)
REMARK    1  A    between atoms: C_2  and  C_3 
REMARK    2  A    between atoms: C_3  and  O_6 
REMARK    3  A    between atoms: C_3  and  C_4 
REMARK    4  A    between atoms: C_7  and  O_6 
REMARK    5  A    between atoms: C_9  and  C_10 
REMARK    6  A    between atoms: N_15  and  C_14 
REMARK    7  A    between atoms: N_20  and  C_19 
REMARK       I    between atoms: C_22  and  N_20 
ROOT
ATOM      1  C   LIG d   1      -6.144  77.170 117.130  0.00  0.00     0.161 C 
ATOM      2  C   LIG d   1      -7.012  78.211 117.500  0.00  0.00     0.016 C 
ATOM      3  C   LIG d   1      -6.566  79.482 117.927  0.00  0.00     0.038 C 
ATOM      4  C   LIG d   1      -5.214  79.852 117.869  0.00  0.00     0.028 C 
ATOM      5  C   LIG d   1      -4.258  78.669 117.982  0.00  0.00    -0.047 C 
ATOM      6  C   LIG d   1      -4.670  77.591 116.954  0.00  0.00     0.091 C 
ENDROOT
BRANCH   1   7
ATOM      7  O   LIG d   1      -6.629  76.531 115.933  0.00  0.00    -0.368 OA
BRANCH   7   8
ATOM      8  C   LIG d   1      -6.989  75.133 116.058  0.00  0.00     0.119 C 
BRANCH   8   9
ATOM      9  C   LIG d   1      -6.201  74.354 114.987  0.00  0.00     0.028 C 
ATOM     10  C   LIG d   1      -5.574  75.280 113.931  0.00  0.00     0.006 C 
ENDBRANCH   8   9
BRANCH   8  11
ATOM     11  C   LIG d   1      -8.466  74.906 115.721  0.00  0.00     0.028 C 
ATOM     12  C   LIG d   1      -9.378  74.981 116.955  0.00  0.00     0.006 C 
ENDBRANCH   8  11
ENDBRANCH   7   8
ENDBRANCH   1   7
BRANCH   6  13
ATOM     13  N   LIG d   1      -3.837  76.364 117.055  0.00  0.00    -0.311 N 
ATOM     14  C   LIG d   1      -2.783  76.127 116.276  0.00  0.00     0.210 C 
ATOM     15  C   LIG d   1      -2.076  74.792 116.533  0.00  0.00     0.109 C 
ATOM     16  O   LIG d   1      -2.347  76.909 115.418  0.00  0.00    -0.276 OA
ATOM     17  H   LIG d   1      -4.101  75.689 117.746  0.00  0.00     0.149 HD
ENDBRANCH   6  13
BRANCH   5  18
ATOM     18  N   LIG d   1      -2.890  79.180 117.768  0.00  0.00     0.381 N 
ATOM     19  H   LIG d   1      -2.612  79.741 118.548  0.00  0.00    -0.090 HD
ATOM     20  H   LIG d   1      -2.884  79.757 116.945  0.00  0.00    -0.090 HD
ATOM     21  H   LIG d   1      -2.257  78.420 117.654  0.00  0.00    -0.090 HD
ENDBRANCH   5  18
BRANCH   3  22
ATOM     22  C   LIG d   1      -7.474  80.387 118.457  0.00  0.00     0.382 C 
ATOM     23  O   LIG d   1      -7.721  80.378 119.687  0.00  0.00    -0.241 OA
ATOM     24  O   LIG d   1      -8.081  81.181 117.715  0.00  0.00    -0.241 OA
ENDBRANCH   3  22
TORSDOF 7
ENDMDL
MODEL 6
REMARK VINA RESULT:      -4.9      2.464      6.071
REMARK  7 active torsions:
REMARK  status: ('A' for Active; 'I' for Inactive)
REMARK    1  A    between atoms: C_2  and  C_3 
REMARK    2  A    between atoms: C_3  and  O_6 
REMARK    3  A    between atoms: C_3  and  C_4 
REMARK    4  A    between atoms: C_7  and  O_6 
REMARK    5  A    between atoms: C_9  and  C_10 
REMARK    6  A    between atoms: N_15  and  C_14 
REMARK    7  A    between atoms: N_20  and  C_19 
REMARK       I    between atoms: C_22  and  N_20 
ROOT
ATOM      1  C   LIG d   1      -3.357  76.397 113.167  0.00  0.00     0.161 C 
ATOM      2  C   LIG d   1      -4.455  76.802 112.389  0.00  0.00     0.016 C 
ATOM      3  C   LIG d   1      -5.782  76.382 112.636  0.00  0.00     0.038 C 
ATOM      4  C   LIG d   1      -6.124  75.642 113.778  0.00  0.00     0.028 C 
ATOM      5  C   LIG d   1      -4.979  74.789 114.313  0.00  0.00    -0.047 C 
ATOM      6  C   LIG d   1      -3.727  75.679 114.482  0.00  0.00     0.091 C 
ENDROOT
BRANCH   1   7
ATOM      7  O   LIG d   1      -2.505  77.527 113.436  0.00  0.00    -0.368 OA
BRANCH   7   8
ATOM      8  C   LIG d   1      -2.435  78.535 112.397  0.00  0.00     0.119 C 
BRANCH   8   9
ATOM      9  C   LIG d   1      -1.429  78.040 111.339  0.00  0.00     0.028 C 
ATOM     10  C   LIG d   1      -0.634  79.192 110.701  0.00  0.00     0.006 C 
ENDBRANCH   8   9
BRANCH   8  11
ATOM     11  C   LIG d   1      -1.851  79.846 112.930  0.00  0.00     0.028 C 
ATOM     12  C   LIG d   1      -2.927  80.906 113.214  0.00  0.00     0.006 C 
ENDBRANCH   8  11
ENDBRANCH   7   8
ENDBRANCH   1   7
BRANCH   6  13
ATOM     13  N   LIG d   1      -2.537  74.906 114.923  0.00  0.00    -0.311 N 
ATOM     14  C   LIG d   1      -1.960  75.063 116.113  0.00  0.00     0.210 C 
ATOM     15  C   LIG d   1      -0.732  74.180 116.357  0.00  0.00     0.109 C 
ATOM     16  O   LIG d   1      -2.367  75.827 117.001  0.00  0.00    -0.276 OA
ATOM     17  H   LIG d   1      -2.159  74.242 114.275  0.00  0.00     0.149 HD
ENDBRANCH   6  13
BRANCH   5  18
ATOM     18  N   LIG d   1      -5.431  74.180 115.579  0.00  0.00     0.381 N 
ATOM     19  H   LIG d   1      -4.874  73.375 115.785  0.00  0.00    -0.090 HD
ATOM     20  H   LIG d   1      -6.386  73.884 115.474  0.00  0.00    -0.090 HD
ATOM     21  H   LIG d   1      -5.360  74.842 116.320  0.00  0.00    -0.090 HD
ENDBRANCH   5  18
BRANCH   3  22
ATOM     22  C   LIG d   1      -6.776  76.668 111.714  0.00  0.00     0.382 C 
ATOM     23  O   LIG d   1      -6.799  76.071 110.610  0.00  0.00    -0.241 OA
ATOM     24  O   LIG d   1      -7.626  77.547 111.953  0.00  0.00    -0.241 OA
ENDBRANCH   3  22
TORSDOF 7
ENDMDL
MODEL 7
REMARK VINA RESULT:      -4.9      3.225      5.537
REMARK  7 active torsions:
REMARK  status: ('A' for Active; 'I' for Inactive)
REMARK    1  A    between atoms: C_2  and  C_3 
REMARK    2  A    between atoms: C_3  and  O_6 
REMARK    3  A    between atoms: C_3  and  C_4 
REMARK    4  A    between atoms: C_7  and  O_6 
REMARK    5  A    between atoms: C_9  and  C_10 
REMARK    6  A    between atoms: N_15  and  C_14 
REMARK    7  A    between atoms: N_20  and  C_19 
REMARK       I    between atoms: C_22  and  N_20 
ROOT
ATOM      1  C   LIG d   1      -1.794  79.724 113.921  0.00  0.00     0.161 C 
ATOM      2  C   LIG d   1      -2.671  78.627 113.887  0.00  0.00     0.016 C 
ATOM      3  C   LIG d   1      -2.717  77.699 112.821  0.00  0.00     0.038 C 
ATOM      4  C   LIG d   1      -1.777  77.720 111.780  0.00  0.00     0.028 C 
ATOM      5  C   LIG d   1      -1.197  79.105 111.514  0.00  0.00    -0.047 C 
ATOM      6  C   LIG d   1      -0.686  79.699 112.847  0.00  0.00     0.091 C 
ENDROOT
BRANCH   1   7
ATOM      7  O   LIG d   1      -1.215  79.847 115.235  0.00  0.00    -0.368 OA
BRANCH   7   8
ATOM      8  C   LIG d   1      -1.418  78.724 116.128  0.00  0.00     0.119 C 
BRANCH   8   9
ATOM      9  C   LIG d   1      -1.825  79.293 117.501  0.00  0.00     0.028 C 
ATOM     10  C   LIG d   1      -3.309  79.047 117.822  0.00  0.00     0.006 C 
ENDBRANCH   8   9
BRANCH   8  11
ATOM     11  C   LIG d   1      -0.111  77.965 116.375  0.00  0.00     0.028 C 
ATOM     12  C   LIG d   1      -0.008  76.672 115.551  0.00  0.00     0.006 C 
ENDBRANCH   8  11
ENDBRANCH   7   8
ENDBRANCH   1   7
BRANCH   6  13
ATOM     13  N   LIG d   1      -0.179  81.087 112.691  0.00  0.00    -0.311 N 
ATOM     14  C   LIG d   1      -0.972  82.140 112.500  0.00  0.00     0.210 C 
ATOM     15  C   LIG d   1      -0.243  83.478 112.344  0.00  0.00     0.109 C 
ATOM     16  O   LIG d   1      -2.211  82.097 112.477  0.00  0.00    -0.276 OA
ATOM     17  H   LIG d   1       0.813  81.217 112.728  0.00  0.00     0.149 HD
ENDBRANCH   6  13
BRANCH   5  18
ATOM     18  N   LIG d   1      -0.135  78.957 110.502  0.00  0.00     0.381 N 
ATOM     19  H   LIG d   1       0.757  79.139 110.917  0.00  0.00    -0.090 HD
ATOM     20  H   LIG d   1      -0.286  79.629 109.771  0.00  0.00    -0.090 HD
ATOM     21  H   LIG d   1      -0.150  78.035 110.124  0.00  0.00    -0.090 HD
ENDBRANCH   5  18
BRANCH   3  22
ATOM     22  C   LIG d   1      -3.736  76.761 112.770  0.00  0.00     0.382 C 
ATOM     23  O   LIG d   1      -3.590  75.646 113.326  0.00  0.00    -0.241 OA
ATOM     24  O   LIG d   1      -4.783  76.999 112.138  0.00  0.00    -0.241 OA
ENDBRANCH   3  22
TORSDOF 7
ENDMDL
MODEL 8
REMARK VINA RESULT:      -4.8      1.739      4.879
REMARK  7 active torsions:
REMARK  status: ('A' for Active; 'I' for Inactive)
REMARK    1  A    between atoms: C_2  and  C_3 
REMARK    2  A    between atoms: C_3  and  O_6 
REMARK    3  A    between atoms: C_3  and  C_4 
REMARK    4  A    between atoms: C_7  and  O_6 
REMARK    5  A    between atoms: C_9  and  C_10 
REMARK    6  A    between atoms: N_15  and  C_14 
REMARK    7  A    between atoms: N_20  and  C_19 
REMARK       I    between atoms: C_22  and  N_20 
ROOT
ATOM      1  C   LIG d   1      -3.097  76.966 114.596  0.00  0.00     0.161 C 
ATOM      2  C   LIG d   1      -3.153  76.948 113.192  0.00  0.00     0.016 C 
ATOM      3  C   LIG d   1      -2.329  77.750 112.370  0.00  0.00     0.038 C 
ATOM      4  C   LIG d   1      -1.281  78.520 112.896  0.00  0.00     0.028 C 
ATOM      5  C   LIG d   1      -1.516  78.957 114.338  0.00  0.00    -0.047 C 
ATOM      6  C   LIG d   1      -1.884  77.717 115.185  0.00  0.00     0.091 C 
ENDROOT
BRANCH   1   7
ATOM      7  O   LIG d   1      -3.147  75.619 115.105  0.00  0.00    -0.368 OA
BRANCH   7   8
ATOM      8  C   LIG d   1      -4.372  75.237 115.779  0.00  0.00     0.119 C 
BRANCH   8   9
ATOM      9  C   LIG d   1      -5.264  74.521 114.748  0.00  0.00     0.028 C 
ATOM     10  C   LIG d   1      -6.453  75.388 114.298  0.00  0.00     0.006 C 
ENDBRANCH   8   9
BRANCH   8  11
ATOM     11  C   LIG d   1      -5.170  76.467 116.223  0.00  0.00     0.028 C 
ATOM     12  C   LIG d   1      -5.382  76.523 117.744  0.00  0.00     0.006 C 
ENDBRANCH   8  11
ENDBRANCH   7   8
ENDBRANCH   1   7
BRANCH   6  13
ATOM     13  N   LIG d   1      -2.213  78.068 116.591  0.00  0.00    -0.311 N 
ATOM     14  C   LIG d   1      -1.652  77.477 117.645  0.00  0.00     0.210 C 
ATOM     15  C   LIG d   1      -2.147  77.975 119.006  0.00  0.00     0.109 C 
ATOM     16  O   LIG d   1      -0.768  76.609 117.581  0.00  0.00    -0.276 OA
ATOM     17  H   LIG d   1      -2.898  78.784 116.735  0.00  0.00     0.149 HD
ENDBRANCH   6  13
BRANCH   5  18
ATOM     18  N   LIG d   1      -0.290  79.632 114.805  0.00  0.00     0.381 N 
ATOM     19  H   LIG d   1       0.499  79.293 114.292  0.00  0.00    -0.090 HD
ATOM     20  H   LIG d   1      -0.151  79.418 115.777  0.00  0.00    -0.090 HD
ATOM     21  H   LIG d   1      -0.376  80.617 114.683  0.00  0.00    -0.090 HD
ENDBRANCH   5  18
BRANCH   3  22
ATOM     22  C   LIG d   1      -2.576  77.818 111.007  0.00  0.00     0.382 C 
ATOM     23  O   LIG d   1      -3.573  77.232 110.521  0.00  0.00    -0.241 OA
ATOM     24  O   LIG d   1      -1.789  78.420 110.252  0.00  0.00    -0.241 OA
ENDBRANCH   3  22
TORSDOF 7
ENDMDL
MODEL 9
REMARK VINA RESULT:      -4.7      2.284      5.828
REMARK  7 active torsions:
REMARK  status: ('A' for Active; 'I' for Inactive)
REMARK    1  A    between atoms: C_2  and  C_3 
REMARK    2  A    between atoms: C_3  and  O_6 
REMARK    3  A    between atoms: C_3  and  C_4 
REMARK    4  A    between atoms: C_7  and  O_6 
REMARK    5  A    between atoms: C_9  and  C_10 
REMARK    6  A    between atoms: N_15  and  C_14 
REMARK    7  A    between atoms: N_20  and  C_19 
REMARK       I    between atoms: C_22  and  N_20 
ROOT
ATOM      1  C   LIG d   1      -3.015  76.266 114.883  0.00  0.00     0.161 C 
ATOM      2  C   LIG d   1      -2.283  76.787 113.804  0.00  0.00     0.016 C 
ATOM      3  C   LIG d   1      -2.845  77.043 112.533  0.00  0.00     0.038 C 
ATOM      4  C   LIG d   1      -4.224  76.935 112.297  0.00  0.00     0.028 C 
ATOM      5  C   LIG d   1      -4.919  75.932 113.212  0.00  0.00    -0.047 C 
ATOM      6  C   LIG d   1      -4.544  76.247 114.678  0.00  0.00     0.091 C 
ENDROOT
BRANCH   1   7
ATOM      7  O   LIG d   1      -2.681  76.979 116.091  0.00  0.00    -0.368 OA
BRANCH   7   8
ATOM      8  C   LIG d   1      -1.801  76.291 117.014  0.00  0.00     0.119 C 
BRANCH   8   9
ATOM      9  C   LIG d   1      -1.779  74.803 116.612  0.00  0.00     0.028 C 
ATOM     10  C   LIG d   1      -0.378  74.182 116.737  0.00  0.00     0.006 C 
ENDBRANCH   8   9
BRANCH   8  11
ATOM     11  C   LIG d   1      -2.359  76.317 118.440  0.00  0.00     0.028 C 
ATOM     12  C   LIG d   1      -3.668  77.115 118.553  0.00  0.00     0.006 C 
ENDBRANCH   8  11
ENDBRANCH   7   8
ENDBRANCH   1   7
BRANCH   6  13
ATOM     13  N   LIG d   1      -5.114  75.261 115.633  0.00  0.00    -0.311 N 
ATOM     14  C   LIG d   1      -6.280  75.431 116.254  0.00  0.00     0.210 C 
ATOM     15  C   LIG d   1      -6.673  74.303 117.213  0.00  0.00     0.109 C 
ATOM     16  O   LIG d   1      -7.041  76.395 116.078  0.00  0.00    -0.276 OA
ATOM     17  H   LIG d   1      -4.577  74.435 115.811  0.00  0.00     0.149 HD
ENDBRANCH   6  13
BRANCH   5  18
ATOM     18  N   LIG d   1      -6.368  76.022 112.953  0.00  0.00     0.381 N 
ATOM     19  H   LIG d   1      -6.839  75.258 113.395  0.00  0.00    -0.090 HD
ATOM     20  H   LIG d   1      -6.526  75.958 111.962  0.00  0.00    -0.090 HD
ATOM     21  H   LIG d   1      -6.723  76.886 113.298  0.00  0.00    -0.090 HD
ENDBRANCH   5  18
BRANCH   3  22
ATOM     22  C   LIG d   1      -2.019  77.373 111.469  0.00  0.00     0.382 C 
ATOM     23  O   LIG d   1      -1.948  78.562 111.076  0.00  0.00    -0.241 OA
ATOM     24  O   LIG d   1      -1.379  76.489 110.869  0.00  0.00    -0.241 OA
ENDBRANCH   3  22
TORSDOF 7
ENDMDL
