MODEL 1
REMARK VINA RESULT:      -5.0      0.000      0.000
REMARK  7 active torsions:
REMARK  status: ('A' for Active; 'I' for Inactive)
REMARK    1  A    between atoms: C_2  and  C_3 
REMARK    2  A    between atoms: C_3  and  O_6 
REMARK    3  A    between atoms: C_3  and  C_4 
REMARK    4  A    between atoms: C_7  and  O_6 
REMARK    5  A    between atoms: C_9  and  C_10 
REMARK    6  A    between atoms: N_15  and  C_14 
REMARK    7  A    between atoms: N_20  and  C_19 
REMARK       I    between atoms: C_22  and  N_20 
ROOT
ATOM      1  C   LIG d   1      -2.898  76.180 115.923  0.00  0.00     0.161 C 
ATOM      2  C   LIG d   1      -2.460  75.728 117.179  0.00  0.00     0.016 C 
ATOM      3  C   LIG d   1      -1.325  76.250 117.842  0.00  0.00     0.038 C 
ATOM      4  C   LIG d   1      -0.634  77.372 117.358  0.00  0.00     0.028 C 
ATOM      5  C   LIG d   1      -0.735  77.539 115.845  0.00  0.00    -0.047 C 
ATOM      6  C   LIG d   1      -2.223  77.478 115.432  0.00  0.00     0.091 C 
ENDROOT
BRANCH   1   7
ATOM      7  O   LIG d   1      -4.331  76.333 115.932  0.00  0.00    -0.368 OA
BRANCH   7   8
ATOM      8  C   LIG d   1      -5.101  75.132 115.684  0.00  0.00     0.119 C 
BRANCH   8   9
ATOM      9  C   LIG d   1      -5.035  74.843 114.172  0.00  0.00     0.028 C 
ATOM     10  C   LIG d   1      -5.595  76.000 113.328  0.00  0.00     0.006 C 
ENDBRANCH   8   9
BRANCH   8  11
ATOM     11  C   LIG d   1      -6.586  75.349 115.991  0.00  0.00     0.028 C 
ATOM     12  C   LIG d   1      -7.191  74.218 116.837  0.00  0.00     0.006 C 
ENDBRANCH   8  11
ENDBRANCH   7   8
ENDBRANCH   1   7
BRANCH   6  13
ATOM     13  N   LIG d   1      -2.405  77.549 113.958  0.00  0.00    -0.311 N 
ATOM     14  C   LIG d   1      -2.722  78.669 113.312  0.00  0.00     0.210 C 
ATOM     15  C   LIG d   1      -2.881  78.518 111.796  0.00  0.00     0.109 C 
ATOM     16  O   LIG d   1      -2.855  79.781 113.846  0.00  0.00    -0.276 OA
ATOM     17  H   LIG d   1      -2.285  76.699 113.442  0.00  0.00     0.149 HD
ENDBRANCH   6  13
BRANCH   5  18
ATOM     18  N   LIG d   1      -0.089  78.817 115.494  0.00  0.00     0.381 N 
ATOM     19  H   LIG d   1      -0.400  79.536 116.116  0.00  0.00    -0.090 HD
ATOM     20  H   LIG d   1      -0.356  79.071 114.560  0.00  0.00    -0.090 HD
ATOM     21  H   LIG d   1       0.902  78.726 115.551  0.00  0.00    -0.090 HD
ENDBRANCH   5  18
BRANCH   3  22
ATOM     22  C   LIG d   1      -0.846  75.624 118.982  0.00  0.00     0.382 C 
ATOM     23  O   LIG d   1      -0.907  74.375 119.084  0.00  0.00    -0.241 OA
ATOM     24  O   LIG d   1      -0.394  76.294 119.929  0.00  0.00    -0.241 OA
ENDBRANCH   3  22
TORSDOF 7
ENDMDL
MODEL 2
REMARK VINA RESULT:      -5.0      3.549      5.478
REMARK  7 active torsions:
REMARK  status: ('A' for Active; 'I' for Inactive)
REMARK    1  A    between atoms: C_2  and  C_3 
REMARK    2  A    between atoms: C_3  and  O_6 
REMARK    3  A    between atoms: C_3  and  C_4 
REMARK    4  A    between atoms: C_7  and  O_6 
REMARK    5  A    between atoms: C_9  and  C_10 
REMARK    6  A    between atoms: N_15  and  C_14 
REMARK    7  A    between atoms: N_20  and  C_19 
REMARK       I    between atoms: C_22  and  N_20 
ROOT
ATOM      1  C   LIG d   1      -6.047  77.421 116.496  0.00  0.00     0.161 C 
ATOM      2  C   LIG d   1      -7.427  77.509 116.745  0.00  0.00     0.016 C 
ATOM      3  C   LIG d   1      -7.995  78.416 117.669  0.00  0.00     0.038 C 
ATOM      4  C   LIG d   1      -7.229  79.407 118.301  0.00  0.00     0.028 C 
ATOM      5  C   LIG d   1      -5.761  79.028 118.462  0.00  0.00    -0.047 C 
ATOM      6  C   LIG d   1      -5.208  78.570 117.094  0.00  0.00     0.091 C 
ENDROOT
BRANCH   1   7
ATOM      7  O   LIG d   1      -5.812  77.314 115.078  0.00  0.00    -0.368 OA
BRANCH   7   8
ATOM      8  C   LIG d   1      -6.254  76.086 114.450  0.00  0.00     0.119 C 
BRANCH   8   9
ATOM      9  C   LIG d   1      -5.454  74.929 115.080  0.00  0.00     0.028 C 
ATOM     10  C   LIG d   1      -3.945  75.042 114.806  0.00  0.00     0.006 C 
ENDBRANCH   8   9
BRANCH   8  11
ATOM     11  C   LIG d   1      -5.897  76.062 112.961  0.00  0.00     0.028 C 
ATOM     12  C   LIG d   1      -7.006  76.648 112.073  0.00  0.00     0.006 C 
ENDBRANCH   8  11
ENDBRANCH   7   8
ENDBRANCH   1   7
BRANCH   6  13
ATOM     13  N   LIG d   1      -3.800  78.101 117.180  0.00  0.00    -0.311 N 
ATOM     14  C   LIG d   1      -2.884  78.356 116.247  0.00  0.00     0.210 C 
ATOM     15  C   LIG d   1      -1.499  77.762 116.522  0.00  0.00     0.109 C 
ATOM     16  O   LIG d   1      -3.079  79.045 115.234  0.00  0.00    -0.276 OA
ATOM     17  H   LIG d   1      -3.548  77.561 117.984  0.00  0.00     0.149 HD
ENDBRANCH   6  13
BRANCH   5  18
ATOM     18  N   LIG d   1      -5.055  80.202 119.008  0.00  0.00     0.381 N 
ATOM     19  H   LIG d   1      -4.283  79.902 119.570  0.00  0.00    -0.090 HD
ATOM     20  H   LIG d   1      -5.688  80.720 119.592  0.00  0.00    -0.090 HD
ATOM     21  H   LIG d   1      -4.729  80.780 118.265  0.00  0.00    -0.090 HD
ENDBRANCH   5  18
BRANCH   3  22
ATOM     22  C   LIG d   1      -9.337  78.310 117.999  0.00  0.00     0.382 C 
ATOM     23  O   LIG d   1      -9.976  77.271 117.703  0.00  0.00    -0.241 OA
ATOM     24  O   LIG d   1      -9.929  79.258 118.549  0.00  0.00    -0.241 OA
ENDBRANCH   3  22
TORSDOF 7
ENDMDL
MODEL 3
REMARK VINA RESULT:      -4.9      2.411      5.508
REMARK  7 active torsions:
REMARK  status: ('A' for Active; 'I' for Inactive)
REMARK    1  A    between atoms: C_2  and  C_3 
REMARK    2  A    between atoms: C_3  and  O_6 
REMARK    3  A    between atoms: C_3  and  C_4 
REMARK    4  A    between atoms: C_7  and  O_6 
REMARK    5  A    between atoms: C_9  and  C_10 
REMARK    6  A    between atoms: N_15  and  C_14 
REMARK    7  A    between atoms: N_20  and  C_19 
REMARK       I    between atoms: C_22  and  N_20 
ROOT
ATOM      1  C   LIG d   1      -5.699  75.961 115.769  0.00  0.00     0.161 C 
ATOM      2  C   LIG d   1      -6.309  76.027 114.505  0.00  0.00     0.016 C 
ATOM      3  C   LIG d   1      -5.629  76.431 113.333  0.00  0.00     0.038 C 
ATOM      4  C   LIG d   1      -4.244  76.653 113.319  0.00  0.00     0.028 C 
ATOM      5  C   LIG d   1      -3.686  77.088 114.670  0.00  0.00    -0.047 C 
ATOM      6  C   LIG d   1      -4.162  76.093 115.753  0.00  0.00     0.091 C 
ENDROOT
BRANCH   1   7
ATOM      7  O   LIG d   1      -6.092  74.746 116.438  0.00  0.00    -0.368 OA
BRANCH   7   8
ATOM      8  C   LIG d   1      -7.064  74.890 117.503  0.00  0.00     0.119 C 
BRANCH   8   9
ATOM      9  C   LIG d   1      -8.415  74.376 116.969  0.00  0.00     0.028 C 
ATOM     10  C   LIG d   1      -9.369  75.520 116.588  0.00  0.00     0.006 C 
ENDBRANCH   8   9
BRANCH   8  11
ATOM     11  C   LIG d   1      -7.298  76.364 117.848  0.00  0.00     0.028 C 
ATOM     12  C   LIG d   1      -6.726  76.753 119.220  0.00  0.00     0.006 C 
ENDBRANCH   8  11
ENDBRANCH   7   8
ENDBRANCH   1   7
BRANCH   6  13
ATOM     13  N   LIG d   1      -3.730  76.492 117.118  0.00  0.00    -0.311 N 
ATOM     14  C   LIG d   1      -2.574  76.114 117.661  0.00  0.00     0.210 C 
ATOM     15  C   LIG d   1      -2.334  76.620 119.087  0.00  0.00     0.109 C 
ATOM     16  O   LIG d   1      -1.711  75.435 117.085  0.00  0.00    -0.276 OA
ATOM     17  H   LIG d   1      -4.357  77.069 117.644  0.00  0.00     0.149 HD
ENDBRANCH   6  13
BRANCH   5  18
ATOM     18  N   LIG d   1      -2.218  77.150 114.547  0.00  0.00     0.381 N 
ATOM     19  H   LIG d   1      -1.807  77.271 115.451  0.00  0.00    -0.090 HD
ATOM     20  H   LIG d   1      -1.972  77.942 113.980  0.00  0.00    -0.090 HD
ATOM     21  H   LIG d   1      -1.875  76.313 114.127  0.00  0.00    -0.090 HD
ENDBRANCH   5  18
BRANCH   3  22
ATOM     22  C   LIG d   1      -6.345  76.655 112.167  0.00  0.00     0.382 C 
ATOM     23  O   LIG d   1      -5.738  76.799 111.078  0.00  0.00    -0.241 OA
ATOM     24  O   LIG d   1      -7.585  76.759 112.196  0.00  0.00    -0.241 OA
ENDBRANCH   3  22
TORSDOF 7
ENDMDL
MODEL 4
REMARK VINA RESULT:      -4.9      3.380      5.561
REMARK  7 active torsions:
REMARK  status: ('A' for Active; 'I' for Inactive)
REMARK    1  A    between atoms: C_2  and  C_3 
REMARK    2  A    between atoms: C_3  and  O_6 
REMARK    3  A    between atoms: C_3  and  C_4 
REMARK    4  A    between atoms: C_7  and  O_6 
REMARK    5  A    between atoms: C_9  and  C_10 
REMARK    6  A    between atoms: N_15  and  C_14 
REMARK    7  A    between atoms: N_20  and  C_19 
REMARK       I    between atoms: C_22  and  N_20 
ROOT
ATOM      1  C   LIG d   1      -4.920  77.916 116.334  0.00  0.00     0.161 C 
ATOM      2  C   LIG d   1      -3.841  78.641 115.800  0.00  0.00     0.016 C 
ATOM      3  C   LIG d   1      -3.020  78.159 114.755  0.00  0.00     0.038 C 
ATOM      4  C   LIG d   1      -3.318  76.975 114.065  0.00  0.00     0.028 C 
ATOM      5  C   LIG d   1      -4.098  75.966 114.901  0.00  0.00    -0.047 C 
ATOM      6  C   LIG d   1      -5.328  76.671 115.519  0.00  0.00     0.091 C 
ENDROOT
BRANCH   1   7
ATOM      7  O   LIG d   1      -6.052  78.789 116.516  0.00  0.00    -0.368 OA
BRANCH   7   8
ATOM      8  C   LIG d   1      -6.191  79.387 117.829  0.00  0.00     0.119 C 
BRANCH   8   9
ATOM      9  C   LIG d   1      -7.227  78.555 118.610  0.00  0.00     0.028 C 
ATOM     10  C   LIG d   1      -8.620  78.592 117.959  0.00  0.00     0.006 C 
ENDBRANCH   8   9
BRANCH   8  11
ATOM     11  C   LIG d   1      -6.786  80.795 117.739  0.00  0.00     0.028 C 
ATOM     12  C   LIG d   1      -6.650  81.584 119.051  0.00  0.00     0.006 C 
ENDBRANCH   8  11
ENDBRANCH   7   8
ENDBRANCH   1   7
BRANCH   6  13
ATOM     13  N   LIG d   1      -6.100  75.777 116.420  0.00  0.00    -0.311 N 
ATOM     14  C   LIG d   1      -7.410  75.567 116.298  0.00  0.00     0.210 C 
ATOM     15  C   LIG d   1      -8.013  74.624 117.344  0.00  0.00     0.109 C 
ATOM     16  O   LIG d   1      -8.123  76.046 115.404  0.00  0.00    -0.276 OA
ATOM     17  H   LIG d   1      -5.594  75.323 117.155  0.00  0.00     0.149 HD
ENDBRANCH   6  13
BRANCH   5  18
ATOM     18  N   LIG d   1      -4.460  74.841 114.019  0.00  0.00     0.381 N 
ATOM     19  H   LIG d   1      -3.638  74.329 113.768  0.00  0.00    -0.090 HD
ATOM     20  H   LIG d   1      -4.873  75.206 113.179  0.00  0.00    -0.090 HD
ATOM     21  H   LIG d   1      -5.106  74.239 114.481  0.00  0.00    -0.090 HD
ENDBRANCH   5  18
BRANCH   3  22
ATOM     22  C   LIG d   1      -1.864  78.846 114.417  0.00  0.00     0.382 C 
ATOM     23  O   LIG d   1      -1.840  79.566 113.390  0.00  0.00    -0.241 OA
ATOM     24  O   LIG d   1      -0.831  78.718 115.101  0.00  0.00    -0.241 OA
ENDBRANCH   3  22
TORSDOF 7
ENDMDL
MODEL 5
REMARK VINA RESULT:      -4.8      3.111      4.982
REMARK  7 active torsions:
REMARK  status: ('A' for Active; 'I' for Inactive)
REMARK    1  A    between atoms: C_2  and  C_3 
REMARK    2  A    between atoms: C_3  and  O_6 
REMARK    3  A    between atoms: C_3  and  C_4 
REMARK    4  A    between atoms: C_7  and  O_6 
REMARK    5  A    between atoms: C_9  and  C_10 
REMARK    6  A    between atoms: N_15  and  C_14 
REMARK    7  A    between atoms: N_20  and  C_19 
REMARK       I    between atoms: C_22  and  N_20 
ROOT
ATOM      1  C   LIG d   1      -5.421  76.773 117.995  0.00  0.00     0.161 C 
ATOM      2  C   LIG d   1      -6.333  77.841 118.052  0.00  0.00     0.016 C 
ATOM      3  C   LIG d   1      -6.061  79.125 117.528  0.00  0.00     0.038 C 
ATOM      4  C   LIG d   1      -4.910  79.389 116.770  0.00  0.00     0.028 C 
ATOM      5  C   LIG d   1      -3.735  78.482 117.119  0.00  0.00    -0.047 C 
ATOM      6  C   LIG d   1      -4.206  77.010 117.074  0.00  0.00     0.091 C 
ENDROOT
BRANCH   1   7
ATOM      7  O   LIG d   1      -6.108  75.564 117.616  0.00  0.00    -0.368 OA
BRANCH   7   8
ATOM      8  C   LIG d   1      -7.022  75.674 116.497  0.00  0.00     0.119 C 
BRANCH   8   9
ATOM      9  C   LIG d   1      -8.231  74.766 116.796  0.00  0.00     0.028 C 
ATOM     10  C   LIG d   1      -9.573  75.488 116.590  0.00  0.00     0.006 C 
ENDBRANCH   8   9
BRANCH   8  11
ATOM     11  C   LIG d   1      -6.402  75.114 115.214  0.00  0.00     0.028 C 
ATOM     12  C   LIG d   1      -6.297  76.164 114.096  0.00  0.00     0.006 C 
ENDBRANCH   8  11
ENDBRANCH   7   8
ENDBRANCH   1   7
BRANCH   6  13
ATOM     13  N   LIG d   1      -3.139  76.061 117.485  0.00  0.00    -0.311 N 
ATOM     14  C   LIG d   1      -2.344  75.432 116.621  0.00  0.00     0.210 C 
ATOM     15  C   LIG d   1      -1.324  74.481 117.254  0.00  0.00     0.109 C 
ATOM     16  O   LIG d   1      -2.366  75.596 115.392  0.00  0.00    -0.276 OA
ATOM     17  H   LIG d   1      -3.031  75.893 118.466  0.00  0.00     0.149 HD
ENDBRANCH   6  13
BRANCH   5  18
ATOM     18  N   LIG d   1      -2.650  78.771 116.163  0.00  0.00     0.381 N 
ATOM     19  H   LIG d   1      -2.773  78.224 115.335  0.00  0.00    -0.090 HD
ATOM     20  H   LIG d   1      -1.772  78.517 116.581  0.00  0.00    -0.090 HD
ATOM     21  H   LIG d   1      -2.648  79.740 115.932  0.00  0.00    -0.090 HD
ENDBRANCH   5  18
BRANCH   3  22
ATOM     22  C   LIG d   1      -6.929  80.174 117.794  0.00  0.00     0.382 C 
ATOM     23  O   LIG d   1      -7.854  80.026 118.629  0.00  0.00    -0.241 OA
ATOM     24  O   LIG d   1      -6.826  81.251 117.177  0.00  0.00    -0.241 OA
ENDBRANCH   3  22
TORSDOF 7
ENDMDL
MODEL 6
REMARK VINA RESULT:      -4.8      3.682      5.291
REMARK  7 active torsions:
REMARK  status: ('A' for Active; 'I' for Inactive)
REMARK    1  A    between atoms: C_2  and  C_3 
REMARK    2  A    between atoms: C_3  and  O_6 
REMARK    3  A    between atoms: C_3  and  C_4 
REMARK    4  A    between atoms: C_7  and  O_6 
REMARK    5  A    between atoms: C_9  and  C_10 
REMARK    6  A    between atoms: N_15  and  C_14 
REMARK    7  A    between atoms: N_20  and  C_19 
REMARK       I    between atoms: C_22  and  N_20 
ROOT
ATOM      1  C   LIG d   1      -5.767  77.780 116.858  0.00  0.00     0.161 C 
ATOM      2  C   LIG d   1      -6.804  78.709 117.051  0.00  0.00     0.016 C 
ATOM      3  C   LIG d   1      -6.690  79.839 117.893  0.00  0.00     0.038 C 
ATOM      4  C   LIG d   1      -5.471  80.202 118.485  0.00  0.00     0.028 C 
ATOM      5  C   LIG d   1      -4.538  79.020 118.724  0.00  0.00    -0.047 C 
ATOM      6  C   LIG d   1      -4.395  78.220 117.409  0.00  0.00     0.091 C 
ENDROOT
BRANCH   1   7
ATOM      7  O   LIG d   1      -5.663  77.448 115.460  0.00  0.00    -0.368 OA
BRANCH   7   8
ATOM      8  C   LIG d   1      -6.317  76.224 115.045  0.00  0.00     0.119 C 
BRANCH   8   9
ATOM      9  C   LIG d   1      -6.299  75.259 116.247  0.00  0.00     0.028 C 
ATOM     10  C   LIG d   1      -7.713  74.834 116.679  0.00  0.00     0.006 C 
ENDBRANCH   8   9
BRANCH   8  11
ATOM     11  C   LIG d   1      -5.524  75.514 113.943  0.00  0.00     0.028 C 
ATOM     12  C   LIG d   1      -4.731  74.306 114.465  0.00  0.00     0.006 C 
ENDBRANCH   8  11
ENDBRANCH   7   8
ENDBRANCH   1   7
BRANCH   6  13
ATOM     13  N   LIG d   1      -3.565  76.998 117.576  0.00  0.00    -0.311 N 
ATOM     14  C   LIG d   1      -2.659  76.600 116.685  0.00  0.00     0.210 C 
ATOM     15  C   LIG d   1      -1.928  75.302 117.042  0.00  0.00     0.109 C 
ATOM     16  O   LIG d   1      -2.369  77.215 115.648  0.00  0.00    -0.276 OA
ATOM     17  H   LIG d   1      -3.713  76.456 118.405  0.00  0.00     0.149 HD
ENDBRANCH   6  13
BRANCH   5  18
ATOM     18  N   LIG d   1      -3.255  79.557 119.217  0.00  0.00     0.381 N 
ATOM     19  H   LIG d   1      -2.679  78.808 119.546  0.00  0.00    -0.090 HD
ATOM     20  H   LIG d   1      -3.437  80.177 119.986  0.00  0.00    -0.090 HD
ATOM     21  H   LIG d   1      -2.789  80.049 118.487  0.00  0.00    -0.090 HD
ENDBRANCH   5  18
BRANCH   3  22
ATOM     22  C   LIG d   1      -7.814  80.598 118.180  0.00  0.00     0.382 C 
ATOM     23  O   LIG d   1      -8.321  81.328 117.295  0.00  0.00    -0.241 OA
ATOM     24  O   LIG d   1      -8.301  80.595 119.327  0.00  0.00    -0.241 OA
ENDBRANCH   3  22
TORSDOF 7
ENDMDL
MODEL 7
REMARK VINA RESULT:      -4.8      3.672      6.141
REMARK  7 active torsions:
REMARK  status: ('A' for Active; 'I' for Inactive)
REMARK    1  A    between atoms: C_2  and  C_3 
REMARK    2  A    between atoms: C_3  and  O_6 
REMARK    3  A    between atoms: C_3  and  C_4 
REMARK    4  A    between atoms: C_7  and  O_6 
REMARK    5  A    between atoms: C_9  and  C_10 
REMARK    6  A    between atoms: N_15  and  C_14 
REMARK    7  A    between atoms: N_20  and  C_19 
REMARK       I    between atoms: C_22  and  N_20 
ROOT
ATOM      1  C   LIG d   1      -6.091  78.071 116.967  0.00  0.00     0.161 C 
ATOM      2  C   LIG d   1      -7.393  77.644 117.278  0.00  0.00     0.016 C 
ATOM      3  C   LIG d   1      -8.021  76.544 116.650  0.00  0.00     0.038 C 
ATOM      4  C   LIG d   1      -7.330  75.698 115.771  0.00  0.00     0.028 C 
ATOM      5  C   LIG d   1      -6.177  76.387 115.048  0.00  0.00    -0.047 C 
ATOM      6  C   LIG d   1      -5.281  77.093 116.091  0.00  0.00     0.091 C 
ENDROOT
BRANCH   1   7
ATOM      7  O   LIG d   1      -5.372  78.369 118.180  0.00  0.00    -0.368 OA
BRANCH   7   8
ATOM      8  C   LIG d   1      -5.047  79.764 118.403  0.00  0.00     0.119 C 
BRANCH   8   9
ATOM      9  C   LIG d   1      -3.750  79.810 119.234  0.00  0.00     0.028 C 
ATOM     10  C   LIG d   1      -2.617  78.986 118.600  0.00  0.00     0.006 C 
ENDBRANCH   8   9
BRANCH   8  11
ATOM     11  C   LIG d   1      -6.108  80.452 119.267  0.00  0.00     0.028 C 
ATOM     12  C   LIG d   1      -6.956  81.461 118.477  0.00  0.00     0.006 C 
ENDBRANCH   8  11
ENDBRANCH   7   8
ENDBRANCH   1   7
BRANCH   6  13
ATOM     13  N   LIG d   1      -4.176  77.862 115.461  0.00  0.00    -0.311 N 
ATOM     14  C   LIG d   1      -2.961  77.361 115.251  0.00  0.00     0.210 C 
ATOM     15  C   LIG d   1      -1.964  78.329 114.607  0.00  0.00     0.109 C 
ATOM     16  O   LIG d   1      -2.622  76.195 115.507  0.00  0.00    -0.276 OA
ATOM     17  H   LIG d   1      -4.373  78.807 115.193  0.00  0.00     0.149 HD
ENDBRANCH   6  13
BRANCH   5  18
ATOM     18  N   LIG d   1      -5.460  75.358 114.271  0.00  0.00     0.381 N 
ATOM     19  H   LIG d   1      -5.321  74.544 114.835  0.00  0.00    -0.090 HD
ATOM     20  H   LIG d   1      -4.559  75.718 114.008  0.00  0.00    -0.090 HD
ATOM     21  H   LIG d   1      -5.981  75.122 113.455  0.00  0.00    -0.090 HD
ENDBRANCH   5  18
BRANCH   3  22
ATOM     22  C   LIG d   1      -9.369  76.305 116.871  0.00  0.00     0.382 C 
ATOM     23  O   LIG d   1      -9.911  75.282 116.389  0.00  0.00    -0.241 OA
ATOM     24  O   LIG d   1     -10.060  77.123 117.508  0.00  0.00    -0.241 OA
ENDBRANCH   3  22
TORSDOF 7
ENDMDL
MODEL 8
REMARK VINA RESULT:      -4.8      1.730      4.747
REMARK  7 active torsions:
REMARK  status: ('A' for Active; 'I' for Inactive)
REMARK    1  A    between atoms: C_2  and  C_3 
REMARK    2  A    between atoms: C_3  and  O_6 
REMARK    3  A    between atoms: C_3  and  C_4 
REMARK    4  A    between atoms: C_7  and  O_6 
REMARK    5  A    between atoms: C_9  and  C_10 
REMARK    6  A    between atoms: N_15  and  C_14 
REMARK    7  A    between atoms: N_20  and  C_19 
REMARK       I    between atoms: C_22  and  N_20 
ROOT
ATOM      1  C   LIG d   1      -3.194  77.151 116.362  0.00  0.00     0.161 C 
ATOM      2  C   LIG d   1      -3.306  78.060 115.296  0.00  0.00     0.016 C 
ATOM      3  C   LIG d   1      -2.493  78.009 114.141  0.00  0.00     0.038 C 
ATOM      4  C   LIG d   1      -1.609  76.946 113.903  0.00  0.00     0.028 C 
ATOM      5  C   LIG d   1      -1.102  76.283 115.180  0.00  0.00    -0.047 C 
ATOM      6  C   LIG d   1      -2.312  75.919 116.071  0.00  0.00     0.091 C 
ENDROOT
BRANCH   1   7
ATOM      7  O   LIG d   1      -4.507  76.737 116.790  0.00  0.00    -0.368 OA
BRANCH   7   8
ATOM      8  C   LIG d   1      -5.530  76.701 115.765  0.00  0.00     0.119 C 
BRANCH   8   9
ATOM      9  C   LIG d   1      -6.861  77.110 116.425  0.00  0.00     0.028 C 
ATOM     10  C   LIG d   1      -8.022  76.182 116.030  0.00  0.00     0.006 C 
ENDBRANCH   8   9
BRANCH   8  11
ATOM     11  C   LIG d   1      -5.754  75.276 115.250  0.00  0.00     0.028 C 
ATOM     12  C   LIG d   1      -5.066  75.015 113.901  0.00  0.00     0.006 C 
ENDBRANCH   8  11
ENDBRANCH   7   8
ENDBRANCH   1   7
BRANCH   6  13
ATOM     13  N   LIG d   1      -1.901  75.342 117.377  0.00  0.00    -0.311 N 
ATOM     14  C   LIG d   1      -1.114  75.977 118.244  0.00  0.00     0.210 C 
ATOM     15  C   LIG d   1      -0.796  75.194 119.522  0.00  0.00     0.109 C 
ATOM     16  O   LIG d   1      -0.676  77.127 118.091  0.00  0.00    -0.276 OA
ATOM     17  H   LIG d   1      -2.237  74.425 117.596  0.00  0.00     0.149 HD
ENDBRANCH   6  13
BRANCH   5  18
ATOM     18  N   LIG d   1      -0.302  75.109 114.784  0.00  0.00     0.381 N 
ATOM     19  H   LIG d   1      -0.851  74.503 114.207  0.00  0.00    -0.090 HD
ATOM     20  H   LIG d   1      -0.037  74.602 115.611  0.00  0.00    -0.090 HD
ATOM     21  H   LIG d   1       0.513  75.402 114.291  0.00  0.00    -0.090 HD
ENDBRANCH   5  18
BRANCH   3  22
ATOM     22  C   LIG d   1      -2.531  79.051 113.227  0.00  0.00     0.382 C 
ATOM     23  O   LIG d   1      -2.961  80.177 113.577  0.00  0.00    -0.241 OA
ATOM     24  O   LIG d   1      -2.184  78.867 112.045  0.00  0.00    -0.241 OA
ENDBRANCH   3  22
TORSDOF 7
ENDMDL
MODEL 9
REMARK VINA RESULT:      -4.7      3.103      5.928
REMARK  7 active torsions:
REMARK  status: ('A' for Active; 'I' for Inactive)
REMARK    1  A    between atoms: C_2  and  C_3 
REMARK    2  A    between atoms: C_3  and  O_6 
REMARK    3  A    between atoms: C_3  and  C_4 
REMARK    4  A    between atoms: C_7  and  O_6 
REMARK    5  A    between atoms: C_9  and  C_10 
REMARK    6  A    between atoms: N_15  and  C_14 
REMARK    7  A    between atoms: N_20  and  C_19 
REMARK       I    between atoms: C_22  and  N_20 
ROOT
ATOM      1  C   LIG d   1      -5.555  77.239 117.224  0.00  0.00     0.161 C 
ATOM      2  C   LIG d   1      -6.903  77.031 117.559  0.00  0.00     0.016 C 
ATOM      3  C   LIG d   1      -7.851  76.483 116.665  0.00  0.00     0.038 C 
ATOM      4  C   LIG d   1      -7.479  75.961 115.417  0.00  0.00     0.028 C 
ATOM      5  C   LIG d   1      -6.225  76.609 114.840  0.00  0.00    -0.047 C 
ATOM      6  C   LIG d   1      -5.106  76.574 115.906  0.00  0.00     0.091 C 
ENDROOT
BRANCH   1   7
ATOM      7  O   LIG d   1      -4.710  76.815 118.312  0.00  0.00    -0.368 OA
BRANCH   7   8
ATOM      8  C   LIG d   1      -4.049  77.869 119.054  0.00  0.00     0.119 C 
BRANCH   8   9
ATOM      9  C   LIG d   1      -4.412  79.207 118.380  0.00  0.00     0.028 C 
ATOM     10  C   LIG d   1      -4.946  80.243 119.383  0.00  0.00     0.006 C 
ENDBRANCH   8   9
BRANCH   8  11
ATOM     11  C   LIG d   1      -2.526  77.759 118.942  0.00  0.00     0.028 C 
ATOM     12  C   LIG d   1      -2.062  76.367 118.484  0.00  0.00     0.006 C 
ENDBRANCH   8  11
ENDBRANCH   7   8
ENDBRANCH   1   7
BRANCH   6  13
ATOM     13  N   LIG d   1      -3.869  77.262 115.453  0.00  0.00    -0.311 N 
ATOM     14  C   LIG d   1      -2.862  76.637 114.847  0.00  0.00     0.210 C 
ATOM     15  C   LIG d   1      -1.672  77.530 114.481  0.00  0.00     0.109 C 
ATOM     16  O   LIG d   1      -2.853  75.433 114.550  0.00  0.00    -0.276 OA
ATOM     17  H   LIG d   1      -3.806  78.246 115.627  0.00  0.00     0.149 HD
ENDBRANCH   6  13
BRANCH   5  18
ATOM     18  N   LIG d   1      -5.872  75.878 113.608  0.00  0.00     0.381 N 
ATOM     19  H   LIG d   1      -6.705  75.560 113.153  0.00  0.00    -0.090 HD
ATOM     20  H   LIG d   1      -5.320  75.075 113.853  0.00  0.00    -0.090 HD
ATOM     21  H   LIG d   1      -5.356  76.471 112.995  0.00  0.00    -0.090 HD
ENDBRANCH   5  18
BRANCH   3  22
ATOM     22  C   LIG d   1      -9.197  76.489 117.001  0.00  0.00     0.382 C 
ATOM     23  O   LIG d   1      -9.668  77.428 117.686  0.00  0.00    -0.241 OA
ATOM     24  O   LIG d   1      -9.936  75.544 116.666  0.00  0.00    -0.241 OA
ENDBRANCH   3  22
TORSDOF 7
ENDMDL
