MODEL 1
REMARK VINA RESULT:      -5.0      0.000      0.000
REMARK  7 active torsions:
REMARK  status: ('A' for Active; 'I' for Inactive)
REMARK    1  A    between atoms: C_2  and  C_3 
REMARK    2  A    between atoms: C_3  and  O_6 
REMARK    3  A    between atoms: C_3  and  C_4 
REMARK    4  A    between atoms: C_7  and  O_6 
REMARK    5  A    between atoms: C_9  and  C_10 
REMARK    6  A    between atoms: N_15  and  C_14 
REMARK    7  A    between atoms: N_20  and  C_19 
REMARK       I    between atoms: C_22  and  N_20 
ROOT
ATOM      1  C   LIG d   1      -2.887  78.405 115.584  0.00  0.00     0.161 C 
ATOM      2  C   LIG d   1      -2.940  79.528 114.741  0.00  0.00     0.016 C 
ATOM      3  C   LIG d   1      -2.265  79.603 113.501  0.00  0.00     0.038 C 
ATOM      4  C   LIG d   1      -1.608  78.495 112.946  0.00  0.00     0.028 C 
ATOM      5  C   LIG d   1      -1.104  77.504 113.990  0.00  0.00    -0.047 C 
ATOM      6  C   LIG d   1      -2.266  77.145 114.944  0.00  0.00     0.091 C 
ENDROOT
BRANCH   1   7
ATOM      7  O   LIG d   1      -4.203  78.112 116.092  0.00  0.00    -0.368 OA
BRANCH   7   8
ATOM      8  C   LIG d   1      -4.500  78.612 117.419  0.00  0.00     0.119 C 
BRANCH   8   9
ATOM      9  C   LIG d   1      -5.194  77.477 118.197  0.00  0.00     0.028 C 
ATOM     10  C   LIG d   1      -5.122  76.130 117.458  0.00  0.00     0.006 C 
ENDBRANCH   8   9
BRANCH   8  11
ATOM     11  C   LIG d   1      -5.521  79.752 117.369  0.00  0.00     0.028 C 
ATOM     12  C   LIG d   1      -6.950  79.288 117.695  0.00  0.00     0.006 C 
ENDBRANCH   8  11
ENDBRANCH   7   8
ENDBRANCH   1   7
BRANCH   6  13
ATOM     13  N   LIG d   1      -1.837  76.245 116.046  0.00  0.00    -0.311 N 
ATOM     14  C   LIG d   1      -1.937  74.918 115.990  0.00  0.00     0.210 C 
ATOM     15  C   LIG d   1      -1.456  74.180 117.243  0.00  0.00     0.109 C 
ATOM     16  O   LIG d   1      -2.349  74.281 115.009  0.00  0.00    -0.276 OA
ATOM     17  H   LIG d   1      -1.462  76.677 116.868  0.00  0.00     0.149 HD
ENDBRANCH   6  13
BRANCH   5  18
ATOM     18  N   LIG d   1      -0.564  76.335 113.270  0.00  0.00     0.381 N 
ATOM     19  H   LIG d   1      -0.654  75.517 113.839  0.00  0.00    -0.090 HD
ATOM     20  H   LIG d   1       0.412  76.488 113.089  0.00  0.00    -0.090 HD
ATOM     21  H   LIG d   1      -1.053  76.208 112.412  0.00  0.00    -0.090 HD
ENDBRANCH   5  18
BRANCH   3  22
ATOM     22  C   LIG d   1      -2.209  80.811 112.822  0.00  0.00     0.382 C 
ATOM     23  O   LIG d   1      -1.152  81.154 112.240  0.00  0.00    -0.241 OA
ATOM     24  O   LIG d   1      -3.188  81.581 112.821  0.00  0.00    -0.241 OA
ENDBRANCH   3  22
TORSDOF 7
ENDMDL
MODEL 2
REMARK VINA RESULT:      -4.8      3.525      5.668
REMARK  7 active torsions:
REMARK  status: ('A' for Active; 'I' for Inactive)
REMARK    1  A    between atoms: C_2  and  C_3 
REMARK    2  A    between atoms: C_3  and  O_6 
REMARK    3  A    between atoms: C_3  and  C_4 
REMARK    4  A    between atoms: C_7  and  O_6 
REMARK    5  A    between atoms: C_9  and  C_10 
REMARK    6  A    between atoms: N_15  and  C_14 
REMARK    7  A    between atoms: N_20  and  C_19 
REMARK       I    between atoms: C_22  and  N_20 
ROOT
ATOM      1  C   LIG d   1      -6.491  77.728 116.893  0.00  0.00     0.161 C 
ATOM      2  C   LIG d   1      -6.072  76.695 116.039  0.00  0.00     0.016 C 
ATOM      3  C   LIG d   1      -4.738  76.547 115.593  0.00  0.00     0.038 C 
ATOM      4  C   LIG d   1      -3.696  77.341 116.095  0.00  0.00     0.028 C 
ATOM      5  C   LIG d   1      -4.156  78.715 116.571  0.00  0.00    -0.047 C 
ATOM      6  C   LIG d   1      -5.347  78.537 117.540  0.00  0.00     0.091 C 
ENDROOT
BRANCH   1   7
ATOM      7  O   LIG d   1      -7.366  77.198 117.908  0.00  0.00    -0.368 OA
BRANCH   7   8
ATOM      8  C   LIG d   1      -8.786  77.384 117.687  0.00  0.00     0.119 C 
BRANCH   8   9
ATOM      9  C   LIG d   1      -9.265  78.485 118.653  0.00  0.00     0.028 C 
ATOM     10  C   LIG d   1      -9.494  79.830 117.943  0.00  0.00     0.006 C 
ENDBRANCH   8   9
BRANCH   8  11
ATOM     11  C   LIG d   1      -9.579  76.132 118.074  0.00  0.00     0.028 C 
ATOM     12  C   LIG d   1      -9.137  74.883 117.295  0.00  0.00     0.006 C 
ENDBRANCH   8  11
ENDBRANCH   7   8
ENDBRANCH   1   7
BRANCH   6  13
ATOM     13  N   LIG d   1      -5.913  79.837 117.987  0.00  0.00    -0.311 N 
ATOM     14  C   LIG d   1      -5.545  80.448 119.112  0.00  0.00     0.210 C 
ATOM     15  C   LIG d   1      -6.266  81.769 119.396  0.00  0.00     0.109 C 
ATOM     16  O   LIG d   1      -4.666  80.038 119.885  0.00  0.00    -0.276 OA
ATOM     17  H   LIG d   1      -6.609  80.257 117.403  0.00  0.00     0.149 HD
ENDBRANCH   6  13
BRANCH   5  18
ATOM     18  N   LIG d   1      -2.998  79.381 117.195  0.00  0.00     0.381 N 
ATOM     19  H   LIG d   1      -2.291  79.546 116.507  0.00  0.00    -0.090 HD
ATOM     20  H   LIG d   1      -2.616  78.776 117.900  0.00  0.00    -0.090 HD
ATOM     21  H   LIG d   1      -3.281  80.244 117.605  0.00  0.00    -0.090 HD
ENDBRANCH   5  18
BRANCH   3  22
ATOM     22  C   LIG d   1      -4.444  75.623 114.603  0.00  0.00     0.382 C 
ATOM     23  O   LIG d   1      -4.898  75.779 113.444  0.00  0.00    -0.241 OA
ATOM     24  O   LIG d   1      -3.766  74.611 114.865  0.00  0.00    -0.241 OA
ENDBRANCH   3  22
TORSDOF 7
ENDMDL
MODEL 3
REMARK VINA RESULT:      -4.8      3.918      7.368
REMARK  7 active torsions:
REMARK  status: ('A' for Active; 'I' for Inactive)
REMARK    1  A    between atoms: C_2  and  C_3 
REMARK    2  A    between atoms: C_3  and  O_6 
REMARK    3  A    between atoms: C_3  and  C_4 
REMARK    4  A    between atoms: C_7  and  O_6 
REMARK    5  A    between atoms: C_9  and  C_10 
REMARK    6  A    between atoms: N_15  and  C_14 
REMARK    7  A    between atoms: N_20  and  C_19 
REMARK       I    between atoms: C_22  and  N_20 
ROOT
ATOM      1  C   LIG d   1      -6.385  78.260 117.432  0.00  0.00     0.161 C 
ATOM      2  C   LIG d   1      -6.601  76.903 117.140  0.00  0.00     0.016 C 
ATOM      3  C   LIG d   1      -7.843  76.254 117.330  0.00  0.00     0.038 C 
ATOM      4  C   LIG d   1      -9.002  76.960 117.684  0.00  0.00     0.028 C 
ATOM      5  C   LIG d   1      -8.718  78.233 118.474  0.00  0.00    -0.047 C 
ATOM      6  C   LIG d   1      -7.666  79.072 117.713  0.00  0.00     0.091 C 
ENDROOT
BRANCH   1   7
ATOM      7  O   LIG d   1      -5.626  78.873 116.371  0.00  0.00    -0.368 OA
BRANCH   7   8
ATOM      8  C   LIG d   1      -4.310  79.361 116.729  0.00  0.00     0.119 C 
BRANCH   8   9
ATOM      9  C   LIG d   1      -3.280  78.560 115.909  0.00  0.00     0.028 C 
ATOM     10  C   LIG d   1      -2.653  79.393 114.779  0.00  0.00     0.006 C 
ENDBRANCH   8   9
BRANCH   8  11
ATOM     11  C   LIG d   1      -3.984  79.061 118.195  0.00  0.00     0.028 C 
ATOM     12  C   LIG d   1      -3.616  80.322 118.993  0.00  0.00     0.006 C 
ENDBRANCH   8  11
ENDBRANCH   7   8
ENDBRANCH   1   7
BRANCH   6  13
ATOM     13  N   LIG d   1      -7.269  80.295 118.459  0.00  0.00    -0.311 N 
ATOM     14  C   LIG d   1      -7.145  81.493 117.891  0.00  0.00     0.210 C 
ATOM     15  C   LIG d   1      -6.706  82.615 118.836  0.00  0.00     0.109 C 
ATOM     16  O   LIG d   1      -7.389  81.739 116.700  0.00  0.00    -0.276 OA
ATOM     17  H   LIG d   1      -7.082  80.192 119.437  0.00  0.00     0.149 HD
ENDBRANCH   6  13
BRANCH   5  18
ATOM     18  N   LIG d   1     -10.000  78.940 118.657  0.00  0.00     0.381 N 
ATOM     19  H   LIG d   1      -9.877  79.706 119.287  0.00  0.00    -0.090 HD
ATOM     20  H   LIG d   1     -10.667  78.305 119.058  0.00  0.00    -0.090 HD
ATOM     21  H   LIG d   1     -10.334  79.272 117.779  0.00  0.00    -0.090 HD
ENDBRANCH   5  18
BRANCH   3  22
ATOM     22  C   LIG d   1      -7.924  74.875 117.203  0.00  0.00     0.382 C 
ATOM     23  O   LIG d   1      -6.907  74.214 116.884  0.00  0.00    -0.241 OA
ATOM     24  O   LIG d   1      -9.012  74.290 117.361  0.00  0.00    -0.241 OA
ENDBRANCH   3  22
TORSDOF 7
ENDMDL
MODEL 4
REMARK VINA RESULT:      -4.8      3.319      4.700
REMARK  7 active torsions:
REMARK  status: ('A' for Active; 'I' for Inactive)
REMARK    1  A    between atoms: C_2  and  C_3 
REMARK    2  A    between atoms: C_3  and  O_6 
REMARK    3  A    between atoms: C_3  and  C_4 
REMARK    4  A    between atoms: C_7  and  O_6 
REMARK    5  A    between atoms: C_9  and  C_10 
REMARK    6  A    between atoms: N_15  and  C_14 
REMARK    7  A    between atoms: N_20  and  C_19 
REMARK       I    between atoms: C_22  and  N_20 
ROOT
ATOM      1  C   LIG d   1      -5.260  76.327 118.086  0.00  0.00     0.161 C 
ATOM      2  C   LIG d   1      -6.213  77.359 118.091  0.00  0.00     0.016 C 
ATOM      3  C   LIG d   1      -5.977  78.639 117.538  0.00  0.00     0.038 C 
ATOM      4  C   LIG d   1      -4.817  78.927 116.803  0.00  0.00     0.028 C 
ATOM      5  C   LIG d   1      -3.618  78.076 117.206  0.00  0.00    -0.047 C 
ATOM      6  C   LIG d   1      -4.031  76.587 117.190  0.00  0.00     0.091 C 
ENDROOT
BRANCH   1   7
ATOM      7  O   LIG d   1      -5.890  75.083 117.723  0.00  0.00    -0.368 OA
BRANCH   7   8
ATOM      8  C   LIG d   1      -6.846  75.145 116.636  0.00  0.00     0.119 C 
BRANCH   8   9
ATOM      9  C   LIG d   1      -8.098  74.361 117.075  0.00  0.00     0.028 C 
ATOM     10  C   LIG d   1      -9.292  75.283 117.375  0.00  0.00     0.006 C 
ENDBRANCH   8   9
BRANCH   8  11
ATOM     11  C   LIG d   1      -6.326  74.415 115.394  0.00  0.00     0.028 C 
ATOM     12  C   LIG d   1      -5.918  75.375 114.266  0.00  0.00     0.006 C 
ENDBRANCH   8  11
ENDBRANCH   7   8
ENDBRANCH   1   7
BRANCH   6  13
ATOM     13  N   LIG d   1      -2.939  75.691 117.654  0.00  0.00    -0.311 N 
ATOM     14  C   LIG d   1      -2.093  75.078 116.827  0.00  0.00     0.210 C 
ATOM     15  C   LIG d   1      -1.055  74.183 117.512  0.00  0.00     0.109 C 
ATOM     16  O   LIG d   1      -2.084  75.215 115.595  0.00  0.00    -0.276 OA
ATOM     17  H   LIG d   1      -2.855  75.548 118.641  0.00  0.00     0.149 HD
ENDBRANCH   6  13
BRANCH   5  18
ATOM     18  N   LIG d   1      -2.520  78.382 116.270  0.00  0.00     0.381 N 
ATOM     19  H   LIG d   1      -1.645  78.361 116.756  0.00  0.00    -0.090 HD
ATOM     20  H   LIG d   1      -2.654  79.308 115.903  0.00  0.00    -0.090 HD
ATOM     21  H   LIG d   1      -2.511  77.720 115.526  0.00  0.00    -0.090 HD
ENDBRANCH   5  18
BRANCH   3  22
ATOM     22  C   LIG d   1      -6.891  79.660 117.754  0.00  0.00     0.382 C 
ATOM     23  O   LIG d   1      -6.865  80.686 117.032  0.00  0.00    -0.241 OA
ATOM     24  O   LIG d   1      -7.711  79.587 118.688  0.00  0.00    -0.241 OA
ENDBRANCH   3  22
TORSDOF 7
ENDMDL
MODEL 5
REMARK VINA RESULT:      -4.6      3.407      5.365
REMARK  7 active torsions:
REMARK  status: ('A' for Active; 'I' for Inactive)
REMARK    1  A    between atoms: C_2  and  C_3 
REMARK    2  A    between atoms: C_3  and  O_6 
REMARK    3  A    between atoms: C_3  and  C_4 
REMARK    4  A    between atoms: C_7  and  O_6 
REMARK    5  A    between atoms: C_9  and  C_10 
REMARK    6  A    between atoms: N_15  and  C_14 
REMARK    7  A    between atoms: N_20  and  C_19 
REMARK       I    between atoms: C_22  and  N_20 
ROOT
ATOM      1  C   LIG d   1      -6.550  77.127 117.174  0.00  0.00     0.161 C 
ATOM      2  C   LIG d   1      -6.441  76.302 116.042  0.00  0.00     0.016 C 
ATOM      3  C   LIG d   1      -5.233  76.109 115.333  0.00  0.00     0.038 C 
ATOM      4  C   LIG d   1      -4.010  76.612 115.802  0.00  0.00     0.028 C 
ATOM      5  C   LIG d   1      -4.159  77.865 116.658  0.00  0.00    -0.047 C 
ATOM      6  C   LIG d   1      -5.204  77.596 117.765  0.00  0.00     0.091 C 
ENDROOT
BRANCH   1   7
ATOM      7  O   LIG d   1      -7.338  76.468 118.185  0.00  0.00    -0.368 OA
BRANCH   7   8
ATOM      8  C   LIG d   1      -8.666  77.004 118.408  0.00  0.00     0.119 C 
BRANCH   8   9
ATOM      9  C   LIG d   1      -9.668  76.064 117.710  0.00  0.00     0.028 C 
ATOM     10  C   LIG d   1      -9.146  74.621 117.610  0.00  0.00     0.006 C 
ENDBRANCH   8   9
BRANCH   8  11
ATOM     11  C   LIG d   1      -8.840  78.363 117.723  0.00  0.00     0.028 C 
ATOM     12  C   LIG d   1      -9.551  79.393 118.616  0.00  0.00     0.006 C 
ENDBRANCH   8  11
ENDBRANCH   7   8
ENDBRANCH   1   7
BRANCH   6  13
ATOM     13  N   LIG d   1      -5.471  78.798 118.596  0.00  0.00    -0.311 N 
ATOM     14  C   LIG d   1      -5.762  79.993 118.085  0.00  0.00     0.210 C 
ATOM     15  C   LIG d   1      -5.983  81.102 119.119  0.00  0.00     0.109 C 
ATOM     16  O   LIG d   1      -5.890  80.232 116.875  0.00  0.00    -0.276 OA
ATOM     17  H   LIG d   1      -5.419  78.686 119.590  0.00  0.00     0.149 HD
ENDBRANCH   6  13
BRANCH   5  18
ATOM     18  N   LIG d   1      -2.825  78.201 117.191  0.00  0.00     0.381 N 
ATOM     19  H   LIG d   1      -2.842  78.169 118.191  0.00  0.00    -0.090 HD
ATOM     20  H   LIG d   1      -2.588  79.136 116.909  0.00  0.00    -0.090 HD
ATOM     21  H   LIG d   1      -2.147  77.559 116.843  0.00  0.00    -0.090 HD
ENDBRANCH   5  18
BRANCH   3  22
ATOM     22  C   LIG d   1      -5.248  75.438 114.120  0.00  0.00     0.382 C 
ATOM     23  O   LIG d   1      -4.775  74.279 114.039  0.00  0.00    -0.241 OA
ATOM     24  O   LIG d   1      -5.690  75.994 113.096  0.00  0.00    -0.241 OA
ENDBRANCH   3  22
TORSDOF 7
ENDMDL
MODEL 6
REMARK VINA RESULT:      -4.5      2.226      3.421
REMARK  7 active torsions:
REMARK  status: ('A' for Active; 'I' for Inactive)
REMARK    1  A    between atoms: C_2  and  C_3 
REMARK    2  A    between atoms: C_3  and  O_6 
REMARK    3  A    between atoms: C_3  and  C_4 
REMARK    4  A    between atoms: C_7  and  O_6 
REMARK    5  A    between atoms: C_9  and  C_10 
REMARK    6  A    between atoms: N_15  and  C_14 
REMARK    7  A    between atoms: N_20  and  C_19 
REMARK       I    between atoms: C_22  and  N_20 
ROOT
ATOM      1  C   LIG d   1      -4.853  78.296 116.751  0.00  0.00     0.161 C 
ATOM      2  C   LIG d   1      -3.838  79.117 116.231  0.00  0.00     0.016 C 
ATOM      3  C   LIG d   1      -2.768  78.629 115.446  0.00  0.00     0.038 C 
ATOM      4  C   LIG d   1      -2.722  77.301 114.999  0.00  0.00     0.028 C 
ATOM      5  C   LIG d   1      -3.454  76.327 115.916  0.00  0.00    -0.047 C 
ATOM      6  C   LIG d   1      -4.880  76.862 116.180  0.00  0.00     0.091 C 
ENDROOT
BRANCH   1   7
ATOM      7  O   LIG d   1      -6.134  78.930 116.572  0.00  0.00    -0.368 OA
BRANCH   7   8
ATOM      8  C   LIG d   1      -6.760  79.451 117.771  0.00  0.00     0.119 C 
BRANCH   8   9
ATOM      9  C   LIG d   1      -8.115  78.735 117.934  0.00  0.00     0.028 C 
ATOM     10  C   LIG d   1      -9.305  79.707 117.866  0.00  0.00     0.006 C 
ENDBRANCH   8   9
BRANCH   8  11
ATOM     11  C   LIG d   1      -7.103  80.936 117.620  0.00  0.00     0.028 C 
ATOM     12  C   LIG d   1      -6.285  81.834 118.562  0.00  0.00     0.006 C 
ENDBRANCH   8  11
ENDBRANCH   7   8
ENDBRANCH   1   7
BRANCH   6  13
ATOM     13  N   LIG d   1      -5.636  76.012 117.136  0.00  0.00    -0.311 N 
ATOM     14  C   LIG d   1      -6.426  75.008 116.759  0.00  0.00     0.210 C 
ATOM     15  C   LIG d   1      -7.129  74.273 117.904  0.00  0.00     0.109 C 
ATOM     16  O   LIG d   1      -6.586  74.637 115.586  0.00  0.00    -0.276 OA
ATOM     17  H   LIG d   1      -5.540  76.224 118.110  0.00  0.00     0.149 HD
ENDBRANCH   6  13
BRANCH   5  18
ATOM     18  N   LIG d   1      -3.445  75.005 115.261  0.00  0.00     0.381 N 
ATOM     19  H   LIG d   1      -3.692  75.103 114.297  0.00  0.00    -0.090 HD
ATOM     20  H   LIG d   1      -4.129  74.418 115.704  0.00  0.00    -0.090 HD
ATOM     21  H   LIG d   1      -2.542  74.592 115.340  0.00  0.00    -0.090 HD
ENDBRANCH   5  18
BRANCH   3  22
ATOM     22  C   LIG d   1      -1.707  79.466 115.135  0.00  0.00     0.382 C 
ATOM     23  O   LIG d   1      -0.887  79.797 116.025  0.00  0.00    -0.241 OA
ATOM     24  O   LIG d   1      -1.586  79.931 113.986  0.00  0.00    -0.241 OA
ENDBRANCH   3  22
TORSDOF 7
ENDMDL
MODEL 7
REMARK VINA RESULT:      -4.5      4.127      7.481
REMARK  7 active torsions:
REMARK  status: ('A' for Active; 'I' for Inactive)
REMARK    1  A    between atoms: C_2  and  C_3 
REMARK    2  A    between atoms: C_3  and  O_6 
REMARK    3  A    between atoms: C_3  and  C_4 
REMARK    4  A    between atoms: C_7  and  O_6 
REMARK    5  A    between atoms: C_9  and  C_10 
REMARK    6  A    between atoms: N_15  and  C_14 
REMARK    7  A    between atoms: N_20  and  C_19 
REMARK       I    between atoms: C_22  and  N_20 
ROOT
ATOM      1  C   LIG d   1      -6.421  78.233 117.608  0.00  0.00     0.161 C 
ATOM      2  C   LIG d   1      -6.696  76.877 117.364  0.00  0.00     0.016 C 
ATOM      3  C   LIG d   1      -7.983  76.307 117.500  0.00  0.00     0.038 C 
ATOM      4  C   LIG d   1      -9.119  77.092 117.746  0.00  0.00     0.028 C 
ATOM      5  C   LIG d   1      -8.812  78.384 118.496  0.00  0.00    -0.047 C 
ATOM      6  C   LIG d   1      -7.668  79.127 117.768  0.00  0.00     0.091 C 
ENDROOT
BRANCH   1   7
ATOM      7  O   LIG d   1      -5.563  78.751 116.572  0.00  0.00    -0.368 OA
BRANCH   7   8
ATOM      8  C   LIG d   1      -4.139  78.685 116.832  0.00  0.00     0.119 C 
BRANCH   8   9
ATOM      9  C   LIG d   1      -3.797  79.810 117.828  0.00  0.00     0.028 C 
ATOM     10  C   LIG d   1      -3.435  79.271 119.222  0.00  0.00     0.006 C 
ENDBRANCH   8   9
BRANCH   8  11
ATOM     11  C   LIG d   1      -3.327  78.998 115.572  0.00  0.00     0.028 C 
ATOM     12  C   LIG d   1      -1.852  79.304 115.874  0.00  0.00     0.006 C 
ENDBRANCH   8  11
ENDBRANCH   7   8
ENDBRANCH   1   7
BRANCH   6  13
ATOM     13  N   LIG d   1      -7.248  80.360 118.484  0.00  0.00    -0.311 N 
ATOM     14  C   LIG d   1      -7.093  81.539 117.883  0.00  0.00     0.210 C 
ATOM     15  C   LIG d   1      -6.634  82.677 118.801  0.00  0.00     0.109 C 
ATOM     16  O   LIG d   1      -7.322  81.758 116.684  0.00  0.00    -0.276 OA
ATOM     17  H   LIG d   1      -7.071  80.280 119.466  0.00  0.00     0.149 HD
ENDBRANCH   6  13
BRANCH   5  18
ATOM     18  N   LIG d   1     -10.060  79.168 118.563  0.00  0.00     0.381 N 
ATOM     19  H   LIG d   1     -10.428  79.298 117.641  0.00  0.00    -0.090 HD
ATOM     20  H   LIG d   1      -9.856  80.072 118.951  0.00  0.00    -0.090 HD
ATOM     21  H   LIG d   1     -10.728  78.697 119.132  0.00  0.00    -0.090 HD
ENDBRANCH   5  18
BRANCH   3  22
ATOM     22  C   LIG d   1      -8.136  74.931 117.430  0.00  0.00     0.382 C 
ATOM     23  O   LIG d   1      -7.139  74.181 117.564  0.00  0.00    -0.241 OA
ATOM     24  O   LIG d   1      -9.251  74.431 117.191  0.00  0.00    -0.241 OA
ENDBRANCH   3  22
TORSDOF 7
ENDMDL
MODEL 8
REMARK VINA RESULT:      -4.5      3.564      4.945
REMARK  7 active torsions:
REMARK  status: ('A' for Active; 'I' for Inactive)
REMARK    1  A    between atoms: C_2  and  C_3 
REMARK    2  A    between atoms: C_3  and  O_6 
REMARK    3  A    between atoms: C_3  and  C_4 
REMARK    4  A    between atoms: C_7  and  O_6 
REMARK    5  A    between atoms: C_9  and  C_10 
REMARK    6  A    between atoms: N_15  and  C_14 
REMARK    7  A    between atoms: N_20  and  C_19 
REMARK       I    between atoms: C_22  and  N_20 
ROOT
ATOM      1  C   LIG d   1      -6.120  77.559 117.631  0.00  0.00     0.161 C 
ATOM      2  C   LIG d   1      -7.015  78.641 117.590  0.00  0.00     0.016 C 
ATOM      3  C   LIG d   1      -6.600  79.992 117.556  0.00  0.00     0.038 C 
ATOM      4  C   LIG d   1      -5.252  80.351 117.405  0.00  0.00     0.028 C 
ATOM      5  C   LIG d   1      -4.283  79.307 117.949  0.00  0.00    -0.047 C 
ATOM      6  C   LIG d   1      -4.647  77.927 117.355  0.00  0.00     0.091 C 
ENDROOT
BRANCH   1   7
ATOM      7  O   LIG d   1      -6.558  76.529 116.722  0.00  0.00    -0.368 OA
BRANCH   7   8
ATOM      8  C   LIG d   1      -6.931  75.265 117.323  0.00  0.00     0.119 C 
BRANCH   8   9
ATOM      9  C   LIG d   1      -5.998  74.184 116.744  0.00  0.00     0.028 C 
ATOM     10  C   LIG d   1      -5.404  74.588 115.384  0.00  0.00     0.006 C 
ENDBRANCH   8   9
BRANCH   8  11
ATOM     11  C   LIG d   1      -8.344  74.846 116.908  0.00  0.00     0.028 C 
ATOM     12  C   LIG d   1      -9.439  75.570 117.707  0.00  0.00     0.006 C 
ENDBRANCH   8  11
ENDBRANCH   7   8
ENDBRANCH   1   7
BRANCH   6  13
ATOM     13  N   LIG d   1      -3.801  76.834 117.900  0.00  0.00    -0.311 N 
ATOM     14  C   LIG d   1      -2.700  76.389 117.297  0.00  0.00     0.210 C 
ATOM     15  C   LIG d   1      -1.986  75.241 118.019  0.00  0.00     0.109 C 
ATOM     16  O   LIG d   1      -2.229  76.856 116.250  0.00  0.00    -0.276 OA
ATOM     17  H   LIG d   1      -4.092  76.418 118.763  0.00  0.00     0.149 HD
ENDBRANCH   6  13
BRANCH   5  18
ATOM     18  N   LIG d   1      -2.917  79.743 117.604  0.00  0.00     0.381 N 
ATOM     19  H   LIG d   1      -2.910  80.729 117.433  0.00  0.00    -0.090 HD
ATOM     20  H   LIG d   1      -2.630  79.275 116.762  0.00  0.00    -0.090 HD
ATOM     21  H   LIG d   1      -2.291  79.522 118.346  0.00  0.00    -0.090 HD
ENDBRANCH   5  18
BRANCH   3  22
ATOM     22  C   LIG d   1      -7.537  81.003 117.712  0.00  0.00     0.382 C 
ATOM     23  O   LIG d   1      -7.371  81.881 118.593  0.00  0.00    -0.241 OA
ATOM     24  O   LIG d   1      -8.568  81.022 117.014  0.00  0.00    -0.241 OA
ENDBRANCH   3  22
TORSDOF 7
ENDMDL
MODEL 9
REMARK VINA RESULT:      -4.4      2.549      3.364
REMARK  7 active torsions:
REMARK  status: ('A' for Active; 'I' for Inactive)
REMARK    1  A    between atoms: C_2  and  C_3 
REMARK    2  A    between atoms: C_3  and  O_6 
REMARK    3  A    between atoms: C_3  and  C_4 
REMARK    4  A    between atoms: C_7  and  O_6 
REMARK    5  A    between atoms: C_9  and  C_10 
REMARK    6  A    between atoms: N_15  and  C_14 
REMARK    7  A    between atoms: N_20  and  C_19 
REMARK       I    between atoms: C_22  and  N_20 
ROOT
ATOM      1  C   LIG d   1      -2.602  76.970 114.621  0.00  0.00     0.161 C 
ATOM      2  C   LIG d   1      -2.428  77.211 113.248  0.00  0.00     0.016 C 
ATOM      3  C   LIG d   1      -1.610  78.246 112.737  0.00  0.00     0.038 C 
ATOM      4  C   LIG d   1      -0.787  79.019 113.568  0.00  0.00     0.028 C 
ATOM      5  C   LIG d   1      -1.313  79.145 114.994  0.00  0.00    -0.047 C 
ATOM      6  C   LIG d   1      -1.625  77.732 115.540  0.00  0.00     0.091 C 
ENDROOT
BRANCH   1   7
ATOM      7  O   LIG d   1      -2.533  75.554 114.880  0.00  0.00    -0.368 OA
BRANCH   7   8
ATOM      8  C   LIG d   1      -3.787  74.903 115.201  0.00  0.00     0.119 C 
BRANCH   8   9
ATOM      9  C   LIG d   1      -4.915  75.921 114.947  0.00  0.00     0.028 C 
ATOM     10  C   LIG d   1      -5.898  75.449 113.862  0.00  0.00     0.006 C 
ENDBRANCH   8   9
BRANCH   8  11
ATOM     11  C   LIG d   1      -3.874  74.565 116.692  0.00  0.00     0.028 C 
ATOM     12  C   LIG d   1      -4.956  75.373 117.424  0.00  0.00     0.006 C 
ENDBRANCH   8  11
ENDBRANCH   7   8
ENDBRANCH   1   7
BRANCH   6  13
ATOM     13  N   LIG d   1      -2.224  77.770 116.900  0.00  0.00    -0.311 N 
ATOM     14  C   LIG d   1      -1.641  77.236 117.972  0.00  0.00     0.210 C 
ATOM     15  C   LIG d   1      -2.438  77.368 119.274  0.00  0.00     0.109 C 
ATOM     16  O   LIG d   1      -0.525  76.695 117.975  0.00  0.00    -0.276 OA
ATOM     17  H   LIG d   1      -3.114  78.218 116.994  0.00  0.00     0.149 HD
ENDBRANCH   6  13
BRANCH   5  18
ATOM     18  N   LIG d   1      -0.292  79.858 115.785  0.00  0.00     0.381 N 
ATOM     19  H   LIG d   1      -0.735  80.516 116.394  0.00  0.00    -0.090 HD
ATOM     20  H   LIG d   1       0.310  80.363 115.159  0.00  0.00    -0.090 HD
ATOM     21  H   LIG d   1       0.242  79.207 116.318  0.00  0.00    -0.090 HD
ENDBRANCH   5  18
BRANCH   3  22
ATOM     22  C   LIG d   1      -1.642  78.541 111.382  0.00  0.00     0.382 C 
ATOM     23  O   LIG d   1      -2.261  77.790 110.591  0.00  0.00    -0.241 OA
ATOM     24  O   LIG d   1      -1.022  79.525 110.936  0.00  0.00    -0.241 OA
ENDBRANCH   3  22
TORSDOF 7
ENDMDL
