MODEL 1
REMARK VINA RESULT:      -5.4      0.000      0.000
REMARK  7 active torsions:
REMARK  status: ('A' for Active; 'I' for Inactive)
REMARK    1  A    between atoms: C_2  and  C_3 
REMARK    2  A    between atoms: C_3  and  O_6 
REMARK    3  A    between atoms: C_3  and  C_4 
REMARK    4  A    between atoms: C_7  and  O_6 
REMARK    5  A    between atoms: C_9  and  C_10 
REMARK    6  A    between atoms: N_15  and  C_14 
REMARK    7  A    between atoms: N_20  and  C_19 
REMARK       I    between atoms: C_22  and  N_20 
ROOT
ATOM      1  C   LIG d   1      -3.255  77.013 113.928  0.00  0.00     0.161 C 
ATOM      2  C   LIG d   1      -2.958  77.631 112.702  0.00  0.00     0.016 C 
ATOM      3  C   LIG d   1      -1.641  77.811 112.221  0.00  0.00     0.038 C 
ATOM      4  C   LIG d   1      -0.531  77.247 112.867  0.00  0.00     0.028 C 
ATOM      5  C   LIG d   1      -0.738  77.051 114.365  0.00  0.00    -0.047 C 
ATOM      6  C   LIG d   1      -2.064  76.292 114.594  0.00  0.00     0.091 C 
ENDROOT
BRANCH   1   7
ATOM      7  O   LIG d   1      -4.362  76.105 113.762  0.00  0.00    -0.368 OA
BRANCH   7   8
ATOM      8  C   LIG d   1      -5.664  76.611 114.145  0.00  0.00     0.119 C 
BRANCH   8   9
ATOM      9  C   LIG d   1      -6.139  75.793 115.362  0.00  0.00     0.028 C 
ATOM     10  C   LIG d   1      -6.028  74.277 115.129  0.00  0.00     0.006 C 
ENDBRANCH   8   9
BRANCH   8  11
ATOM     11  C   LIG d   1      -6.705  76.353 113.052  0.00  0.00     0.028 C 
ATOM     12  C   LIG d   1      -6.451  77.178 111.780  0.00  0.00     0.006 C 
ENDBRANCH   8  11
ENDBRANCH   7   8
ENDBRANCH   1   7
BRANCH   6  13
ATOM     13  N   LIG d   1      -2.385  76.133 116.037  0.00  0.00    -0.311 N 
ATOM     14  C   LIG d   1      -1.976  75.098 116.769  0.00  0.00     0.210 C 
ATOM     15  C   LIG d   1      -2.434  75.119 118.231  0.00  0.00     0.109 C 
ATOM     16  O   LIG d   1      -1.251  74.181 116.355  0.00  0.00    -0.276 OA
ATOM     17  H   LIG d   1      -2.943  76.848 116.462  0.00  0.00     0.149 HD
ENDBRANCH   6  13
BRANCH   5  18
ATOM     18  N   LIG d   1       0.439  76.330 114.887  0.00  0.00     0.381 N 
ATOM     19  H   LIG d   1       1.146  76.281 114.181  0.00  0.00    -0.090 HD
ATOM     20  H   LIG d   1       0.166  75.393 115.126  0.00  0.00    -0.090 HD
ATOM     21  H   LIG d   1       0.794  76.796 115.693  0.00  0.00    -0.090 HD
ENDBRANCH   5  18
BRANCH   3  22
ATOM     22  C   LIG d   1      -1.420  78.598 111.100  0.00  0.00     0.382 C 
ATOM     23  O   LIG d   1      -0.830  79.700 111.214  0.00  0.00    -0.241 OA
ATOM     24  O   LIG d   1      -1.843  78.241 109.985  0.00  0.00    -0.241 OA
ENDBRANCH   3  22
TORSDOF 7
ENDMDL
MODEL 2
REMARK VINA RESULT:      -5.3      2.909      3.606
REMARK  7 active torsions:
REMARK  status: ('A' for Active; 'I' for Inactive)
REMARK    1  A    between atoms: C_2  and  C_3 
REMARK    2  A    between atoms: C_3  and  O_6 
REMARK    3  A    between atoms: C_3  and  C_4 
REMARK    4  A    between atoms: C_7  and  O_6 
REMARK    5  A    between atoms: C_9  and  C_10 
REMARK    6  A    between atoms: N_15  and  C_14 
REMARK    7  A    between atoms: N_20  and  C_19 
REMARK       I    between atoms: C_22  and  N_20 
ROOT
ATOM      1  C   LIG d   1      -2.030  78.376 114.915  0.00  0.00     0.161 C 
ATOM      2  C   LIG d   1      -2.530  79.574 114.378  0.00  0.00     0.016 C 
ATOM      3  C   LIG d   1      -2.351  79.956 113.028  0.00  0.00     0.038 C 
ATOM      4  C   LIG d   1      -1.785  79.089 112.081  0.00  0.00     0.028 C 
ATOM      5  C   LIG d   1      -0.816  78.080 112.686  0.00  0.00    -0.047 C 
ATOM      6  C   LIG d   1      -1.508  77.367 113.870  0.00  0.00     0.091 C 
ENDROOT
BRANCH   1   7
ATOM      7  O   LIG d   1      -3.031  77.760 115.749  0.00  0.00    -0.368 OA
BRANCH   7   8
ATOM      8  C   LIG d   1      -3.126  78.261 117.106  0.00  0.00     0.119 C 
BRANCH   8   9
ATOM      9  C   LIG d   1      -2.155  77.436 117.973  0.00  0.00     0.028 C 
ATOM     10  C   LIG d   1      -2.697  76.032 118.288  0.00  0.00     0.006 C 
ENDBRANCH   8   9
BRANCH   8  11
ATOM     11  C   LIG d   1      -4.515  78.005 117.698  0.00  0.00     0.028 C 
ATOM     12  C   LIG d   1      -5.323  79.297 117.901  0.00  0.00     0.006 C 
ENDBRANCH   8  11
ENDBRANCH   7   8
ENDBRANCH   1   7
BRANCH   6  13
ATOM     13  N   LIG d   1      -0.601  76.422 114.572  0.00  0.00    -0.311 N 
ATOM     14  C   LIG d   1      -0.992  75.236 115.035  0.00  0.00     0.210 C 
ATOM     15  C   LIG d   1       0.098  74.427 115.745  0.00  0.00     0.109 C 
ATOM     16  O   LIG d   1      -2.130  74.764 114.896  0.00  0.00    -0.276 OA
ATOM     17  H   LIG d   1       0.349  76.712 114.701  0.00  0.00     0.149 HD
ENDBRANCH   6  13
BRANCH   5  18
ATOM     18  N   LIG d   1      -0.409  77.154 111.612  0.00  0.00     0.381 N 
ATOM     19  H   LIG d   1       0.572  77.248 111.438  0.00  0.00    -0.090 HD
ATOM     20  H   LIG d   1      -0.903  77.394 110.771  0.00  0.00    -0.090 HD
ATOM     21  H   LIG d   1      -0.619  76.215 111.873  0.00  0.00    -0.090 HD
ENDBRANCH   5  18
BRANCH   3  22
ATOM     22  C   LIG d   1      -2.703  81.235 112.623  0.00  0.00     0.382 C 
ATOM     23  O   LIG d   1      -3.913  81.542 112.502  0.00  0.00    -0.241 OA
ATOM     24  O   LIG d   1      -1.826  82.070 112.335  0.00  0.00    -0.241 OA
ENDBRANCH   3  22
TORSDOF 7
ENDMDL
MODEL 3
REMARK VINA RESULT:      -5.1      1.916      4.920
REMARK  7 active torsions:
REMARK  status: ('A' for Active; 'I' for Inactive)
REMARK    1  A    between atoms: C_2  and  C_3 
REMARK    2  A    between atoms: C_3  and  O_6 
REMARK    3  A    between atoms: C_3  and  C_4 
REMARK    4  A    between atoms: C_7  and  O_6 
REMARK    5  A    between atoms: C_9  and  C_10 
REMARK    6  A    between atoms: N_15  and  C_14 
REMARK    7  A    between atoms: N_20  and  C_19 
REMARK       I    between atoms: C_22  and  N_20 
ROOT
ATOM      1  C   LIG d   1      -3.002  75.754 114.744  0.00  0.00     0.161 C 
ATOM      2  C   LIG d   1      -3.081  75.401 116.102  0.00  0.00     0.016 C 
ATOM      3  C   LIG d   1      -2.686  76.259 117.153  0.00  0.00     0.038 C 
ATOM      4  C   LIG d   1      -2.322  77.595 116.924  0.00  0.00     0.028 C 
ATOM      5  C   LIG d   1      -1.746  77.835 115.532  0.00  0.00    -0.047 C 
ATOM      6  C   LIG d   1      -2.713  77.246 114.480  0.00  0.00     0.091 C 
ENDROOT
BRANCH   1   7
ATOM      7  O   LIG d   1      -4.205  75.348 114.063  0.00  0.00    -0.368 OA
BRANCH   7   8
ATOM      8  C   LIG d   1      -5.350  76.223 114.214  0.00  0.00     0.119 C 
BRANCH   8   9
ATOM      9  C   LIG d   1      -6.170  75.710 115.414  0.00  0.00     0.028 C 
ATOM     10  C   LIG d   1      -6.604  76.845 116.357  0.00  0.00     0.006 C 
ENDBRANCH   8   9
BRANCH   8  11
ATOM     11  C   LIG d   1      -6.290  76.126 113.009  0.00  0.00     0.028 C 
ATOM     12  C   LIG d   1      -6.065  77.250 111.986  0.00  0.00     0.006 C 
ENDBRANCH   8  11
ENDBRANCH   7   8
ENDBRANCH   1   7
BRANCH   6  13
ATOM     13  N   LIG d   1      -2.184  77.364 113.096  0.00  0.00    -0.311 N 
ATOM     14  C   LIG d   1      -2.500  78.362 112.273  0.00  0.00     0.210 C 
ATOM     15  C   LIG d   1      -1.860  78.281 110.883  0.00  0.00     0.109 C 
ATOM     16  O   LIG d   1      -3.223  79.324 112.573  0.00  0.00    -0.276 OA
ATOM     17  H   LIG d   1      -1.566  76.642 112.781  0.00  0.00     0.149 HD
ENDBRANCH   6  13
BRANCH   5  18
ATOM     18  N   LIG d   1      -1.540  79.287 115.380  0.00  0.00     0.381 N 
ATOM     19  H   LIG d   1      -0.834  79.459 114.691  0.00  0.00    -0.090 HD
ATOM     20  H   LIG d   1      -1.224  79.664 116.256  0.00  0.00    -0.090 HD
ATOM     21  H   LIG d   1      -2.392  79.726 115.109  0.00  0.00    -0.090 HD
ENDBRANCH   5  18
BRANCH   3  22
ATOM     22  C   LIG d   1      -2.612  75.770 118.449  0.00  0.00     0.382 C 
ATOM     23  O   LIG d   1      -2.295  74.573 118.650  0.00  0.00    -0.241 OA
ATOM     24  O   LIG d   1      -2.903  76.499 119.416  0.00  0.00    -0.241 OA
ENDBRANCH   3  22
TORSDOF 7
ENDMDL
MODEL 4
REMARK VINA RESULT:      -5.1      1.891      5.141
REMARK  7 active torsions:
REMARK  status: ('A' for Active; 'I' for Inactive)
REMARK    1  A    between atoms: C_2  and  C_3 
REMARK    2  A    between atoms: C_3  and  O_6 
REMARK    3  A    between atoms: C_3  and  C_4 
REMARK    4  A    between atoms: C_7  and  O_6 
REMARK    5  A    between atoms: C_9  and  C_10 
REMARK    6  A    between atoms: N_15  and  C_14 
REMARK    7  A    between atoms: N_20  and  C_19 
REMARK       I    between atoms: C_22  and  N_20 
ROOT
ATOM      1  C   LIG d   1      -3.149  75.767 115.798  0.00  0.00     0.161 C 
ATOM      2  C   LIG d   1      -2.805  75.201 117.037  0.00  0.00     0.016 C 
ATOM      3  C   LIG d   1      -1.508  75.275 117.593  0.00  0.00     0.038 C 
ATOM      4  C   LIG d   1      -0.496  76.056 117.014  0.00  0.00     0.028 C 
ATOM      5  C   LIG d   1      -0.653  76.230 115.507  0.00  0.00    -0.047 C 
ATOM      6  C   LIG d   1      -2.088  76.718 115.205  0.00  0.00     0.091 C 
ENDROOT
BRANCH   1   7
ATOM      7  O   LIG d   1      -4.420  76.439 115.904  0.00  0.00    -0.368 OA
BRANCH   7   8
ATOM      8  C   LIG d   1      -5.593  75.623 115.663  0.00  0.00     0.119 C 
BRANCH   8   9
ATOM      9  C   LIG d   1      -5.636  75.306 114.156  0.00  0.00     0.028 C 
ATOM     10  C   LIG d   1      -6.281  76.437 113.336  0.00  0.00     0.006 C 
ENDBRANCH   8   9
BRANCH   8  11
ATOM     11  C   LIG d   1      -6.881  76.401 115.951  0.00  0.00     0.028 C 
ATOM     12  C   LIG d   1      -6.690  77.498 117.011  0.00  0.00     0.006 C 
ENDBRANCH   8  11
ENDBRANCH   7   8
ENDBRANCH   1   7
BRANCH   6  13
ATOM     13  N   LIG d   1      -2.352  76.833 113.747  0.00  0.00    -0.311 N 
ATOM     14  C   LIG d   1      -2.763  77.957 113.163  0.00  0.00     0.210 C 
ATOM     15  C   LIG d   1      -2.995  77.854 111.652  0.00  0.00     0.109 C 
ATOM     16  O   LIG d   1      -2.927  79.039 113.748  0.00  0.00    -0.276 OA
ATOM     17  H   LIG d   1      -2.214  76.011 113.192  0.00  0.00     0.149 HD
ENDBRANCH   6  13
BRANCH   5  18
ATOM     18  N   LIG d   1       0.386  77.175 115.057  0.00  0.00     0.381 N 
ATOM     19  H   LIG d   1       1.052  76.698 114.483  0.00  0.00    -0.090 HD
ATOM     20  H   LIG d   1       0.866  77.538 115.862  0.00  0.00    -0.090 HD
ATOM     21  H   LIG d   1      -0.030  77.921 114.546  0.00  0.00    -0.090 HD
ENDBRANCH   5  18
BRANCH   3  22
ATOM     22  C   LIG d   1      -1.200  74.529 118.721  0.00  0.00     0.382 C 
ATOM     23  O   LIG d   1      -2.111  74.180 119.510  0.00  0.00    -0.241 OA
ATOM     24  O   LIG d   1      -0.017  74.239 118.983  0.00  0.00    -0.241 OA
ENDBRANCH   3  22
TORSDOF 7
ENDMDL
MODEL 5
REMARK VINA RESULT:      -5.1      1.474      2.202
REMARK  7 active torsions:
REMARK  status: ('A' for Active; 'I' for Inactive)
REMARK    1  A    between atoms: C_2  and  C_3 
REMARK    2  A    between atoms: C_3  and  O_6 
REMARK    3  A    between atoms: C_3  and  C_4 
REMARK    4  A    between atoms: C_7  and  O_6 
REMARK    5  A    between atoms: C_9  and  C_10 
REMARK    6  A    between atoms: N_15  and  C_14 
REMARK    7  A    between atoms: N_20  and  C_19 
REMARK       I    between atoms: C_22  and  N_20 
ROOT
ATOM      1  C   LIG d   1      -3.352  77.017 114.189  0.00  0.00     0.161 C 
ATOM      2  C   LIG d   1      -3.374  78.240 113.498  0.00  0.00     0.016 C 
ATOM      3  C   LIG d   1      -2.228  79.046 113.306  0.00  0.00     0.038 C 
ATOM      4  C   LIG d   1      -0.944  78.606 113.662  0.00  0.00     0.028 C 
ATOM      5  C   LIG d   1      -0.945  77.604 114.812  0.00  0.00    -0.047 C 
ATOM      6  C   LIG d   1      -1.941  76.468 114.487  0.00  0.00     0.091 C 
ENDROOT
BRANCH   1   7
ATOM      7  O   LIG d   1      -4.129  76.037 113.472  0.00  0.00    -0.368 OA
BRANCH   7   8
ATOM      8  C   LIG d   1      -5.411  75.692 114.052  0.00  0.00     0.119 C 
BRANCH   8   9
ATOM      9  C   LIG d   1      -6.469  76.620 113.424  0.00  0.00     0.028 C 
ATOM     10  C   LIG d   1      -6.306  76.748 111.900  0.00  0.00     0.006 C 
ENDBRANCH   8   9
BRANCH   8  11
ATOM     11  C   LIG d   1      -5.444  75.997 115.553  0.00  0.00     0.028 C 
ATOM     12  C   LIG d   1      -6.828  76.456 116.037  0.00  0.00     0.006 C 
ENDBRANCH   8  11
ENDBRANCH   7   8
ENDBRANCH   1   7
BRANCH   6  13
ATOM     13  N   LIG d   1      -2.066  75.489 115.598  0.00  0.00    -0.311 N 
ATOM     14  C   LIG d   1      -2.038  75.832 116.885  0.00  0.00     0.210 C 
ATOM     15  C   LIG d   1      -2.162  74.665 117.869  0.00  0.00     0.109 C 
ATOM     16  O   LIG d   1      -1.954  76.996 117.305  0.00  0.00    -0.276 OA
ATOM     17  H   LIG d   1      -2.169  74.525 115.348  0.00  0.00     0.149 HD
ENDBRANCH   6  13
BRANCH   5  18
ATOM     18  N   LIG d   1       0.440  77.126 114.987  0.00  0.00     0.381 N 
ATOM     19  H   LIG d   1       0.635  77.004 115.960  0.00  0.00    -0.090 HD
ATOM     20  H   LIG d   1       1.071  77.819 114.624  0.00  0.00    -0.090 HD
ATOM     21  H   LIG d   1       0.567  76.264 114.504  0.00  0.00    -0.090 HD
ENDBRANCH   5  18
BRANCH   3  22
ATOM     22  C   LIG d   1      -2.366  80.324 112.786  0.00  0.00     0.382 C 
ATOM     23  O   LIG d   1      -1.493  80.783 112.010  0.00  0.00    -0.241 OA
ATOM     24  O   LIG d   1      -3.329  81.040 113.118  0.00  0.00    -0.241 OA
ENDBRANCH   3  22
TORSDOF 7
ENDMDL
MODEL 6
REMARK VINA RESULT:      -5.1      4.044      6.549
REMARK  7 active torsions:
REMARK  status: ('A' for Active; 'I' for Inactive)
REMARK    1  A    between atoms: C_2  and  C_3 
REMARK    2  A    between atoms: C_3  and  O_6 
REMARK    3  A    between atoms: C_3  and  C_4 
REMARK    4  A    between atoms: C_7  and  O_6 
REMARK    5  A    between atoms: C_9  and  C_10 
REMARK    6  A    between atoms: N_15  and  C_14 
REMARK    7  A    between atoms: N_20  and  C_19 
REMARK       I    between atoms: C_22  and  N_20 
ROOT
ATOM      1  C   LIG d   1      -5.804  77.453 117.022  0.00  0.00     0.161 C 
ATOM      2  C   LIG d   1      -7.186  77.290 117.214  0.00  0.00     0.016 C 
ATOM      3  C   LIG d   1      -7.995  78.233 117.889  0.00  0.00     0.038 C 
ATOM      4  C   LIG d   1      -7.500  79.484 118.288  0.00  0.00     0.028 C 
ATOM      5  C   LIG d   1      -6.000  79.481 118.565  0.00  0.00    -0.047 C 
ATOM      6  C   LIG d   1      -5.267  78.861 117.353  0.00  0.00     0.091 C 
ENDROOT
BRANCH   1   7
ATOM      7  O   LIG d   1      -5.452  77.086 115.674  0.00  0.00    -0.368 OA
BRANCH   7   8
ATOM      8  C   LIG d   1      -5.248  75.672 115.431  0.00  0.00     0.119 C 
BRANCH   8   9
ATOM      9  C   LIG d   1      -3.753  75.374 115.656  0.00  0.00     0.028 C 
ATOM     10  C   LIG d   1      -2.860  75.998 114.571  0.00  0.00     0.006 C 
ENDBRANCH   8   9
BRANCH   8  11
ATOM     11  C   LIG d   1      -5.517  75.315 113.966  0.00  0.00     0.028 C 
ATOM     12  C   LIG d   1      -6.236  76.437 113.201  0.00  0.00     0.006 C 
ENDBRANCH   8  11
ENDBRANCH   7   8
ENDBRANCH   1   7
BRANCH   6  13
ATOM     13  N   LIG d   1      -3.803  78.743 117.576  0.00  0.00    -0.311 N 
ATOM     14  C   LIG d   1      -2.895  79.001 116.636  0.00  0.00     0.210 C 
ATOM     15  C   LIG d   1      -1.440  78.797 117.070  0.00  0.00     0.109 C 
ATOM     16  O   LIG d   1      -3.155  79.410 115.495  0.00  0.00    -0.276 OA
ATOM     17  H   LIG d   1      -3.502  78.447 118.484  0.00  0.00     0.149 HD
ENDBRANCH   6  13
BRANCH   5  18
ATOM     18  N   LIG d   1      -5.594  80.873 118.836  0.00  0.00     0.381 N 
ATOM     19  H   LIG d   1      -5.360  80.975 119.803  0.00  0.00    -0.090 HD
ATOM     20  H   LIG d   1      -6.367  81.482 118.633  0.00  0.00    -0.090 HD
ATOM     21  H   LIG d   1      -4.812  81.117 118.269  0.00  0.00    -0.090 HD
ENDBRANCH   5  18
BRANCH   3  22
ATOM     22  C   LIG d   1      -9.306  77.913 118.206  0.00  0.00     0.382 C 
ATOM     23  O   LIG d   1      -9.756  76.773 117.936  0.00  0.00    -0.241 OA
ATOM     24  O   LIG d   1     -10.058  78.763 118.718  0.00  0.00    -0.241 OA
ENDBRANCH   3  22
TORSDOF 7
ENDMDL
MODEL 7
REMARK VINA RESULT:      -5.0      2.156      4.580
REMARK  7 active torsions:
REMARK  status: ('A' for Active; 'I' for Inactive)
REMARK    1  A    between atoms: C_2  and  C_3 
REMARK    2  A    between atoms: C_3  and  O_6 
REMARK    3  A    between atoms: C_3  and  C_4 
REMARK    4  A    between atoms: C_7  and  O_6 
REMARK    5  A    between atoms: C_9  and  C_10 
REMARK    6  A    between atoms: N_15  and  C_14 
REMARK    7  A    between atoms: N_20  and  C_19 
REMARK       I    between atoms: C_22  and  N_20 
ROOT
ATOM      1  C   LIG d   1      -3.241  77.156 113.612  0.00  0.00     0.161 C 
ATOM      2  C   LIG d   1      -4.283  77.537 112.750  0.00  0.00     0.016 C 
ATOM      3  C   LIG d   1      -5.573  76.960 112.787  0.00  0.00     0.038 C 
ATOM      4  C   LIG d   1      -5.956  76.062 113.794  0.00  0.00     0.028 C 
ATOM      5  C   LIG d   1      -4.789  75.272 114.376  0.00  0.00    -0.047 C 
ATOM      6  C   LIG d   1      -3.672  76.257 114.790  0.00  0.00     0.091 C 
ENDROOT
BRANCH   1   7
ATOM      7  O   LIG d   1      -2.557  78.327 114.099  0.00  0.00    -0.368 OA
BRANCH   7   8
ATOM      8  C   LIG d   1      -1.274  78.615 113.490  0.00  0.00     0.119 C 
BRANCH   8   9
ATOM      9  C   LIG d   1      -0.295  78.981 114.623  0.00  0.00     0.028 C 
ATOM     10  C   LIG d   1      -0.962  78.946 116.008  0.00  0.00     0.006 C 
ENDBRANCH   8   9
BRANCH   8  11
ATOM     11  C   LIG d   1      -1.347  79.859 112.600  0.00  0.00     0.028 C 
ATOM     12  C   LIG d   1      -2.573  80.736 112.900  0.00  0.00     0.006 C 
ENDBRANCH   8  11
ENDBRANCH   7   8
ENDBRANCH   1   7
BRANCH   6  13
ATOM     13  N   LIG d   1      -2.459  75.561 115.292  0.00  0.00    -0.311 N 
ATOM     14  C   LIG d   1      -2.237  75.312 116.581  0.00  0.00     0.210 C 
ATOM     15  C   LIG d   1      -0.915  74.600 116.885  0.00  0.00     0.109 C 
ATOM     16  O   LIG d   1      -3.026  75.583 117.500  0.00  0.00    -0.276 OA
ATOM     17  H   LIG d   1      -1.781  75.278 114.612  0.00  0.00     0.149 HD
ENDBRANCH   6  13
BRANCH   5  18
ATOM     18  N   LIG d   1      -5.308  74.478 115.507  0.00  0.00     0.381 N 
ATOM     19  H   LIG d   1      -4.565  73.948 115.917  0.00  0.00    -0.090 HD
ATOM     20  H   LIG d   1      -6.001  73.838 115.163  0.00  0.00    -0.090 HD
ATOM     21  H   LIG d   1      -5.711  75.081 116.189  0.00  0.00    -0.090 HD
ENDBRANCH   5  18
BRANCH   3  22
ATOM     22  C   LIG d   1      -6.484  77.251 111.783  0.00  0.00     0.382 C 
ATOM     23  O   LIG d   1      -6.571  76.503 110.779  0.00  0.00    -0.241 OA
ATOM     24  O   LIG d   1      -7.189  78.275 111.847  0.00  0.00    -0.241 OA
ENDBRANCH   3  22
TORSDOF 7
ENDMDL
MODEL 8
REMARK VINA RESULT:      -5.0      2.109      2.533
REMARK  7 active torsions:
REMARK  status: ('A' for Active; 'I' for Inactive)
REMARK    1  A    between atoms: C_2  and  C_3 
REMARK    2  A    between atoms: C_3  and  O_6 
REMARK    3  A    between atoms: C_3  and  C_4 
REMARK    4  A    between atoms: C_7  and  O_6 
REMARK    5  A    between atoms: C_9  and  C_10 
REMARK    6  A    between atoms: N_15  and  C_14 
REMARK    7  A    between atoms: N_20  and  C_19 
REMARK       I    between atoms: C_22  and  N_20 
ROOT
ATOM      1  C   LIG d   1      -2.040  77.895 116.197  0.00  0.00     0.161 C 
ATOM      2  C   LIG d   1      -2.513  78.781 115.215  0.00  0.00     0.016 C 
ATOM      3  C   LIG d   1      -2.094  78.742 113.865  0.00  0.00     0.038 C 
ATOM      4  C   LIG d   1      -1.282  77.711 113.371  0.00  0.00     0.028 C 
ATOM      5  C   LIG d   1      -0.379  77.089 114.431  0.00  0.00    -0.047 C 
ATOM      6  C   LIG d   1      -1.240  76.693 115.653  0.00  0.00     0.091 C 
ENDROOT
BRANCH   1   7
ATOM      7  O   LIG d   1      -3.138  77.438 117.011  0.00  0.00    -0.368 OA
BRANCH   7   8
ATOM      8  C   LIG d   1      -4.425  77.344 116.352  0.00  0.00     0.119 C 
BRANCH   8   9
ATOM      9  C   LIG d   1      -5.508  77.664 117.401  0.00  0.00     0.028 C 
ATOM     10  C   LIG d   1      -6.920  77.293 116.918  0.00  0.00     0.006 C 
ENDBRANCH   8   9
BRANCH   8  11
ATOM     11  C   LIG d   1      -4.714  75.911 115.895  0.00  0.00     0.028 C 
ATOM     12  C   LIG d   1      -4.590  75.734 114.373  0.00  0.00     0.006 C 
ENDBRANCH   8  11
ENDBRANCH   7   8
ENDBRANCH   1   7
BRANCH   6  13
ATOM     13  N   LIG d   1      -0.422  76.154 116.771  0.00  0.00    -0.311 N 
ATOM     14  C   LIG d   1      -0.657  74.977 117.349  0.00  0.00     0.210 C 
ATOM     15  C   LIG d   1       0.293  74.620 118.497  0.00  0.00     0.109 C 
ATOM     16  O   LIG d   1      -1.541  74.181 116.999  0.00  0.00    -0.276 OA
ATOM     17  H   LIG d   1       0.335  76.721 117.097  0.00  0.00     0.149 HD
ENDBRANCH   6  13
BRANCH   5  18
ATOM     18  N   LIG d   1       0.308  75.940 113.812  0.00  0.00     0.381 N 
ATOM     19  H   LIG d   1       0.303  75.162 114.442  0.00  0.00    -0.090 HD
ATOM     20  H   LIG d   1       1.264  76.192 113.631  0.00  0.00    -0.090 HD
ATOM     21  H   LIG d   1      -0.144  75.689 112.961  0.00  0.00    -0.090 HD
ENDBRANCH   5  18
BRANCH   3  22
ATOM     22  C   LIG d   1      -2.455  79.766 113.004  0.00  0.00     0.382 C 
ATOM     23  O   LIG d   1      -3.314  80.610 113.358  0.00  0.00    -0.241 OA
ATOM     24  O   LIG d   1      -1.966  79.832 111.860  0.00  0.00    -0.241 OA
ENDBRANCH   3  22
TORSDOF 7
ENDMDL
MODEL 9
REMARK VINA RESULT:      -4.9      2.226      4.732
REMARK  7 active torsions:
REMARK  status: ('A' for Active; 'I' for Inactive)
REMARK    1  A    between atoms: C_2  and  C_3 
REMARK    2  A    between atoms: C_3  and  O_6 
REMARK    3  A    between atoms: C_3  and  C_4 
REMARK    4  A    between atoms: C_7  and  O_6 
REMARK    5  A    between atoms: C_9  and  C_10 
REMARK    6  A    between atoms: N_15  and  C_14 
REMARK    7  A    between atoms: N_20  and  C_19 
REMARK       I    between atoms: C_22  and  N_20 
ROOT
ATOM      1  C   LIG d   1      -3.453  76.648 114.433  0.00  0.00     0.161 C 
ATOM      2  C   LIG d   1      -4.246  77.166 113.397  0.00  0.00     0.016 C 
ATOM      3  C   LIG d   1      -5.570  76.740 113.143  0.00  0.00     0.038 C 
ATOM      4  C   LIG d   1      -6.247  75.868 114.009  0.00  0.00     0.028 C 
ATOM      5  C   LIG d   1      -5.318  74.936 114.778  0.00  0.00    -0.047 C 
ATOM      6  C   LIG d   1      -4.212  75.777 115.456  0.00  0.00     0.091 C 
ENDROOT
BRANCH   1   7
ATOM      7  O   LIG d   1      -2.763  77.721 115.104  0.00  0.00    -0.368 OA
BRANCH   7   8
ATOM      8  C   LIG d   1      -1.325  77.762 114.929  0.00  0.00     0.119 C 
BRANCH   8   9
ATOM      9  C   LIG d   1      -0.987  79.061 114.173  0.00  0.00     0.028 C 
ATOM     10  C   LIG d   1      -1.018  78.876 112.646  0.00  0.00     0.006 C 
ENDBRANCH   8   9
BRANCH   8  11
ATOM     11  C   LIG d   1      -0.841  76.627 114.022  0.00  0.00     0.028 C 
ATOM     12  C   LIG d   1       0.142  75.679 114.726  0.00  0.00     0.006 C 
ENDBRANCH   8  11
ENDBRANCH   7   8
ENDBRANCH   1   7
BRANCH   6  13
ATOM     13  N   LIG d   1      -3.211  74.934 116.161  0.00  0.00    -0.311 N 
ATOM     14  C   LIG d   1      -2.716  75.233 117.361  0.00  0.00     0.210 C 
ATOM     15  C   LIG d   1      -1.680  74.241 117.899  0.00  0.00     0.109 C 
ATOM     16  O   LIG d   1      -3.060  76.209 118.045  0.00  0.00    -0.276 OA
ATOM     17  H   LIG d   1      -2.899  74.107 115.691  0.00  0.00     0.149 HD
ENDBRANCH   6  13
BRANCH   5  18
ATOM     18  N   LIG d   1      -6.141  74.180 115.741  0.00  0.00     0.381 N 
ATOM     19  H   LIG d   1      -5.658  73.350 116.023  0.00  0.00    -0.090 HD
ATOM     20  H   LIG d   1      -6.999  73.909 115.293  0.00  0.00    -0.090 HD
ATOM     21  H   LIG d   1      -6.339  74.745 116.538  0.00  0.00    -0.090 HD
ENDBRANCH   5  18
BRANCH   3  22
ATOM     22  C   LIG d   1      -6.217  77.156 111.989  0.00  0.00     0.382 C 
ATOM     23  O   LIG d   1      -6.970  78.160 112.020  0.00  0.00    -0.241 OA
ATOM     24  O   LIG d   1      -6.093  76.515 110.929  0.00  0.00    -0.241 OA
ENDBRANCH   3  22
TORSDOF 7
ENDMDL
