MODEL 1
REMARK VINA RESULT:      -4.8      0.000      0.000
REMARK  7 active torsions:
REMARK  status: ('A' for Active; 'I' for Inactive)
REMARK    1  A    between atoms: C_2  and  C_3 
REMARK    2  A    between atoms: C_3  and  O_6 
REMARK    3  A    between atoms: C_3  and  C_4 
REMARK    4  A    between atoms: C_7  and  O_6 
REMARK    5  A    between atoms: C_9  and  C_10 
REMARK    6  A    between atoms: N_15  and  C_14 
REMARK    7  A    between atoms: N_20  and  C_19 
REMARK       I    between atoms: C_22  and  N_20 
ROOT
ATOM      1  C   LIG d   1      -2.653  76.956 114.758  0.00  0.00     0.161 C 
ATOM      2  C   LIG d   1      -2.842  77.917 113.751  0.00  0.00     0.016 C 
ATOM      3  C   LIG d   1      -2.040  79.074 113.618  0.00  0.00     0.038 C 
ATOM      4  C   LIG d   1      -0.892  79.273 114.398  0.00  0.00     0.028 C 
ATOM      5  C   LIG d   1      -0.956  78.584 115.757  0.00  0.00    -0.047 C 
ATOM      6  C   LIG d   1      -1.337  77.100 115.550  0.00  0.00     0.091 C 
ENDROOT
BRANCH   1   7
ATOM      7  O   LIG d   1      -2.758  75.633 114.198  0.00  0.00    -0.368 OA
BRANCH   7   8
ATOM      8  C   LIG d   1      -3.926  74.868 114.584  0.00  0.00     0.119 C 
BRANCH   8   9
ATOM      9  C   LIG d   1      -4.952  74.977 113.439  0.00  0.00     0.028 C 
ATOM     10  C   LIG d   1      -6.148  75.871 113.806  0.00  0.00     0.006 C 
ENDBRANCH   8   9
BRANCH   8  11
ATOM     11  C   LIG d   1      -4.616  75.482 115.806  0.00  0.00     0.028 C 
ATOM     12  C   LIG d   1      -4.712  74.507 116.989  0.00  0.00     0.006 C 
ENDBRANCH   8  11
ENDBRANCH   7   8
ENDBRANCH   1   7
BRANCH   6  13
ATOM     13  N   LIG d   1      -1.503  76.373 116.836  0.00  0.00    -0.311 N 
ATOM     14  C   LIG d   1      -0.996  75.163 117.064  0.00  0.00     0.210 C 
ATOM     15  C   LIG d   1      -1.301  74.585 118.450  0.00  0.00     0.109 C 
ATOM     16  O   LIG d   1      -0.294  74.527 116.263  0.00  0.00    -0.276 OA
ATOM     17  H   LIG d   1      -2.032  76.830 117.552  0.00  0.00     0.149 HD
ENDBRANCH   6  13
BRANCH   5  18
ATOM     18  N   LIG d   1       0.357  78.759 116.407  0.00  0.00     0.381 N 
ATOM     19  H   LIG d   1       1.031  78.157 115.977  0.00  0.00    -0.090 HD
ATOM     20  H   LIG d   1       0.277  78.502 117.375  0.00  0.00    -0.090 HD
ATOM     21  H   LIG d   1       0.652  79.707 116.331  0.00  0.00    -0.090 HD
ENDBRANCH   5  18
BRANCH   3  22
ATOM     22  C   LIG d   1      -2.409  80.066 112.722  0.00  0.00     0.382 C 
ATOM     23  O   LIG d   1      -1.726  80.262 111.688  0.00  0.00    -0.241 OA
ATOM     24  O   LIG d   1      -3.389  80.797 112.957  0.00  0.00    -0.241 OA
ENDBRANCH   3  22
TORSDOF 7
ENDMDL
MODEL 2
REMARK VINA RESULT:      -4.7      3.581      5.311
REMARK  7 active torsions:
REMARK  status: ('A' for Active; 'I' for Inactive)
REMARK    1  A    between atoms: C_2  and  C_3 
REMARK    2  A    between atoms: C_3  and  O_6 
REMARK    3  A    between atoms: C_3  and  C_4 
REMARK    4  A    between atoms: C_7  and  O_6 
REMARK    5  A    between atoms: C_9  and  C_10 
REMARK    6  A    between atoms: N_15  and  C_14 
REMARK    7  A    between atoms: N_20  and  C_19 
REMARK       I    between atoms: C_22  and  N_20 
ROOT
ATOM      1  C   LIG d   1      -1.997  81.208 114.775  0.00  0.00     0.161 C 
ATOM      2  C   LIG d   1      -1.636  82.505 114.376  0.00  0.00     0.016 C 
ATOM      3  C   LIG d   1      -1.125  82.811 113.094  0.00  0.00     0.038 C 
ATOM      4  C   LIG d   1      -1.083  81.858 112.066  0.00  0.00     0.028 C 
ATOM      5  C   LIG d   1      -0.963  80.425 112.573  0.00  0.00    -0.047 C 
ATOM      6  C   LIG d   1      -2.062  80.174 113.631  0.00  0.00     0.091 C 
ENDROOT
BRANCH   1   7
ATOM      7  O   LIG d   1      -3.250  81.246 115.487  0.00  0.00    -0.368 OA
BRANCH   7   8
ATOM      8  C   LIG d   1      -3.188  80.942 116.903  0.00  0.00     0.119 C 
BRANCH   8   9
ATOM      9  C   LIG d   1      -4.476  80.181 117.270  0.00  0.00     0.028 C 
ATOM     10  C   LIG d   1      -5.609  81.124 117.712  0.00  0.00     0.006 C 
ENDBRANCH   8   9
BRANCH   8  11
ATOM     11  C   LIG d   1      -3.216  82.219 117.748  0.00  0.00     0.028 C 
ATOM     12  C   LIG d   1      -1.820  82.645 118.232  0.00  0.00     0.006 C 
ENDBRANCH   8  11
ENDBRANCH   7   8
ENDBRANCH   1   7
BRANCH   6  13
ATOM     13  N   LIG d   1      -1.964  78.822 114.240  0.00  0.00    -0.311 N 
ATOM     14  C   LIG d   1      -2.628  77.762 113.783  0.00  0.00     0.210 C 
ATOM     15  C   LIG d   1      -2.400  76.467 114.569  0.00  0.00     0.109 C 
ATOM     16  O   LIG d   1      -3.359  77.764 112.781  0.00  0.00    -0.276 OA
ATOM     17  H   LIG d   1      -1.369  78.724 115.039  0.00  0.00     0.149 HD
ENDBRANCH   6  13
BRANCH   5  18
ATOM     18  N   LIG d   1      -1.069  79.529 111.406  0.00  0.00     0.381 N 
ATOM     19  H   LIG d   1      -1.635  78.737 111.637  0.00  0.00    -0.090 HD
ATOM     20  H   LIG d   1      -0.151  79.200 111.165  0.00  0.00    -0.090 HD
ATOM     21  H   LIG d   1      -1.468  80.018 110.636  0.00  0.00    -0.090 HD
ENDBRANCH   5  18
BRANCH   3  22
ATOM     22  C   LIG d   1      -0.613  84.075 112.842  0.00  0.00     0.382 C 
ATOM     23  O   LIG d   1      -0.924  84.679 111.787  0.00  0.00    -0.241 OA
ATOM     24  O   LIG d   1       0.191  84.600 113.635  0.00  0.00    -0.241 OA
ENDBRANCH   3  22
TORSDOF 7
ENDMDL
MODEL 3
REMARK VINA RESULT:      -4.6      3.573      7.050
REMARK  7 active torsions:
REMARK  status: ('A' for Active; 'I' for Inactive)
REMARK    1  A    between atoms: C_2  and  C_3 
REMARK    2  A    between atoms: C_3  and  O_6 
REMARK    3  A    between atoms: C_3  and  C_4 
REMARK    4  A    between atoms: C_7  and  O_6 
REMARK    5  A    between atoms: C_9  and  C_10 
REMARK    6  A    between atoms: N_15  and  C_14 
REMARK    7  A    between atoms: N_20  and  C_19 
REMARK       I    between atoms: C_22  and  N_20 
ROOT
ATOM      1  C   LIG d   1      -1.500  81.036 114.452  0.00  0.00     0.161 C 
ATOM      2  C   LIG d   1      -2.274  79.923 114.821  0.00  0.00     0.016 C 
ATOM      3  C   LIG d   1      -2.447  78.788 113.996  0.00  0.00     0.038 C 
ATOM      4  C   LIG d   1      -1.731  78.623 112.801  0.00  0.00     0.028 C 
ATOM      5  C   LIG d   1      -1.330  79.942 112.149  0.00  0.00    -0.047 C 
ATOM      6  C   LIG d   1      -0.622  80.827 113.200  0.00  0.00     0.091 C 
ENDROOT
BRANCH   1   7
ATOM      7  O   LIG d   1      -0.691  81.460 115.566  0.00  0.00    -0.368 OA
BRANCH   7   8
ATOM      8  C   LIG d   1      -1.259  82.489 116.412  0.00  0.00     0.119 C 
BRANCH   8   9
ATOM      9  C   LIG d   1      -1.869  83.562 115.489  0.00  0.00     0.028 C 
ATOM     10  C   LIG d   1      -0.870  84.680 115.147  0.00  0.00     0.006 C 
ENDBRANCH   8   9
BRANCH   8  11
ATOM     11  C   LIG d   1      -0.175  83.214 117.214  0.00  0.00     0.028 C 
ATOM     12  C   LIG d   1      -0.631  83.584 118.634  0.00  0.00     0.006 C 
ENDBRANCH   8  11
ENDBRANCH   7   8
ENDBRANCH   1   7
BRANCH   6  13
ATOM     13  N   LIG d   1      -0.271  82.169 112.668  0.00  0.00    -0.311 N 
ATOM     14  C   LIG d   1      -1.061  82.864 111.852  0.00  0.00     0.210 C 
ATOM     15  C   LIG d   1      -0.500  84.217 111.404  0.00  0.00     0.109 C 
ATOM     16  O   LIG d   1      -2.188  82.502 111.482  0.00  0.00    -0.276 OA
ATOM     17  H   LIG d   1       0.613  82.552 112.942  0.00  0.00     0.149 HD
ENDBRANCH   6  13
BRANCH   5  18
ATOM     18  N   LIG d   1      -0.474  79.624 110.990  0.00  0.00     0.381 N 
ATOM     19  H   LIG d   1       0.068  78.805 111.184  0.00  0.00    -0.090 HD
ATOM     20  H   LIG d   1       0.158  80.389 110.833  0.00  0.00    -0.090 HD
ATOM     21  H   LIG d   1      -1.036  79.476 110.181  0.00  0.00    -0.090 HD
ENDBRANCH   5  18
BRANCH   3  22
ATOM     22  C   LIG d   1      -3.377  77.820 114.345  0.00  0.00     0.382 C 
ATOM     23  O   LIG d   1      -3.641  76.887 113.548  0.00  0.00    -0.241 OA
ATOM     24  O   LIG d   1      -3.987  77.892 115.429  0.00  0.00    -0.241 OA
ENDBRANCH   3  22
TORSDOF 7
ENDMDL
MODEL 4
REMARK VINA RESULT:      -4.6      3.307      5.703
REMARK  7 active torsions:
REMARK  status: ('A' for Active; 'I' for Inactive)
REMARK    1  A    between atoms: C_2  and  C_3 
REMARK    2  A    between atoms: C_3  and  O_6 
REMARK    3  A    between atoms: C_3  and  C_4 
REMARK    4  A    between atoms: C_7  and  O_6 
REMARK    5  A    between atoms: C_9  and  C_10 
REMARK    6  A    between atoms: N_15  and  C_14 
REMARK    7  A    between atoms: N_20  and  C_19 
REMARK       I    between atoms: C_22  and  N_20 
ROOT
ATOM      1  C   LIG d   1      -0.190  80.769 114.569  0.00  0.00     0.161 C 
ATOM      2  C   LIG d   1      -0.348  81.939 113.808  0.00  0.00     0.016 C 
ATOM      3  C   LIG d   1      -1.176  82.018 112.664  0.00  0.00     0.038 C 
ATOM      4  C   LIG d   1      -2.025  80.966 112.290  0.00  0.00     0.028 C 
ATOM      5  C   LIG d   1      -1.523  79.596 112.731  0.00  0.00    -0.047 C 
ATOM      6  C   LIG d   1      -1.194  79.644 114.241  0.00  0.00     0.091 C 
ENDROOT
BRANCH   1   7
ATOM      7  O   LIG d   1      -0.238  81.090 115.973  0.00  0.00    -0.368 OA
BRANCH   7   8
ATOM      8  C   LIG d   1      -0.663  82.434 116.306  0.00  0.00     0.119 C 
BRANCH   8   9
ATOM      9  C   LIG d   1       0.389  83.028 117.264  0.00  0.00     0.028 C 
ATOM     10  C   LIG d   1      -0.240  83.932 118.338  0.00  0.00     0.006 C 
ENDBRANCH   8   9
BRANCH   8  11
ATOM     11  C   LIG d   1      -1.973  82.424 117.099  0.00  0.00     0.028 C 
ATOM     12  C   LIG d   1      -3.212  82.289 116.199  0.00  0.00     0.006 C 
ENDBRANCH   8  11
ENDBRANCH   7   8
ENDBRANCH   1   7
BRANCH   6  13
ATOM     13  N   LIG d   1      -0.617  78.368 114.737  0.00  0.00    -0.311 N 
ATOM     14  C   LIG d   1      -1.349  77.387 115.263  0.00  0.00     0.210 C 
ATOM     15  C   LIG d   1      -0.552  76.165 115.730  0.00  0.00     0.109 C 
ATOM     16  O   LIG d   1      -2.585  77.401 115.358  0.00  0.00    -0.276 OA
ATOM     17  H   LIG d   1       0.377  78.259 114.669  0.00  0.00     0.149 HD
ENDBRANCH   6  13
BRANCH   5  18
ATOM     18  N   LIG d   1      -2.568  78.610 112.399  0.00  0.00     0.381 N 
ATOM     19  H   LIG d   1      -3.472  79.021 112.520  0.00  0.00    -0.090 HD
ATOM     20  H   LIG d   1      -2.490  77.829 113.026  0.00  0.00    -0.090 HD
ATOM     21  H   LIG d   1      -2.459  78.302 111.458  0.00  0.00    -0.090 HD
ENDBRANCH   5  18
BRANCH   3  22
ATOM     22  C   LIG d   1      -1.129  83.146 111.859  0.00  0.00     0.382 C 
ATOM     23  O   LIG d   1      -1.025  84.283 112.378  0.00  0.00    -0.241 OA
ATOM     24  O   LIG d   1      -1.235  83.043 110.622  0.00  0.00    -0.241 OA
ENDBRANCH   3  22
TORSDOF 7
ENDMDL
MODEL 5
REMARK VINA RESULT:      -4.6      2.777      3.533
REMARK  7 active torsions:
REMARK  status: ('A' for Active; 'I' for Inactive)
REMARK    1  A    between atoms: C_2  and  C_3 
REMARK    2  A    between atoms: C_3  and  O_6 
REMARK    3  A    between atoms: C_3  and  C_4 
REMARK    4  A    between atoms: C_7  and  O_6 
REMARK    5  A    between atoms: C_9  and  C_10 
REMARK    6  A    between atoms: N_15  and  C_14 
REMARK    7  A    between atoms: N_20  and  C_19 
REMARK       I    between atoms: C_22  and  N_20 
ROOT
ATOM      1  C   LIG d   1      -1.856  79.279 115.816  0.00  0.00     0.161 C 
ATOM      2  C   LIG d   1      -2.335  80.597 115.746  0.00  0.00     0.016 C 
ATOM      3  C   LIG d   1      -2.492  81.305 114.532  0.00  0.00     0.038 C 
ATOM      4  C   LIG d   1      -2.322  80.684 113.286  0.00  0.00     0.028 C 
ATOM      5  C   LIG d   1      -1.353  79.507 113.322  0.00  0.00    -0.047 C 
ATOM      6  C   LIG d   1      -1.771  78.548 114.460  0.00  0.00     0.091 C 
ENDROOT
BRANCH   1   7
ATOM      7  O   LIG d   1      -2.653  78.518 116.746  0.00  0.00    -0.368 OA
BRANCH   7   8
ATOM      8  C   LIG d   1      -4.084  78.535 116.521  0.00  0.00     0.119 C 
BRANCH   8   9
ATOM      9  C   LIG d   1      -4.754  78.986 117.833  0.00  0.00     0.028 C 
ATOM     10  C   LIG d   1      -5.470  80.339 117.692  0.00  0.00     0.006 C 
ENDBRANCH   8   9
BRANCH   8  11
ATOM     11  C   LIG d   1      -4.623  77.126 116.254  0.00  0.00     0.028 C 
ATOM     12  C   LIG d   1      -3.877  76.042 117.048  0.00  0.00     0.006 C 
ENDBRANCH   8  11
ENDBRANCH   7   8
ENDBRANCH   1   7
BRANCH   6  13
ATOM     13  N   LIG d   1      -0.826  77.412 114.619  0.00  0.00    -0.311 N 
ATOM     14  C   LIG d   1      -1.160  76.143 114.391  0.00  0.00     0.210 C 
ATOM     15  C   LIG d   1      -0.041  75.126 114.635  0.00  0.00     0.109 C 
ATOM     16  O   LIG d   1      -2.268  75.767 113.979  0.00  0.00    -0.276 OA
ATOM     17  H   LIG d   1       0.104  77.631 114.920  0.00  0.00     0.149 HD
ENDBRANCH   6  13
BRANCH   5  18
ATOM     18  N   LIG d   1      -1.376  78.871 111.991  0.00  0.00     0.381 N 
ATOM     19  H   LIG d   1      -0.471  78.936 111.569  0.00  0.00    -0.090 HD
ATOM     20  H   LIG d   1      -2.032  79.359 111.408  0.00  0.00    -0.090 HD
ATOM     21  H   LIG d   1      -1.642  77.914 112.076  0.00  0.00    -0.090 HD
ENDBRANCH   5  18
BRANCH   3  22
ATOM     22  C   LIG d   1      -2.785  82.660 114.559  0.00  0.00     0.382 C 
ATOM     23  O   LIG d   1      -2.102  83.462 113.879  0.00  0.00    -0.241 OA
ATOM     24  O   LIG d   1      -3.695  83.095 115.290  0.00  0.00    -0.241 OA
ENDBRANCH   3  22
TORSDOF 7
ENDMDL
MODEL 6
REMARK VINA RESULT:      -4.4      3.009      6.065
REMARK  7 active torsions:
REMARK  status: ('A' for Active; 'I' for Inactive)
REMARK    1  A    between atoms: C_2  and  C_3 
REMARK    2  A    between atoms: C_3  and  O_6 
REMARK    3  A    between atoms: C_3  and  C_4 
REMARK    4  A    between atoms: C_7  and  O_6 
REMARK    5  A    between atoms: C_9  and  C_10 
REMARK    6  A    between atoms: N_15  and  C_14 
REMARK    7  A    between atoms: N_20  and  C_19 
REMARK       I    between atoms: C_22  and  N_20 
ROOT
ATOM      1  C   LIG d   1      -2.980  78.743 115.475  0.00  0.00     0.161 C 
ATOM      2  C   LIG d   1      -2.698  77.458 114.981  0.00  0.00     0.016 C 
ATOM      3  C   LIG d   1      -3.237  76.275 115.537  0.00  0.00     0.038 C 
ATOM      4  C   LIG d   1      -4.219  76.307 116.538  0.00  0.00     0.028 C 
ATOM      5  C   LIG d   1      -4.156  77.557 117.409  0.00  0.00    -0.047 C 
ATOM      6  C   LIG d   1      -4.136  78.804 116.496  0.00  0.00     0.091 C 
ENDROOT
BRANCH   1   7
ATOM      7  O   LIG d   1      -3.231  79.644 114.379  0.00  0.00    -0.368 OA
BRANCH   7   8
ATOM      8  C   LIG d   1      -2.144  80.533 114.023  0.00  0.00     0.119 C 
BRANCH   8   9
ATOM      9  C   LIG d   1      -2.515  81.943 114.522  0.00  0.00     0.028 C 
ATOM     10  C   LIG d   1      -1.676  82.375 115.736  0.00  0.00     0.006 C 
ENDBRANCH   8   9
BRANCH   8  11
ATOM     11  C   LIG d   1      -2.007  80.664 112.503  0.00  0.00     0.028 C 
ATOM     12  C   LIG d   1      -0.551  80.557 112.024  0.00  0.00     0.006 C 
ENDBRANCH   8  11
ENDBRANCH   7   8
ENDBRANCH   1   7
BRANCH   6  13
ATOM     13  N   LIG d   1      -3.990  80.067 117.265  0.00  0.00    -0.311 N 
ATOM     14  C   LIG d   1      -5.019  80.845 117.599  0.00  0.00     0.210 C 
ATOM     15  C   LIG d   1      -4.646  82.112 118.375  0.00  0.00     0.109 C 
ATOM     16  O   LIG d   1      -6.207  80.589 117.354  0.00  0.00    -0.276 OA
ATOM     17  H   LIG d   1      -3.063  80.335 117.532  0.00  0.00     0.149 HD
ENDBRANCH   6  13
BRANCH   5  18
ATOM     18  N   LIG d   1      -5.317  77.525 118.319  0.00  0.00     0.381 N 
ATOM     19  H   LIG d   1      -5.410  78.408 118.780  0.00  0.00    -0.090 HD
ATOM     20  H   LIG d   1      -5.164  76.819 119.017  0.00  0.00    -0.090 HD
ATOM     21  H   LIG d   1      -6.147  77.321 117.806  0.00  0.00    -0.090 HD
ENDBRANCH   5  18
BRANCH   3  22
ATOM     22  C   LIG d   1      -2.762  75.041 115.119  0.00  0.00     0.382 C 
ATOM     23  O   LIG d   1      -2.162  74.293 115.927  0.00  0.00    -0.241 OA
ATOM     24  O   LIG d   1      -2.887  74.686 113.931  0.00  0.00    -0.241 OA
ENDBRANCH   3  22
TORSDOF 7
ENDMDL
MODEL 7
REMARK VINA RESULT:      -4.3      5.252      7.513
REMARK  7 active torsions:
REMARK  status: ('A' for Active; 'I' for Inactive)
REMARK    1  A    between atoms: C_2  and  C_3 
REMARK    2  A    between atoms: C_3  and  O_6 
REMARK    3  A    between atoms: C_3  and  C_4 
REMARK    4  A    between atoms: C_7  and  O_6 
REMARK    5  A    between atoms: C_9  and  C_10 
REMARK    6  A    between atoms: N_15  and  C_14 
REMARK    7  A    between atoms: N_20  and  C_19 
REMARK       I    between atoms: C_22  and  N_20 
ROOT
ATOM      1  C   LIG d   1      -6.692  77.517 117.551  0.00  0.00     0.161 C 
ATOM      2  C   LIG d   1      -7.598  76.454 117.701  0.00  0.00     0.016 C 
ATOM      3  C   LIG d   1      -8.872  76.594 118.297  0.00  0.00     0.038 C 
ATOM      4  C   LIG d   1      -9.391  77.849 118.650  0.00  0.00     0.028 C 
ATOM      5  C   LIG d   1      -8.316  78.878 118.981  0.00  0.00    -0.047 C 
ATOM      6  C   LIG d   1      -7.285  78.915 117.829  0.00  0.00     0.091 C 
ENDROOT
BRANCH   1   7
ATOM      7  O   LIG d   1      -6.102  77.476 116.237  0.00  0.00    -0.368 OA
BRANCH   7   8
ATOM      8  C   LIG d   1      -5.538  76.204 115.832  0.00  0.00     0.119 C 
BRANCH   8   9
ATOM      9  C   LIG d   1      -4.016  76.398 115.688  0.00  0.00     0.028 C 
ATOM     10  C   LIG d   1      -3.609  77.881 115.708  0.00  0.00     0.006 C 
ENDBRANCH   8   9
BRANCH   8  11
ATOM     11  C   LIG d   1      -6.028  75.795 114.440  0.00  0.00     0.028 C 
ATOM     12  C   LIG d   1      -4.931  75.129 113.594  0.00  0.00     0.006 C 
ENDBRANCH   8  11
ENDBRANCH   7   8
ENDBRANCH   1   7
BRANCH   6  13
ATOM     13  N   LIG d   1      -6.153  79.835 118.111  0.00  0.00    -0.311 N 
ATOM     14  C   LIG d   1      -6.121  81.104 117.708  0.00  0.00     0.210 C 
ATOM     15  C   LIG d   1      -4.852  81.872 118.088  0.00  0.00     0.109 C 
ATOM     16  O   LIG d   1      -7.039  81.675 117.099  0.00  0.00    -0.276 OA
ATOM     17  H   LIG d   1      -5.380  79.463 118.627  0.00  0.00     0.149 HD
ENDBRANCH   6  13
BRANCH   5  18
ATOM     18  N   LIG d   1      -8.989  80.173 119.196  0.00  0.00     0.381 N 
ATOM     19  H   LIG d   1      -8.771  80.521 120.108  0.00  0.00    -0.090 HD
ATOM     20  H   LIG d   1      -9.983  80.036 119.139  0.00  0.00    -0.090 HD
ATOM     21  H   LIG d   1      -8.697  80.828 118.504  0.00  0.00    -0.090 HD
ENDBRANCH   5  18
BRANCH   3  22
ATOM     22  C   LIG d   1      -9.626  75.466 118.582  0.00  0.00     0.382 C 
ATOM     23  O   LIG d   1      -9.853  75.148 119.774  0.00  0.00    -0.241 OA
ATOM     24  O   LIG d   1     -10.045  74.737 117.662  0.00  0.00    -0.241 OA
ENDBRANCH   3  22
TORSDOF 7
ENDMDL
MODEL 8
REMARK VINA RESULT:      -4.3      2.568      3.872
REMARK  7 active torsions:
REMARK  status: ('A' for Active; 'I' for Inactive)
REMARK    1  A    between atoms: C_2  and  C_3 
REMARK    2  A    between atoms: C_3  and  O_6 
REMARK    3  A    between atoms: C_3  and  C_4 
REMARK    4  A    between atoms: C_7  and  O_6 
REMARK    5  A    between atoms: C_9  and  C_10 
REMARK    6  A    between atoms: N_15  and  C_14 
REMARK    7  A    between atoms: N_20  and  C_19 
REMARK       I    between atoms: C_22  and  N_20 
ROOT
ATOM      1  C   LIG d   1      -1.614  78.674 115.979  0.00  0.00     0.161 C 
ATOM      2  C   LIG d   1      -2.114  79.978 116.127  0.00  0.00     0.016 C 
ATOM      3  C   LIG d   1      -2.415  80.825 115.035  0.00  0.00     0.038 C 
ATOM      4  C   LIG d   1      -2.379  80.367 113.710  0.00  0.00     0.028 C 
ATOM      5  C   LIG d   1      -1.397  79.220 113.492  0.00  0.00    -0.047 C 
ATOM      6  C   LIG d   1      -1.672  78.118 114.540  0.00  0.00     0.091 C 
ENDROOT
BRANCH   1   7
ATOM      7  O   LIG d   1      -2.292  77.784 116.888  0.00  0.00    -0.368 OA
BRANCH   7   8
ATOM      8  C   LIG d   1      -1.454  77.092 117.846  0.00  0.00     0.119 C 
BRANCH   8   9
ATOM      9  C   LIG d   1      -1.931  75.628 117.906  0.00  0.00     0.028 C 
ATOM     10  C   LIG d   1      -0.760  74.631 117.936  0.00  0.00     0.006 C 
ENDBRANCH   8   9
BRANCH   8  11
ATOM     11  C   LIG d   1      -1.655  77.643 119.261  0.00  0.00     0.028 C 
ATOM     12  C   LIG d   1      -3.138  77.803 119.633  0.00  0.00     0.006 C 
ENDBRANCH   8  11
ENDBRANCH   7   8
ENDBRANCH   1   7
BRANCH   6  13
ATOM     13  N   LIG d   1      -0.702  76.996 114.452  0.00  0.00    -0.311 N 
ATOM     14  C   LIG d   1      -1.064  75.722 114.314  0.00  0.00     0.210 C 
ATOM     15  C   LIG d   1       0.095  74.722 114.263  0.00  0.00     0.109 C 
ATOM     16  O   LIG d   1      -2.235  75.328 114.196  0.00  0.00    -0.276 OA
ATOM     17  H   LIG d   1       0.271  77.229 114.507  0.00  0.00     0.149 HD
ENDBRANCH   6  13
BRANCH   5  18
ATOM     18  N   LIG d   1      -1.561  78.750 112.103  0.00  0.00     0.381 N 
ATOM     19  H   LIG d   1      -0.888  79.197 111.513  0.00  0.00    -0.090 HD
ATOM     20  H   LIG d   1      -2.479  79.002 111.781  0.00  0.00    -0.090 HD
ATOM     21  H   LIG d   1      -1.446  77.762 112.062  0.00  0.00    -0.090 HD
ENDBRANCH   5  18
BRANCH   3  22
ATOM     22  C   LIG d   1      -2.720  82.158 115.263  0.00  0.00     0.382 C 
ATOM     23  O   LIG d   1      -2.423  82.690 116.360  0.00  0.00    -0.241 OA
ATOM     24  O   LIG d   1      -3.327  82.823 114.403  0.00  0.00    -0.241 OA
ENDBRANCH   3  22
TORSDOF 7
ENDMDL
MODEL 9
REMARK VINA RESULT:      -4.3      3.956      5.507
REMARK  7 active torsions:
REMARK  status: ('A' for Active; 'I' for Inactive)
REMARK    1  A    between atoms: C_2  and  C_3 
REMARK    2  A    between atoms: C_3  and  O_6 
REMARK    3  A    between atoms: C_3  and  C_4 
REMARK    4  A    between atoms: C_7  and  O_6 
REMARK    5  A    between atoms: C_9  and  C_10 
REMARK    6  A    between atoms: N_15  and  C_14 
REMARK    7  A    between atoms: N_20  and  C_19 
REMARK       I    between atoms: C_22  and  N_20 
ROOT
ATOM      1  C   LIG d   1      -6.392  76.310 116.986  0.00  0.00     0.161 C 
ATOM      2  C   LIG d   1      -6.291  75.762 115.696  0.00  0.00     0.016 C 
ATOM      3  C   LIG d   1      -5.177  75.963 114.850  0.00  0.00     0.038 C 
ATOM      4  C   LIG d   1      -4.012  76.605 115.297  0.00  0.00     0.028 C 
ATOM      5  C   LIG d   1      -4.267  77.609 116.416  0.00  0.00    -0.047 C 
ATOM      6  C   LIG d   1      -5.084  76.920 117.532  0.00  0.00     0.091 C 
ENDROOT
BRANCH   1   7
ATOM      7  O   LIG d   1      -6.902  75.319 117.899  0.00  0.00    -0.368 OA
BRANCH   7   8
ATOM      8  C   LIG d   1      -8.134  75.656 118.583  0.00  0.00     0.119 C 
BRANCH   8   9
ATOM      9  C   LIG d   1      -8.932  74.352 118.770  0.00  0.00     0.028 C 
ATOM     10  C   LIG d   1     -10.033  74.180 117.710  0.00  0.00     0.006 C 
ENDBRANCH   8   9
BRANCH   8  11
ATOM     11  C   LIG d   1      -9.023  76.555 117.718  0.00  0.00     0.028 C 
ATOM     12  C   LIG d   1      -9.600  77.748 118.496  0.00  0.00     0.006 C 
ENDBRANCH   8  11
ENDBRANCH   7   8
ENDBRANCH   1   7
BRANCH   6  13
ATOM     13  N   LIG d   1      -5.449  77.856 118.628  0.00  0.00    -0.311 N 
ATOM     14  C   LIG d   1      -6.148  78.974 118.436  0.00  0.00     0.210 C 
ATOM     15  C   LIG d   1      -6.397  79.805 119.698  0.00  0.00     0.109 C 
ATOM     16  O   LIG d   1      -6.612  79.338 117.345  0.00  0.00    -0.276 OA
ATOM     17  H   LIG d   1      -5.139  77.621 119.551  0.00  0.00     0.149 HD
ENDBRANCH   6  13
BRANCH   5  18
ATOM     18  N   LIG d   1      -2.956  78.101 116.880  0.00  0.00     0.381 N 
ATOM     19  H   LIG d   1      -2.727  77.680 117.758  0.00  0.00    -0.090 HD
ATOM     20  H   LIG d   1      -3.010  79.096 117.012  0.00  0.00    -0.090 HD
ATOM     21  H   LIG d   1      -2.253  77.886 116.207  0.00  0.00    -0.090 HD
ENDBRANCH   5  18
BRANCH   3  22
ATOM     22  C   LIG d   1      -5.236  75.553 113.526  0.00  0.00     0.382 C 
ATOM     23  O   LIG d   1      -4.506  74.614 113.128  0.00  0.00    -0.241 OA
ATOM     24  O   LIG d   1      -5.977  76.141 112.716  0.00  0.00    -0.241 OA
ENDBRANCH   3  22
TORSDOF 7
ENDMDL
