MODEL 1
REMARK VINA RESULT:      -4.9      0.000      0.000
REMARK  7 active torsions:
REMARK  status: ('A' for Active; 'I' for Inactive)
REMARK    1  A    between atoms: C_2  and  C_3 
REMARK    2  A    between atoms: C_3  and  O_6 
REMARK    3  A    between atoms: C_3  and  C_4 
REMARK    4  A    between atoms: C_7  and  O_6 
REMARK    5  A    between atoms: C_9  and  C_10 
REMARK    6  A    between atoms: N_15  and  C_14 
REMARK    7  A    between atoms: N_20  and  C_19 
REMARK       I    between atoms: C_22  and  N_20 
ROOT
ATOM      1  C   LIG d   1      -1.987  77.570 115.460  0.00  0.00     0.161 C 
ATOM      2  C   LIG d   1      -2.409  78.470 114.467  0.00  0.00     0.016 C 
ATOM      3  C   LIG d   1      -2.065  78.338 113.102  0.00  0.00     0.038 C 
ATOM      4  C   LIG d   1      -1.398  77.206 112.610  0.00  0.00     0.028 C 
ATOM      5  C   LIG d   1      -0.517  76.523 113.651  0.00  0.00    -0.047 C 
ATOM      6  C   LIG d   1      -1.352  76.268 114.926  0.00  0.00     0.091 C 
ENDROOT
BRANCH   1   7
ATOM      7  O   LIG d   1      -3.086  77.266 116.342  0.00  0.00    -0.368 OA
BRANCH   7   8
ATOM      8  C   LIG d   1      -4.408  77.304 115.750  0.00  0.00     0.119 C 
BRANCH   8   9
ATOM      9  C   LIG d   1      -5.333  78.052 116.730  0.00  0.00     0.028 C 
ATOM     10  C   LIG d   1      -5.408  77.367 118.105  0.00  0.00     0.006 C 
ENDBRANCH   8   9
BRANCH   8  11
ATOM     11  C   LIG d   1      -5.003  75.898 115.623  0.00  0.00     0.028 C 
ATOM     12  C   LIG d   1      -4.844  75.309 114.213  0.00  0.00     0.006 C 
ENDBRANCH   8  11
ENDBRANCH   7   8
ENDBRANCH   1   7
BRANCH   6  13
ATOM     13  N   LIG d   1      -0.544  75.679 116.025  0.00  0.00    -0.311 N 
ATOM     14  C   LIG d   1      -0.994  74.722 116.834  0.00  0.00     0.210 C 
ATOM     15  C   LIG d   1      -0.005  74.269 117.913  0.00  0.00     0.109 C 
ATOM     16  O   LIG d   1      -2.106  74.181 116.741  0.00  0.00    -0.276 OA
ATOM     17  H   LIG d   1       0.383  76.037 116.152  0.00  0.00     0.149 HD
ENDBRANCH   6  13
BRANCH   5  18
ATOM     18  N   LIG d   1       0.008  75.284 113.046  0.00  0.00     0.381 N 
ATOM     19  H   LIG d   1       0.548  75.506 112.234  0.00  0.00    -0.090 HD
ATOM     20  H   LIG d   1      -0.765  74.708 112.763  0.00  0.00    -0.090 HD
ATOM     21  H   LIG d   1       0.572  74.796 113.706  0.00  0.00    -0.090 HD
ENDBRANCH   5  18
BRANCH   3  22
ATOM     22  C   LIG d   1      -2.356  79.367 112.218  0.00  0.00     0.382 C 
ATOM     23  O   LIG d   1      -1.725  79.462 111.137  0.00  0.00    -0.241 OA
ATOM     24  O   LIG d   1      -3.209  80.227 112.508  0.00  0.00    -0.241 OA
ENDBRANCH   3  22
TORSDOF 7
ENDMDL
MODEL 2
REMARK VINA RESULT:      -4.7      3.316      5.771
REMARK  7 active torsions:
REMARK  status: ('A' for Active; 'I' for Inactive)
REMARK    1  A    between atoms: C_2  and  C_3 
REMARK    2  A    between atoms: C_3  and  O_6 
REMARK    3  A    between atoms: C_3  and  C_4 
REMARK    4  A    between atoms: C_7  and  O_6 
REMARK    5  A    between atoms: C_9  and  C_10 
REMARK    6  A    between atoms: N_15  and  C_14 
REMARK    7  A    between atoms: N_20  and  C_19 
REMARK       I    between atoms: C_22  and  N_20 
ROOT
ATOM      1  C   LIG d   1      -5.898  77.406 116.827  0.00  0.00     0.161 C 
ATOM      2  C   LIG d   1      -7.192  77.944 116.924  0.00  0.00     0.016 C 
ATOM      3  C   LIG d   1      -7.514  79.054 117.738  0.00  0.00     0.038 C 
ATOM      4  C   LIG d   1      -6.527  79.801 118.399  0.00  0.00     0.028 C 
ATOM      5  C   LIG d   1      -5.278  78.992 118.732  0.00  0.00    -0.047 C 
ATOM      6  C   LIG d   1      -4.787  78.276 117.453  0.00  0.00     0.091 C 
ENDROOT
BRANCH   1   7
ATOM      7  O   LIG d   1      -5.590  77.118 115.448  0.00  0.00    -0.368 OA
BRANCH   7   8
ATOM      8  C   LIG d   1      -5.852  75.763 115.007  0.00  0.00     0.119 C 
BRANCH   8   9
ATOM      9  C   LIG d   1      -5.678  74.837 116.226  0.00  0.00     0.028 C 
ATOM     10  C   LIG d   1      -4.288  74.181 116.272  0.00  0.00     0.006 C 
ENDBRANCH   8   9
BRANCH   8  11
ATOM     11  C   LIG d   1      -4.805  75.296 113.991  0.00  0.00     0.028 C 
ATOM     12  C   LIG d   1      -3.769  76.383 113.661  0.00  0.00     0.006 C 
ENDBRANCH   8  11
ENDBRANCH   7   8
ENDBRANCH   1   7
BRANCH   6  13
ATOM     13  N   LIG d   1      -3.618  77.396 117.710  0.00  0.00    -0.311 N 
ATOM     14  C   LIG d   1      -2.471  77.485 117.038  0.00  0.00     0.210 C 
ATOM     15  C   LIG d   1      -1.401  76.469 117.447  0.00  0.00     0.109 C 
ATOM     16  O   LIG d   1      -2.228  78.331 116.164  0.00  0.00    -0.276 OA
ATOM     17  H   LIG d   1      -3.717  76.701 118.424  0.00  0.00     0.149 HD
ENDBRANCH   6  13
BRANCH   5  18
ATOM     18  N   LIG d   1      -4.281  79.924 119.292  0.00  0.00     0.381 N 
ATOM     19  H   LIG d   1      -4.270  79.849 120.290  0.00  0.00    -0.090 HD
ATOM     20  H   LIG d   1      -4.541  80.863 119.048  0.00  0.00    -0.090 HD
ATOM     21  H   LIG d   1      -3.377  79.716 118.927  0.00  0.00    -0.090 HD
ENDBRANCH   5  18
BRANCH   3  22
ATOM     22  C   LIG d   1      -8.843  79.403 117.930  0.00  0.00     0.382 C 
ATOM     23  O   LIG d   1      -9.704  78.511 118.121  0.00  0.00    -0.241 OA
ATOM     24  O   LIG d   1      -9.197  80.595 117.869  0.00  0.00    -0.241 OA
ENDBRANCH   3  22
TORSDOF 7
ENDMDL
MODEL 3
REMARK VINA RESULT:      -4.6      2.492      4.756
REMARK  7 active torsions:
REMARK  status: ('A' for Active; 'I' for Inactive)
REMARK    1  A    between atoms: C_2  and  C_3 
REMARK    2  A    between atoms: C_3  and  O_6 
REMARK    3  A    between atoms: C_3  and  C_4 
REMARK    4  A    between atoms: C_7  and  O_6 
REMARK    5  A    between atoms: C_9  and  C_10 
REMARK    6  A    between atoms: N_15  and  C_14 
REMARK    7  A    between atoms: N_20  and  C_19 
REMARK       I    between atoms: C_22  and  N_20 
ROOT
ATOM      1  C   LIG d   1      -2.939  74.872 115.178  0.00  0.00     0.161 C 
ATOM      2  C   LIG d   1      -4.191  75.163 114.612  0.00  0.00     0.016 C 
ATOM      3  C   LIG d   1      -5.189  75.914 115.274  0.00  0.00     0.038 C 
ATOM      4  C   LIG d   1      -4.944  76.557 116.497  0.00  0.00     0.028 C 
ATOM      5  C   LIG d   1      -3.871  75.873 117.337  0.00  0.00    -0.047 C 
ATOM      6  C   LIG d   1      -2.612  75.658 116.465  0.00  0.00     0.091 C 
ENDROOT
BRANCH   1   7
ATOM      7  O   LIG d   1      -1.901  75.064 114.196  0.00  0.00    -0.368 OA
BRANCH   7   8
ATOM      8  C   LIG d   1      -1.470  76.431 113.985  0.00  0.00     0.119 C 
BRANCH   8   9
ATOM      9  C   LIG d   1      -1.618  76.736 112.482  0.00  0.00     0.028 C 
ATOM     10  C   LIG d   1      -2.659  77.835 112.206  0.00  0.00     0.006 C 
ENDBRANCH   8   9
BRANCH   8  11
ATOM     11  C   LIG d   1       0.022  76.598 114.287  0.00  0.00     0.028 C 
ATOM     12  C   LIG d   1       0.368  77.994 114.829  0.00  0.00     0.006 C 
ENDBRANCH   8  11
ENDBRANCH   7   8
ENDBRANCH   1   7
BRANCH   6  13
ATOM     13  N   LIG d   1      -1.543  74.919 117.185  0.00  0.00    -0.311 N 
ATOM     14  C   LIG d   1      -0.572  75.518 117.872  0.00  0.00     0.210 C 
ATOM     15  C   LIG d   1       0.440  74.570 118.523  0.00  0.00     0.109 C 
ATOM     16  O   LIG d   1      -0.472  76.744 118.032  0.00  0.00    -0.276 OA
ATOM     17  H   LIG d   1      -1.566  73.919 117.135  0.00  0.00     0.149 HD
ENDBRANCH   6  13
BRANCH   5  18
ATOM     18  N   LIG d   1      -3.619  76.722 118.516  0.00  0.00     0.381 N 
ATOM     19  H   LIG d   1      -2.970  77.445 118.281  0.00  0.00    -0.090 HD
ATOM     20  H   LIG d   1      -3.213  76.158 119.242  0.00  0.00    -0.090 HD
ATOM     21  H   LIG d   1      -4.473  77.123 118.836  0.00  0.00    -0.090 HD
ENDBRANCH   5  18
BRANCH   3  22
ATOM     22  C   LIG d   1      -6.462  75.994 114.732  0.00  0.00     0.382 C 
ATOM     23  O   LIG d   1      -7.466  75.981 115.484  0.00  0.00    -0.241 OA
ATOM     24  O   LIG d   1      -6.621  76.034 113.497  0.00  0.00    -0.241 OA
ENDBRANCH   3  22
TORSDOF 7
ENDMDL
MODEL 4
REMARK VINA RESULT:      -4.6      1.353      1.782
REMARK  7 active torsions:
REMARK  status: ('A' for Active; 'I' for Inactive)
REMARK    1  A    between atoms: C_2  and  C_3 
REMARK    2  A    between atoms: C_3  and  O_6 
REMARK    3  A    between atoms: C_3  and  C_4 
REMARK    4  A    between atoms: C_7  and  O_6 
REMARK    5  A    between atoms: C_9  and  C_10 
REMARK    6  A    between atoms: N_15  and  C_14 
REMARK    7  A    between atoms: N_20  and  C_19 
REMARK       I    between atoms: C_22  and  N_20 
ROOT
ATOM      1  C   LIG d   1      -2.933  77.359 114.809  0.00  0.00     0.161 C 
ATOM      2  C   LIG d   1      -3.036  78.493 113.986  0.00  0.00     0.016 C 
ATOM      3  C   LIG d   1      -2.314  78.646 112.780  0.00  0.00     0.038 C 
ATOM      4  C   LIG d   1      -1.550  77.603 112.235  0.00  0.00     0.028 C 
ATOM      5  C   LIG d   1      -1.018  76.631 113.283  0.00  0.00    -0.047 C 
ATOM      6  C   LIG d   1      -2.190  76.165 114.176  0.00  0.00     0.091 C 
ENDROOT
BRANCH   1   7
ATOM      7  O   LIG d   1      -4.245  76.956 115.251  0.00  0.00    -0.368 OA
BRANCH   7   8
ATOM      8  C   LIG d   1      -4.676  77.482 116.531  0.00  0.00     0.119 C 
BRANCH   8   9
ATOM      9  C   LIG d   1      -4.359  76.418 117.599  0.00  0.00     0.028 C 
ATOM     10  C   LIG d   1      -3.412  76.945 118.690  0.00  0.00     0.006 C 
ENDBRANCH   8   9
BRANCH   8  11
ATOM     11  C   LIG d   1      -6.196  77.662 116.575  0.00  0.00     0.028 C 
ATOM     12  C   LIG d   1      -6.623  78.940 117.313  0.00  0.00     0.006 C 
ENDBRANCH   8  11
ENDBRANCH   7   8
ENDBRANCH   1   7
BRANCH   6  13
ATOM     13  N   LIG d   1      -1.742  75.277 115.281  0.00  0.00    -0.311 N 
ATOM     14  C   LIG d   1      -0.885  75.657 116.226  0.00  0.00     0.210 C 
ATOM     15  C   LIG d   1      -0.541  74.580 117.259  0.00  0.00     0.109 C 
ATOM     16  O   LIG d   1      -0.400  76.795 116.324  0.00  0.00    -0.276 OA
ATOM     17  H   LIG d   1      -2.110  74.346 115.295  0.00  0.00     0.149 HD
ENDBRANCH   6  13
BRANCH   5  18
ATOM     18  N   LIG d   1      -0.358  75.522 112.568  0.00  0.00     0.381 N 
ATOM     19  H   LIG d   1      -0.685  75.487 111.623  0.00  0.00    -0.090 HD
ATOM     20  H   LIG d   1      -0.599  74.657 113.018  0.00  0.00    -0.090 HD
ATOM     21  H   LIG d   1       0.630  75.648 112.581  0.00  0.00    -0.090 HD
ENDBRANCH   5  18
BRANCH   3  22
ATOM     22  C   LIG d   1      -2.321  79.868 112.125  0.00  0.00     0.382 C 
ATOM     23  O   LIG d   1      -1.451  80.120 111.258  0.00  0.00    -0.241 OA
ATOM     24  O   LIG d   1      -3.161  80.739 112.423  0.00  0.00    -0.241 OA
ENDBRANCH   3  22
TORSDOF 7
ENDMDL
MODEL 5
REMARK VINA RESULT:      -4.5      2.415      3.838
REMARK  7 active torsions:
REMARK  status: ('A' for Active; 'I' for Inactive)
REMARK    1  A    between atoms: C_2  and  C_3 
REMARK    2  A    between atoms: C_3  and  O_6 
REMARK    3  A    between atoms: C_3  and  C_4 
REMARK    4  A    between atoms: C_7  and  O_6 
REMARK    5  A    between atoms: C_9  and  C_10 
REMARK    6  A    between atoms: N_15  and  C_14 
REMARK    7  A    between atoms: N_20  and  C_19 
REMARK       I    between atoms: C_22  and  N_20 
ROOT
ATOM      1  C   LIG d   1      -3.073  77.883 115.300  0.00  0.00     0.161 C 
ATOM      2  C   LIG d   1      -2.581  77.113 114.233  0.00  0.00     0.016 C 
ATOM      3  C   LIG d   1      -1.436  76.288 114.332  0.00  0.00     0.038 C 
ATOM      4  C   LIG d   1      -0.790  76.060 115.556  0.00  0.00     0.028 C 
ATOM      5  C   LIG d   1      -0.947  77.208 116.547  0.00  0.00    -0.047 C 
ATOM      6  C   LIG d   1      -2.447  77.561 116.673  0.00  0.00     0.091 C 
ENDROOT
BRANCH   1   7
ATOM      7  O   LIG d   1      -4.508  77.767 115.364  0.00  0.00    -0.368 OA
BRANCH   7   8
ATOM      8  C   LIG d   1      -5.024  76.562 115.981  0.00  0.00     0.119 C 
BRANCH   8   9
ATOM      9  C   LIG d   1      -5.701  75.729 114.875  0.00  0.00     0.028 C 
ATOM     10  C   LIG d   1      -4.914  74.451 114.538  0.00  0.00     0.006 C 
ENDBRANCH   8   9
BRANCH   8  11
ATOM     11  C   LIG d   1      -6.135  76.881 116.985  0.00  0.00     0.028 C 
ATOM     12  C   LIG d   1      -6.476  78.379 117.040  0.00  0.00     0.006 C 
ENDBRANCH   8  11
ENDBRANCH   7   8
ENDBRANCH   1   7
BRANCH   6  13
ATOM     13  N   LIG d   1      -2.682  78.730 117.560  0.00  0.00    -0.311 N 
ATOM     14  C   LIG d   1      -3.229  78.633 118.771  0.00  0.00     0.210 C 
ATOM     15  C   LIG d   1      -3.400  79.964 119.510  0.00  0.00     0.109 C 
ATOM     16  O   LIG d   1      -3.558  77.569 119.315  0.00  0.00    -0.276 OA
ATOM     17  H   LIG d   1      -2.416  79.629 117.209  0.00  0.00     0.149 HD
ENDBRANCH   6  13
BRANCH   5  18
ATOM     18  N   LIG d   1      -0.345  76.781 117.824  0.00  0.00     0.381 N 
ATOM     19  H   LIG d   1      -0.701  75.882 118.083  0.00  0.00    -0.090 HD
ATOM     20  H   LIG d   1      -0.599  77.439 118.540  0.00  0.00    -0.090 HD
ATOM     21  H   LIG d   1       0.647  76.740 117.736  0.00  0.00    -0.090 HD
ENDBRANCH   5  18
BRANCH   3  22
ATOM     22  C   LIG d   1      -0.903  75.713 113.188  0.00  0.00     0.382 C 
ATOM     23  O   LIG d   1      -1.366  76.012 112.062  0.00  0.00    -0.241 OA
ATOM     24  O   LIG d   1       0.007  74.867 113.273  0.00  0.00    -0.241 OA
ENDBRANCH   3  22
TORSDOF 7
ENDMDL
MODEL 6
REMARK VINA RESULT:      -4.4      1.337      1.917
REMARK  7 active torsions:
REMARK  status: ('A' for Active; 'I' for Inactive)
REMARK    1  A    between atoms: C_2  and  C_3 
REMARK    2  A    between atoms: C_3  and  O_6 
REMARK    3  A    between atoms: C_3  and  C_4 
REMARK    4  A    between atoms: C_7  and  O_6 
REMARK    5  A    between atoms: C_9  and  C_10 
REMARK    6  A    between atoms: N_15  and  C_14 
REMARK    7  A    between atoms: N_20  and  C_19 
REMARK       I    between atoms: C_22  and  N_20 
ROOT
ATOM      1  C   LIG d   1      -2.710  76.804 115.041  0.00  0.00     0.161 C 
ATOM      2  C   LIG d   1      -2.932  77.900 114.191  0.00  0.00     0.016 C 
ATOM      3  C   LIG d   1      -2.238  78.094 112.974  0.00  0.00     0.038 C 
ATOM      4  C   LIG d   1      -1.376  77.121 112.449  0.00  0.00     0.028 C 
ATOM      5  C   LIG d   1      -0.741  76.235 113.515  0.00  0.00    -0.047 C 
ATOM      6  C   LIG d   1      -1.853  75.675 114.431  0.00  0.00     0.091 C 
ENDROOT
BRANCH   1   7
ATOM      7  O   LIG d   1      -3.970  76.282 115.505  0.00  0.00    -0.368 OA
BRANCH   7   8
ATOM      8  C   LIG d   1      -4.147  76.226 116.942  0.00  0.00     0.119 C 
BRANCH   8   9
ATOM      9  C   LIG d   1      -5.599  76.643 117.247  0.00  0.00     0.028 C 
ATOM     10  C   LIG d   1      -5.906  78.078 116.787  0.00  0.00     0.006 C 
ENDBRANCH   8   9
BRANCH   8  11
ATOM     11  C   LIG d   1      -3.270  77.262 117.652  0.00  0.00     0.028 C 
ATOM     12  C   LIG d   1      -2.708  76.752 118.989  0.00  0.00     0.006 C 
ENDBRANCH   8  11
ENDBRANCH   7   8
ENDBRANCH   1   7
BRANCH   6  13
ATOM     13  N   LIG d   1      -1.310  74.865 115.553  0.00  0.00    -0.311 N 
ATOM     14  C   LIG d   1      -0.397  75.319 116.409  0.00  0.00     0.210 C 
ATOM     15  C   LIG d   1       0.041  74.315 117.480  0.00  0.00     0.109 C 
ATOM     16  O   LIG d   1       0.068  76.469 116.404  0.00  0.00    -0.276 OA
ATOM     17  H   LIG d   1      -1.656  73.931 115.650  0.00  0.00     0.149 HD
ENDBRANCH   6  13
BRANCH   5  18
ATOM     18  N   LIG d   1       0.023  75.181 112.822  0.00  0.00     0.381 N 
ATOM     19  H   LIG d   1      -0.579  74.680 112.200  0.00  0.00    -0.090 HD
ATOM     20  H   LIG d   1       0.379  74.535 113.505  0.00  0.00    -0.090 HD
ATOM     21  H   LIG d   1       0.777  75.585 112.312  0.00  0.00    -0.090 HD
ENDBRANCH   5  18
BRANCH   3  22
ATOM     22  C   LIG d   1      -2.374  79.293 112.290  0.00  0.00     0.382 C 
ATOM     23  O   LIG d   1      -3.135  80.186 112.734  0.00  0.00    -0.241 OA
ATOM     24  O   LIG d   1      -1.780  79.474 111.211  0.00  0.00    -0.241 OA
ENDBRANCH   3  22
TORSDOF 7
ENDMDL
MODEL 7
REMARK VINA RESULT:      -4.3      2.134      5.118
REMARK  7 active torsions:
REMARK  status: ('A' for Active; 'I' for Inactive)
REMARK    1  A    between atoms: C_2  and  C_3 
REMARK    2  A    between atoms: C_3  and  O_6 
REMARK    3  A    between atoms: C_3  and  C_4 
REMARK    4  A    between atoms: C_7  and  O_6 
REMARK    5  A    between atoms: C_9  and  C_10 
REMARK    6  A    between atoms: N_15  and  C_14 
REMARK    7  A    between atoms: N_20  and  C_19 
REMARK       I    between atoms: C_22  and  N_20 
ROOT
ATOM      1  C   LIG d   1      -2.897  77.017 115.517  0.00  0.00     0.161 C 
ATOM      2  C   LIG d   1      -2.827  76.688 116.881  0.00  0.00     0.016 C 
ATOM      3  C   LIG d   1      -1.885  77.253 117.770  0.00  0.00     0.038 C 
ATOM      4  C   LIG d   1      -1.039  78.304 117.385  0.00  0.00     0.028 C 
ATOM      5  C   LIG d   1      -0.729  78.316 115.892  0.00  0.00    -0.047 C 
ATOM      6  C   LIG d   1      -2.056  78.243 115.103  0.00  0.00     0.091 C 
ENDROOT
BRANCH   1   7
ATOM      7  O   LIG d   1      -4.273  77.198 115.127  0.00  0.00    -0.368 OA
BRANCH   7   8
ATOM      8  C   LIG d   1      -5.259  76.501 115.927  0.00  0.00     0.119 C 
BRANCH   8   9
ATOM      9  C   LIG d   1      -5.985  75.505 115.002  0.00  0.00     0.028 C 
ATOM     10  C   LIG d   1      -5.008  74.631 114.197  0.00  0.00     0.006 C 
ENDBRANCH   8   9
BRANCH   8  11
ATOM     11  C   LIG d   1      -6.346  77.455 116.429  0.00  0.00     0.028 C 
ATOM     12  C   LIG d   1      -5.774  78.756 117.014  0.00  0.00     0.006 C 
ENDBRANCH   8  11
ENDBRANCH   7   8
ENDBRANCH   1   7
BRANCH   6  13
ATOM     13  N   LIG d   1      -1.839  78.165 113.635  0.00  0.00    -0.311 N 
ATOM     14  C   LIG d   1      -2.398  79.005 112.766  0.00  0.00     0.210 C 
ATOM     15  C   LIG d   1      -2.059  78.736 111.296  0.00  0.00     0.109 C 
ATOM     16  O   LIG d   1      -3.117  79.968 113.075  0.00  0.00    -0.276 OA
ATOM     17  H   LIG d   1      -1.244  77.433 113.300  0.00  0.00     0.149 HD
ENDBRANCH   6  13
BRANCH   5  18
ATOM     18  N   LIG d   1       0.046  79.539 115.608  0.00  0.00     0.381 N 
ATOM     19  H   LIG d   1       1.016  79.311 115.515  0.00  0.00    -0.090 HD
ATOM     20  H   LIG d   1      -0.056  80.175 116.379  0.00  0.00    -0.090 HD
ATOM     21  H   LIG d   1      -0.284  79.965 114.770  0.00  0.00    -0.090 HD
ENDBRANCH   5  18
BRANCH   3  22
ATOM     22  C   LIG d   1      -1.753  76.738 119.051  0.00  0.00     0.382 C 
ATOM     23  O   LIG d   1      -0.663  76.237 119.417  0.00  0.00    -0.241 OA
ATOM     24  O   LIG d   1      -2.725  76.727 119.830  0.00  0.00    -0.241 OA
ENDBRANCH   3  22
TORSDOF 7
ENDMDL
MODEL 8
REMARK VINA RESULT:      -4.3      2.764      5.024
REMARK  7 active torsions:
REMARK  status: ('A' for Active; 'I' for Inactive)
REMARK    1  A    between atoms: C_2  and  C_3 
REMARK    2  A    between atoms: C_3  and  O_6 
REMARK    3  A    between atoms: C_3  and  C_4 
REMARK    4  A    between atoms: C_7  and  O_6 
REMARK    5  A    between atoms: C_9  and  C_10 
REMARK    6  A    between atoms: N_15  and  C_14 
REMARK    7  A    between atoms: N_20  and  C_19 
REMARK       I    between atoms: C_22  and  N_20 
ROOT
ATOM      1  C   LIG d   1      -3.417  77.839 116.304  0.00  0.00     0.161 C 
ATOM      2  C   LIG d   1      -4.588  78.366 116.873  0.00  0.00     0.016 C 
ATOM      3  C   LIG d   1      -5.865  77.780 116.708  0.00  0.00     0.038 C 
ATOM      4  C   LIG d   1      -6.034  76.535 116.084  0.00  0.00     0.028 C 
ATOM      5  C   LIG d   1      -4.951  76.219 115.058  0.00  0.00    -0.047 C 
ATOM      6  C   LIG d   1      -3.565  76.421 115.714  0.00  0.00     0.091 C 
ENDROOT
BRANCH   1   7
ATOM      7  O   LIG d   1      -2.348  77.869 117.271  0.00  0.00    -0.368 OA
BRANCH   7   8
ATOM      8  C   LIG d   1      -1.402  78.959 117.141  0.00  0.00     0.119 C 
BRANCH   8   9
ATOM      9  C   LIG d   1      -0.066  78.357 116.663  0.00  0.00     0.028 C 
ATOM     10  C   LIG d   1       0.276  78.762 115.219  0.00  0.00     0.006 C 
ENDBRANCH   8   9
BRANCH   8  11
ATOM     11  C   LIG d   1      -1.096  79.596 118.500  0.00  0.00     0.028 C 
ATOM     12  C   LIG d   1      -2.213  80.535 118.983  0.00  0.00     0.006 C 
ENDBRANCH   8  11
ENDBRANCH   7   8
ENDBRANCH   1   7
BRANCH   6  13
ATOM     13  N   LIG d   1      -2.449  76.214 114.754  0.00  0.00    -0.311 N 
ATOM     14  C   LIG d   1      -1.448  75.363 114.968  0.00  0.00     0.210 C 
ATOM     15  C   LIG d   1      -0.390  75.318 113.861  0.00  0.00     0.109 C 
ATOM     16  O   LIG d   1      -1.352  74.616 115.954  0.00  0.00    -0.276 OA
ATOM     17  H   LIG d   1      -2.464  76.757 113.913  0.00  0.00     0.149 HD
ENDBRANCH   6  13
BRANCH   5  18
ATOM     18  N   LIG d   1      -5.172  74.839 114.587  0.00  0.00     0.381 N 
ATOM     19  H   LIG d   1      -5.107  74.204 115.357  0.00  0.00    -0.090 HD
ATOM     20  H   LIG d   1      -4.455  74.603 113.923  0.00  0.00    -0.090 HD
ATOM     21  H   LIG d   1      -6.068  74.764 114.160  0.00  0.00    -0.090 HD
ENDBRANCH   5  18
BRANCH   3  22
ATOM     22  C   LIG d   1      -6.994  78.461 117.135  0.00  0.00     0.382 C 
ATOM     23  O   LIG d   1      -7.056  79.709 117.016  0.00  0.00    -0.241 OA
ATOM     24  O   LIG d   1      -7.933  77.850 117.679  0.00  0.00    -0.241 OA
ENDBRANCH   3  22
TORSDOF 7
ENDMDL
MODEL 9
REMARK VINA RESULT:      -4.2      2.790      4.564
REMARK  7 active torsions:
REMARK  status: ('A' for Active; 'I' for Inactive)
REMARK    1  A    between atoms: C_2  and  C_3 
REMARK    2  A    between atoms: C_3  and  O_6 
REMARK    3  A    between atoms: C_3  and  C_4 
REMARK    4  A    between atoms: C_7  and  O_6 
REMARK    5  A    between atoms: C_9  and  C_10 
REMARK    6  A    between atoms: N_15  and  C_14 
REMARK    7  A    between atoms: N_20  and  C_19 
REMARK       I    between atoms: C_22  and  N_20 
ROOT
ATOM      1  C   LIG d   1      -3.131  77.751 116.113  0.00  0.00     0.161 C 
ATOM      2  C   LIG d   1      -4.315  78.261 116.671  0.00  0.00     0.016 C 
ATOM      3  C   LIG d   1      -5.571  77.625 116.546  0.00  0.00     0.038 C 
ATOM      4  C   LIG d   1      -5.703  76.348 115.980  0.00  0.00     0.028 C 
ATOM      5  C   LIG d   1      -4.619  76.025 114.957  0.00  0.00    -0.047 C 
ATOM      6  C   LIG d   1      -3.235  76.304 115.587  0.00  0.00     0.091 C 
ENDROOT
BRANCH   1   7
ATOM      7  O   LIG d   1      -2.055  77.862 117.065  0.00  0.00    -0.368 OA
BRANCH   7   8
ATOM      8  C   LIG d   1      -2.369  78.541 118.306  0.00  0.00     0.119 C 
BRANCH   8   9
ATOM      9  C   LIG d   1      -1.476  79.794 118.387  0.00  0.00     0.028 C 
ATOM     10  C   LIG d   1      -2.131  80.930 119.190  0.00  0.00     0.006 C 
ENDBRANCH   8   9
BRANCH   8  11
ATOM     11  C   LIG d   1      -1.985  77.690 119.520  0.00  0.00     0.028 C 
ATOM     12  C   LIG d   1      -2.376  76.212 119.359  0.00  0.00     0.006 C 
ENDBRANCH   8  11
ENDBRANCH   7   8
ENDBRANCH   1   7
BRANCH   6  13
ATOM     13  N   LIG d   1      -2.121  76.094 114.626  0.00  0.00    -0.311 N 
ATOM     14  C   LIG d   1      -1.098  75.273 114.857  0.00  0.00     0.210 C 
ATOM     15  C   LIG d   1      -0.048  75.218 113.743  0.00  0.00     0.109 C 
ATOM     16  O   LIG d   1      -0.977  74.560 115.865  0.00  0.00    -0.276 OA
ATOM     17  H   LIG d   1      -2.156  76.609 113.768  0.00  0.00     0.149 HD
ENDBRANCH   6  13
BRANCH   5  18
ATOM     18  N   LIG d   1      -4.795  74.618 114.550  0.00  0.00     0.381 N 
ATOM     19  H   LIG d   1      -4.088  74.051 114.973  0.00  0.00    -0.090 HD
ATOM     20  H   LIG d   1      -4.696  74.553 113.552  0.00  0.00    -0.090 HD
ATOM     21  H   LIG d   1      -5.697  74.295 114.823  0.00  0.00    -0.090 HD
ENDBRANCH   5  18
BRANCH   3  22
ATOM     22  C   LIG d   1      -6.720  78.285 116.956  0.00  0.00     0.382 C 
ATOM     23  O   LIG d   1      -7.740  77.629 117.275  0.00  0.00    -0.241 OA
ATOM     24  O   LIG d   1      -6.763  79.530 116.967  0.00  0.00    -0.241 OA
ENDBRANCH   3  22
TORSDOF 7
ENDMDL
