MODEL 1
REMARK VINA RESULT:      -5.3      0.000      0.000
REMARK  7 active torsions:
REMARK  status: ('A' for Active; 'I' for Inactive)
REMARK    1  A    between atoms: C_2  and  C_3 
REMARK    2  A    between atoms: C_3  and  O_6 
REMARK    3  A    between atoms: C_3  and  C_4 
REMARK    4  A    between atoms: C_7  and  O_6 
REMARK    5  A    between atoms: C_9  and  C_10 
REMARK    6  A    between atoms: N_15  and  C_14 
REMARK    7  A    between atoms: N_20  and  C_19 
REMARK       I    between atoms: C_22  and  N_20 
ROOT
ATOM      1  C   LIG d   1      -1.592  78.546 115.142  0.00  0.00     0.161 C 
ATOM      2  C   LIG d   1      -2.075  79.769 114.647  0.00  0.00     0.016 C 
ATOM      3  C   LIG d   1      -2.222  80.047 113.269  0.00  0.00     0.038 C 
ATOM      4  C   LIG d   1      -2.036  79.060 112.289  0.00  0.00     0.028 C 
ATOM      5  C   LIG d   1      -1.064  77.964 112.711  0.00  0.00    -0.047 C 
ATOM      6  C   LIG d   1      -1.490  77.419 114.093  0.00  0.00     0.091 C 
ENDROOT
BRANCH   1   7
ATOM      7  O   LIG d   1      -2.397  78.120 116.259  0.00  0.00    -0.368 OA
BRANCH   7   8
ATOM      8  C   LIG d   1      -3.830  78.266 116.106  0.00  0.00     0.119 C 
BRANCH   8   9
ATOM      9  C   LIG d   1      -4.339  79.109 117.291  0.00  0.00     0.028 C 
ATOM     10  C   LIG d   1      -5.865  79.019 117.462  0.00  0.00     0.006 C 
ENDBRANCH   8   9
BRANCH   8  11
ATOM     11  C   LIG d   1      -4.544  76.917 116.231  0.00  0.00     0.028 C 
ATOM     12  C   LIG d   1      -5.117  76.419 114.894  0.00  0.00     0.006 C 
ENDBRANCH   8  11
ENDBRANCH   7   8
ENDBRANCH   1   7
BRANCH   6  13
ATOM     13  N   LIG d   1      -0.544  76.401 114.618  0.00  0.00    -0.311 N 
ATOM     14  C   LIG d   1      -0.926  75.206 115.065  0.00  0.00     0.210 C 
ATOM     15  C   LIG d   1       0.209  74.315 115.581  0.00  0.00     0.109 C 
ATOM     16  O   LIG d   1      -2.093  74.787 115.054  0.00  0.00    -0.276 OA
ATOM     17  H   LIG d   1       0.427  76.646 114.635  0.00  0.00     0.149 HD
ENDBRANCH   6  13
BRANCH   5  18
ATOM     18  N   LIG d   1      -1.070  76.933 111.656  0.00  0.00     0.381 N 
ATOM     19  H   LIG d   1      -1.299  77.350 110.776  0.00  0.00    -0.090 HD
ATOM     20  H   LIG d   1      -1.774  76.249 111.874  0.00  0.00    -0.090 HD
ATOM     21  H   LIG d   1      -0.177  76.495 111.602  0.00  0.00    -0.090 HD
ENDBRANCH   5  18
BRANCH   3  22
ATOM     22  C   LIG d   1      -2.519  81.337 112.856  0.00  0.00     0.382 C 
ATOM     23  O   LIG d   1      -3.715  81.702 112.752  0.00  0.00    -0.241 OA
ATOM     24  O   LIG d   1      -1.607  82.126 112.542  0.00  0.00    -0.241 OA
ENDBRANCH   3  22
TORSDOF 7
ENDMDL
MODEL 2
REMARK VINA RESULT:      -5.2      2.270      5.295
REMARK  7 active torsions:
REMARK  status: ('A' for Active; 'I' for Inactive)
REMARK    1  A    between atoms: C_2  and  C_3 
REMARK    2  A    between atoms: C_3  and  O_6 
REMARK    3  A    between atoms: C_3  and  C_4 
REMARK    4  A    between atoms: C_7  and  O_6 
REMARK    5  A    between atoms: C_9  and  C_10 
REMARK    6  A    between atoms: N_15  and  C_14 
REMARK    7  A    between atoms: N_20  and  C_19 
REMARK       I    between atoms: C_22  and  N_20 
ROOT
ATOM      1  C   LIG d   1      -2.102  75.623 114.779  0.00  0.00     0.161 C 
ATOM      2  C   LIG d   1      -1.957  75.057 116.056  0.00  0.00     0.016 C 
ATOM      3  C   LIG d   1      -1.201  75.655 117.091  0.00  0.00     0.038 C 
ATOM      4  C   LIG d   1      -0.661  76.943 116.965  0.00  0.00     0.028 C 
ATOM      5  C   LIG d   1      -0.355  77.333 115.523  0.00  0.00    -0.047 C 
ATOM      6  C   LIG d   1      -1.611  77.081 114.658  0.00  0.00     0.091 C 
ENDROOT
BRANCH   1   7
ATOM      7  O   LIG d   1      -3.474  75.519 114.351  0.00  0.00    -0.368 OA
BRANCH   7   8
ATOM      8  C   LIG d   1      -4.453  75.307 115.398  0.00  0.00     0.119 C 
BRANCH   8   9
ATOM      9  C   LIG d   1      -5.463  74.263 114.883  0.00  0.00     0.028 C 
ATOM     10  C   LIG d   1      -6.722  74.180 115.764  0.00  0.00     0.006 C 
ENDBRANCH   8   9
BRANCH   8  11
ATOM     11  C   LIG d   1      -5.275  76.574 115.656  0.00  0.00     0.028 C 
ATOM     12  C   LIG d   1      -4.784  77.364 116.879  0.00  0.00     0.006 C 
ENDBRANCH   8  11
ENDBRANCH   7   8
ENDBRANCH   1   7
BRANCH   6  13
ATOM     13  N   LIG d   1      -1.372  77.357 113.217  0.00  0.00    -0.311 N 
ATOM     14  C   LIG d   1      -2.230  78.025 112.447  0.00  0.00     0.210 C 
ATOM     15  C   LIG d   1      -1.799  78.181 110.985  0.00  0.00     0.109 C 
ATOM     16  O   LIG d   1      -3.291  78.530 112.843  0.00  0.00    -0.276 OA
ATOM     17  H   LIG d   1      -0.521  77.010 112.821  0.00  0.00     0.149 HD
ENDBRANCH   6  13
BRANCH   5  18
ATOM     18  N   LIG d   1       0.072  78.745 115.524  0.00  0.00     0.381 N 
ATOM     19  H   LIG d   1      -0.301  79.212 114.721  0.00  0.00    -0.090 HD
ATOM     20  H   LIG d   1       1.075  78.781 115.472  0.00  0.00    -0.090 HD
ATOM     21  H   LIG d   1      -0.242  79.196 116.355  0.00  0.00    -0.090 HD
ENDBRANCH   5  18
BRANCH   3  22
ATOM     22  C   LIG d   1      -0.947  74.945 118.255  0.00  0.00     0.382 C 
ATOM     23  O   LIG d   1       0.236  74.717 118.604  0.00  0.00    -0.241 OA
ATOM     24  O   LIG d   1      -1.886  74.491 118.936  0.00  0.00    -0.241 OA
ENDBRANCH   3  22
TORSDOF 7
ENDMDL
MODEL 3
REMARK VINA RESULT:      -5.1      1.399      2.088
REMARK  7 active torsions:
REMARK  status: ('A' for Active; 'I' for Inactive)
REMARK    1  A    between atoms: C_2  and  C_3 
REMARK    2  A    between atoms: C_3  and  O_6 
REMARK    3  A    between atoms: C_3  and  C_4 
REMARK    4  A    between atoms: C_7  and  O_6 
REMARK    5  A    between atoms: C_9  and  C_10 
REMARK    6  A    between atoms: N_15  and  C_14 
REMARK    7  A    between atoms: N_20  and  C_19 
REMARK       I    between atoms: C_22  and  N_20 
ROOT
ATOM      1  C   LIG d   1      -1.771  78.479 115.087  0.00  0.00     0.161 C 
ATOM      2  C   LIG d   1      -2.215  79.719 114.597  0.00  0.00     0.016 C 
ATOM      3  C   LIG d   1      -2.247  80.046 113.222  0.00  0.00     0.038 C 
ATOM      4  C   LIG d   1      -1.978  79.094 112.227  0.00  0.00     0.028 C 
ATOM      5  C   LIG d   1      -1.040  77.984 112.689  0.00  0.00    -0.047 C 
ATOM      6  C   LIG d   1      -1.579  77.390 114.011  0.00  0.00     0.091 C 
ENDROOT
BRANCH   1   7
ATOM      7  O   LIG d   1      -2.664  78.013 116.118  0.00  0.00    -0.368 OA
BRANCH   7   8
ATOM      8  C   LIG d   1      -2.201  78.170 117.481  0.00  0.00     0.119 C 
BRANCH   8   9
ATOM      9  C   LIG d   1      -2.260  76.785 118.153  0.00  0.00     0.028 C 
ATOM     10  C   LIG d   1      -1.985  76.853 119.665  0.00  0.00     0.006 C 
ENDBRANCH   8   9
BRANCH   8  11
ATOM     11  C   LIG d   1      -3.151  79.055 118.294  0.00  0.00     0.028 C 
ATOM     12  C   LIG d   1      -2.558  80.439 118.604  0.00  0.00     0.006 C 
ENDBRANCH   8  11
ENDBRANCH   7   8
ENDBRANCH   1   7
BRANCH   6  13
ATOM     13  N   LIG d   1      -0.676  76.354 114.576  0.00  0.00    -0.311 N 
ATOM     14  C   LIG d   1      -1.108  75.197 115.073  0.00  0.00     0.210 C 
ATOM     15  C   LIG d   1      -0.012  74.279 115.624  0.00  0.00     0.109 C 
ATOM     16  O   LIG d   1      -2.293  74.829 115.081  0.00  0.00    -0.276 OA
ATOM     17  H   LIG d   1       0.305  76.557 114.580  0.00  0.00     0.149 HD
ENDBRANCH   6  13
BRANCH   5  18
ATOM     18  N   LIG d   1      -0.956  76.991 111.601  0.00  0.00     0.381 N 
ATOM     19  H   LIG d   1      -0.050  76.565 111.601  0.00  0.00    -0.090 HD
ATOM     20  H   LIG d   1      -1.084  77.460 110.722  0.00  0.00    -0.090 HD
ATOM     21  H   LIG d   1      -1.658  76.294 111.720  0.00  0.00    -0.090 HD
ENDBRANCH   5  18
BRANCH   3  22
ATOM     22  C   LIG d   1      -2.513  81.349 112.832  0.00  0.00     0.382 C 
ATOM     23  O   LIG d   1      -3.700  81.750 112.753  0.00  0.00    -0.241 OA
ATOM     24  O   LIG d   1      -1.584  82.116 112.515  0.00  0.00    -0.241 OA
ENDBRANCH   3  22
TORSDOF 7
ENDMDL
MODEL 4
REMARK VINA RESULT:      -5.1      2.407      3.042
REMARK  7 active torsions:
REMARK  status: ('A' for Active; 'I' for Inactive)
REMARK    1  A    between atoms: C_2  and  C_3 
REMARK    2  A    between atoms: C_3  and  O_6 
REMARK    3  A    between atoms: C_3  and  C_4 
REMARK    4  A    between atoms: C_7  and  O_6 
REMARK    5  A    between atoms: C_9  and  C_10 
REMARK    6  A    between atoms: N_15  and  C_14 
REMARK    7  A    between atoms: N_20  and  C_19 
REMARK       I    between atoms: C_22  and  N_20 
ROOT
ATOM      1  C   LIG d   1      -3.241  77.098 115.967  0.00  0.00     0.161 C 
ATOM      2  C   LIG d   1      -3.535  77.573 114.678  0.00  0.00     0.016 C 
ATOM      3  C   LIG d   1      -2.626  77.504 113.597  0.00  0.00     0.038 C 
ATOM      4  C   LIG d   1      -1.408  76.814 113.696  0.00  0.00     0.028 C 
ATOM      5  C   LIG d   1      -0.855  76.761 115.116  0.00  0.00    -0.047 C 
ATOM      6  C   LIG d   1      -1.960  76.243 116.065  0.00  0.00     0.091 C 
ENDROOT
BRANCH   1   7
ATOM      7  O   LIG d   1      -4.370  76.371 116.489  0.00  0.00    -0.368 OA
BRANCH   7   8
ATOM      8  C   LIG d   1      -5.612  76.511 115.757  0.00  0.00     0.119 C 
BRANCH   8   9
ATOM      9  C   LIG d   1      -6.631  77.184 116.697  0.00  0.00     0.028 C 
ATOM     10  C   LIG d   1      -7.873  76.309 116.939  0.00  0.00     0.006 C 
ENDBRANCH   8   9
BRANCH   8  11
ATOM     11  C   LIG d   1      -6.215  75.145 115.417  0.00  0.00     0.028 C 
ATOM     12  C   LIG d   1      -5.194  74.182 114.791  0.00  0.00     0.006 C 
ENDBRANCH   8  11
ENDBRANCH   7   8
ENDBRANCH   1   7
BRANCH   6  13
ATOM     13  N   LIG d   1      -1.530  76.240 117.487  0.00  0.00    -0.311 N 
ATOM     14  C   LIG d   1      -0.897  75.217 118.059  0.00  0.00     0.210 C 
ATOM     15  C   LIG d   1      -0.561  75.411 119.541  0.00  0.00     0.109 C 
ATOM     16  O   LIG d   1      -0.553  74.180 117.472  0.00  0.00    -0.276 OA
ATOM     17  H   LIG d   1      -1.741  77.054 118.030  0.00  0.00     0.149 HD
ENDBRANCH   6  13
BRANCH   5  18
ATOM     18  N   LIG d   1       0.341  75.898 115.096  0.00  0.00     0.381 N 
ATOM     19  H   LIG d   1       0.080  74.963 114.853  0.00  0.00    -0.090 HD
ATOM     20  H   LIG d   1       0.746  75.883 116.016  0.00  0.00    -0.090 HD
ATOM     21  H   LIG d   1       1.003  76.247 114.439  0.00  0.00    -0.090 HD
ENDBRANCH   5  18
BRANCH   3  22
ATOM     22  C   LIG d   1      -2.915  78.164 112.413  0.00  0.00     0.382 C 
ATOM     23  O   LIG d   1      -2.846  77.551 111.320  0.00  0.00    -0.241 OA
ATOM     24  O   LIG d   1      -3.200  79.377 112.419  0.00  0.00    -0.241 OA
ENDBRANCH   3  22
TORSDOF 7
ENDMDL
MODEL 5
REMARK VINA RESULT:      -4.8      2.258      4.707
REMARK  7 active torsions:
REMARK  status: ('A' for Active; 'I' for Inactive)
REMARK    1  A    between atoms: C_2  and  C_3 
REMARK    2  A    between atoms: C_3  and  O_6 
REMARK    3  A    between atoms: C_3  and  C_4 
REMARK    4  A    between atoms: C_7  and  O_6 
REMARK    5  A    between atoms: C_9  and  C_10 
REMARK    6  A    between atoms: N_15  and  C_14 
REMARK    7  A    between atoms: N_20  and  C_19 
REMARK       I    between atoms: C_22  and  N_20 
ROOT
ATOM      1  C   LIG d   1      -2.989  77.252 115.425  0.00  0.00     0.161 C 
ATOM      2  C   LIG d   1      -2.625  77.222 116.782  0.00  0.00     0.016 C 
ATOM      3  C   LIG d   1      -1.449  77.824 117.285  0.00  0.00     0.038 C 
ATOM      4  C   LIG d   1      -0.628  78.631 116.484  0.00  0.00     0.028 C 
ATOM      5  C   LIG d   1      -0.684  78.272 115.003  0.00  0.00    -0.047 C 
ATOM      6  C   LIG d   1      -2.163  78.223 114.555  0.00  0.00     0.091 C 
ENDROOT
BRANCH   1   7
ATOM      7  O   LIG d   1      -4.395  77.543 115.303  0.00  0.00    -0.368 OA
BRANCH   7   8
ATOM      8  C   LIG d   1      -5.299  76.590 115.914  0.00  0.00     0.119 C 
BRANCH   8   9
ATOM      9  C   LIG d   1      -5.851  75.690 114.792  0.00  0.00     0.028 C 
ATOM     10  C   LIG d   1      -5.286  74.261 114.854  0.00  0.00     0.006 C 
ENDBRANCH   8   9
BRANCH   8  11
ATOM     11  C   LIG d   1      -6.523  77.288 116.514  0.00  0.00     0.028 C 
ATOM     12  C   LIG d   1      -7.627  76.303 116.930  0.00  0.00     0.006 C 
ENDBRANCH   8  11
ENDBRANCH   7   8
ENDBRANCH   1   7
BRANCH   6  13
ATOM     13  N   LIG d   1      -2.312  77.796 113.140  0.00  0.00    -0.311 N 
ATOM     14  C   LIG d   1      -2.428  78.651 112.125  0.00  0.00     0.210 C 
ATOM     15  C   LIG d   1      -2.592  78.001 110.747  0.00  0.00     0.109 C 
ATOM     16  O   LIG d   1      -2.378  79.886 112.231  0.00  0.00    -0.276 OA
ATOM     17  H   LIG d   1      -2.331  76.812 112.959  0.00  0.00     0.149 HD
ENDBRANCH   6  13
BRANCH   5  18
ATOM     18  N   LIG d   1       0.109  79.277 114.271  0.00  0.00     0.381 N 
ATOM     19  H   LIG d   1       1.069  79.217 114.545  0.00  0.00    -0.090 HD
ATOM     20  H   LIG d   1      -0.230  80.193 114.506  0.00  0.00    -0.090 HD
ATOM     21  H   LIG d   1       0.027  79.127 113.289  0.00  0.00    -0.090 HD
ENDBRANCH   5  18
BRANCH   3  22
ATOM     22  C   LIG d   1      -1.063  77.586 118.596  0.00  0.00     0.382 C 
ATOM     23  O   LIG d   1      -1.558  78.264 119.528  0.00  0.00    -0.241 OA
ATOM     24  O   LIG d   1      -0.193  76.733 118.853  0.00  0.00    -0.241 OA
ENDBRANCH   3  22
TORSDOF 7
ENDMDL
MODEL 6
REMARK VINA RESULT:      -4.7      1.626      2.372
REMARK  7 active torsions:
REMARK  status: ('A' for Active; 'I' for Inactive)
REMARK    1  A    between atoms: C_2  and  C_3 
REMARK    2  A    between atoms: C_3  and  O_6 
REMARK    3  A    between atoms: C_3  and  C_4 
REMARK    4  A    between atoms: C_7  and  O_6 
REMARK    5  A    between atoms: C_9  and  C_10 
REMARK    6  A    between atoms: N_15  and  C_14 
REMARK    7  A    between atoms: N_20  and  C_19 
REMARK       I    between atoms: C_22  and  N_20 
ROOT
ATOM      1  C   LIG d   1      -2.937  78.946 115.966  0.00  0.00     0.161 C 
ATOM      2  C   LIG d   1      -2.934  79.906 114.940  0.00  0.00     0.016 C 
ATOM      3  C   LIG d   1      -2.245  79.736 113.718  0.00  0.00     0.038 C 
ATOM      4  C   LIG d   1      -1.631  78.521 113.375  0.00  0.00     0.028 C 
ATOM      5  C   LIG d   1      -1.180  77.708 114.584  0.00  0.00    -0.047 C 
ATOM      6  C   LIG d   1      -2.366  77.570 115.566  0.00  0.00     0.091 C 
ENDROOT
BRANCH   1   7
ATOM      7  O   LIG d   1      -4.270  78.801 116.496  0.00  0.00    -0.368 OA
BRANCH   7   8
ATOM      8  C   LIG d   1      -4.757  79.899 117.305  0.00  0.00     0.119 C 
BRANCH   8   9
ATOM      9  C   LIG d   1      -3.925  79.923 118.602  0.00  0.00     0.028 C 
ATOM     10  C   LIG d   1      -4.182  78.692 119.487  0.00  0.00     0.006 C 
ENDBRANCH   8   9
BRANCH   8  11
ATOM     11  C   LIG d   1      -6.202  79.662 117.754  0.00  0.00     0.028 C 
ATOM     12  C   LIG d   1      -6.955  80.967 118.055  0.00  0.00     0.006 C 
ENDBRANCH   8  11
ENDBRANCH   7   8
ENDBRANCH   1   7
BRANCH   6  13
ATOM     13  N   LIG d   1      -1.987  76.860 116.816  0.00  0.00    -0.311 N 
ATOM     14  C   LIG d   1      -2.173  75.554 117.002  0.00  0.00     0.210 C 
ATOM     15  C   LIG d   1      -1.729  75.027 118.370  0.00  0.00     0.109 C 
ATOM     16  O   LIG d   1      -2.632  74.777 116.152  0.00  0.00    -0.276 OA
ATOM     17  H   LIG d   1      -1.578  77.409 117.546  0.00  0.00     0.149 HD
ENDBRANCH   6  13
BRANCH   5  18
ATOM     18  N   LIG d   1      -0.685  76.410 114.089  0.00  0.00     0.381 N 
ATOM     19  H   LIG d   1      -1.080  75.668 114.630  0.00  0.00    -0.090 HD
ATOM     20  H   LIG d   1       0.314  76.381 114.195  0.00  0.00    -0.090 HD
ATOM     21  H   LIG d   1      -0.927  76.297 113.129  0.00  0.00    -0.090 HD
ENDBRANCH   5  18
BRANCH   3  22
ATOM     22  C   LIG d   1      -2.130  80.802 112.839  0.00  0.00     0.382 C 
ATOM     23  O   LIG d   1      -3.026  81.680 112.799  0.00  0.00    -0.241 OA
ATOM     24  O   LIG d   1      -1.165  80.874 112.055  0.00  0.00    -0.241 OA
ENDBRANCH   3  22
TORSDOF 7
ENDMDL
MODEL 7
REMARK VINA RESULT:      -4.7      2.723      3.832
REMARK  7 active torsions:
REMARK  status: ('A' for Active; 'I' for Inactive)
REMARK    1  A    between atoms: C_2  and  C_3 
REMARK    2  A    between atoms: C_3  and  O_6 
REMARK    3  A    between atoms: C_3  and  C_4 
REMARK    4  A    between atoms: C_7  and  O_6 
REMARK    5  A    between atoms: C_9  and  C_10 
REMARK    6  A    between atoms: N_15  and  C_14 
REMARK    7  A    between atoms: N_20  and  C_19 
REMARK       I    between atoms: C_22  and  N_20 
ROOT
ATOM      1  C   LIG d   1      -3.505  78.152 116.750  0.00  0.00     0.161 C 
ATOM      2  C   LIG d   1      -2.686  79.211 117.173  0.00  0.00     0.016 C 
ATOM      3  C   LIG d   1      -1.405  79.469 116.632  0.00  0.00     0.038 C 
ATOM      4  C   LIG d   1      -0.917  78.771 115.518  0.00  0.00     0.028 C 
ATOM      5  C   LIG d   1      -1.495  77.366 115.382  0.00  0.00    -0.047 C 
ATOM      6  C   LIG d   1      -3.037  77.448 115.459  0.00  0.00     0.091 C 
ENDROOT
BRANCH   1   7
ATOM      7  O   LIG d   1      -4.863  78.613 116.604  0.00  0.00    -0.368 OA
BRANCH   7   8
ATOM      8  C   LIG d   1      -5.819  78.094 117.562  0.00  0.00     0.119 C 
BRANCH   8   9
ATOM      9  C   LIG d   1      -7.100  77.731 116.787  0.00  0.00     0.028 C 
ATOM     10  C   LIG d   1      -7.583  76.302 117.088  0.00  0.00     0.006 C 
ENDBRANCH   8   9
BRANCH   8  11
ATOM     11  C   LIG d   1      -6.243  79.171 118.565  0.00  0.00     0.028 C 
ATOM     12  C   LIG d   1      -7.471  79.970 118.098  0.00  0.00     0.006 C 
ENDBRANCH   8  11
ENDBRANCH   7   8
ENDBRANCH   1   7
BRANCH   6  13
ATOM     13  N   LIG d   1      -3.678  76.108 115.419  0.00  0.00    -0.311 N 
ATOM     14  C   LIG d   1      -4.725  75.819 114.647  0.00  0.00     0.210 C 
ATOM     15  C   LIG d   1      -5.244  74.384 114.773  0.00  0.00     0.109 C 
ATOM     16  O   LIG d   1      -5.252  76.606 113.847  0.00  0.00    -0.276 OA
ATOM     17  H   LIG d   1      -3.295  75.401 116.014  0.00  0.00     0.149 HD
ENDBRANCH   6  13
BRANCH   5  18
ATOM     18  N   LIG d   1      -1.009  76.805 114.107  0.00  0.00     0.381 N 
ATOM     19  H   LIG d   1      -0.855  75.822 114.207  0.00  0.00    -0.090 HD
ATOM     20  H   LIG d   1      -0.133  77.239 113.875  0.00  0.00    -0.090 HD
ATOM     21  H   LIG d   1      -1.674  76.974 113.385  0.00  0.00    -0.090 HD
ENDBRANCH   5  18
BRANCH   3  22
ATOM     22  C   LIG d   1      -0.581  80.409 117.233  0.00  0.00     0.382 C 
ATOM     23  O   LIG d   1       0.311  80.981 116.562  0.00  0.00    -0.241 OA
ATOM     24  O   LIG d   1      -0.690  80.659 118.449  0.00  0.00    -0.241 OA
ENDBRANCH   3  22
TORSDOF 7
ENDMDL
MODEL 8
REMARK VINA RESULT:      -4.6      2.669      3.358
REMARK  7 active torsions:
REMARK  status: ('A' for Active; 'I' for Inactive)
REMARK    1  A    between atoms: C_2  and  C_3 
REMARK    2  A    between atoms: C_3  and  O_6 
REMARK    3  A    between atoms: C_3  and  C_4 
REMARK    4  A    between atoms: C_7  and  O_6 
REMARK    5  A    between atoms: C_9  and  C_10 
REMARK    6  A    between atoms: N_15  and  C_14 
REMARK    7  A    between atoms: N_20  and  C_19 
REMARK       I    between atoms: C_22  and  N_20 
ROOT
ATOM      1  C   LIG d   1      -2.810  78.128 114.421  0.00  0.00     0.161 C 
ATOM      2  C   LIG d   1      -2.842  77.841 113.046  0.00  0.00     0.016 C 
ATOM      3  C   LIG d   1      -1.963  78.429 112.108  0.00  0.00     0.038 C 
ATOM      4  C   LIG d   1      -0.886  79.236 112.505  0.00  0.00     0.028 C 
ATOM      5  C   LIG d   1      -1.123  79.954 113.829  0.00  0.00    -0.047 C 
ATOM      6  C   LIG d   1      -1.570  78.920 114.887  0.00  0.00     0.091 C 
ENDROOT
BRANCH   1   7
ATOM      7  O   LIG d   1      -2.938  76.908 115.178  0.00  0.00    -0.368 OA
BRANCH   7   8
ATOM      8  C   LIG d   1      -4.289  76.430 115.391  0.00  0.00     0.119 C 
BRANCH   8   9
ATOM      9  C   LIG d   1      -4.790  77.032 116.718  0.00  0.00     0.028 C 
ATOM     10  C   LIG d   1      -6.277  77.424 116.660  0.00  0.00     0.006 C 
ENDBRANCH   8   9
BRANCH   8  11
ATOM     11  C   LIG d   1      -4.317  74.913 115.598  0.00  0.00     0.028 C 
ATOM     12  C   LIG d   1      -5.455  74.226 114.826  0.00  0.00     0.006 C 
ENDBRANCH   8  11
ENDBRANCH   7   8
ENDBRANCH   1   7
BRANCH   6  13
ATOM     13  N   LIG d   1      -1.904  79.552 116.191  0.00  0.00    -0.311 N 
ATOM     14  C   LIG d   1      -1.369  79.170 117.349  0.00  0.00     0.210 C 
ATOM     15  C   LIG d   1      -1.866  79.940 118.576  0.00  0.00     0.109 C 
ATOM     16  O   LIG d   1      -0.505  78.288 117.472  0.00  0.00    -0.276 OA
ATOM     17  H   LIG d   1      -2.573  80.296 116.179  0.00  0.00     0.149 HD
ENDBRANCH   6  13
BRANCH   5  18
ATOM     18  N   LIG d   1       0.128  80.647 114.190  0.00  0.00     0.381 N 
ATOM     19  H   LIG d   1       0.316  81.373 113.528  0.00  0.00    -0.090 HD
ATOM     20  H   LIG d   1       0.885  79.988 114.159  0.00  0.00    -0.090 HD
ATOM     21  H   LIG d   1       0.051  81.034 115.105  0.00  0.00    -0.090 HD
ENDBRANCH   5  18
BRANCH   3  22
ATOM     22  C   LIG d   1      -2.183  78.244 110.751  0.00  0.00     0.382 C 
ATOM     23  O   LIG d   1      -3.208  77.638 110.359  0.00  0.00    -0.241 OA
ATOM     24  O   LIG d   1      -1.345  78.637 109.916  0.00  0.00    -0.241 OA
ENDBRANCH   3  22
TORSDOF 7
ENDMDL
MODEL 9
REMARK VINA RESULT:      -4.6      2.297      4.749
REMARK  7 active torsions:
REMARK  status: ('A' for Active; 'I' for Inactive)
REMARK    1  A    between atoms: C_2  and  C_3 
REMARK    2  A    between atoms: C_3  and  O_6 
REMARK    3  A    between atoms: C_3  and  C_4 
REMARK    4  A    between atoms: C_7  and  O_6 
REMARK    5  A    between atoms: C_9  and  C_10 
REMARK    6  A    between atoms: N_15  and  C_14 
REMARK    7  A    between atoms: N_20  and  C_19 
REMARK       I    between atoms: C_22  and  N_20 
ROOT
ATOM      1  C   LIG d   1      -1.561  79.958 114.360  0.00  0.00     0.161 C 
ATOM      2  C   LIG d   1      -2.430  78.881 114.600  0.00  0.00     0.016 C 
ATOM      3  C   LIG d   1      -2.564  77.779 113.723  0.00  0.00     0.038 C 
ATOM      4  C   LIG d   1      -1.721  77.606 112.615  0.00  0.00     0.028 C 
ATOM      5  C   LIG d   1      -1.177  78.917 112.058  0.00  0.00    -0.047 C 
ATOM      6  C   LIG d   1      -0.553  79.733 113.214  0.00  0.00     0.091 C 
ENDROOT
BRANCH   1   7
ATOM      7  O   LIG d   1      -0.868  80.306 115.575  0.00  0.00    -0.368 OA
BRANCH   7   8
ATOM      8  C   LIG d   1      -1.046  79.401 116.692  0.00  0.00     0.119 C 
BRANCH   8   9
ATOM      9  C   LIG d   1      -1.304  80.258 117.947  0.00  0.00     0.028 C 
ATOM     10  C   LIG d   1      -2.779  80.235 118.381  0.00  0.00     0.006 C 
ENDBRANCH   8   9
BRANCH   8  11
ATOM     11  C   LIG d   1       0.240  78.623 116.990  0.00  0.00     0.028 C 
ATOM     12  C   LIG d   1       0.097  77.115 116.731  0.00  0.00     0.006 C 
ENDBRANCH   8  11
ENDBRANCH   7   8
ENDBRANCH   1   7
BRANCH   6  13
ATOM     13  N   LIG d   1      -0.071  81.067 112.770  0.00  0.00    -0.311 N 
ATOM     14  C   LIG d   1      -0.875  82.014 112.290  0.00  0.00     0.210 C 
ATOM     15  C   LIG d   1      -0.171  83.309 111.872  0.00  0.00     0.109 C 
ATOM     16  O   LIG d   1      -2.108  81.917 112.201  0.00  0.00    -0.276 OA
ATOM     17  H   LIG d   1       0.912  81.242 112.837  0.00  0.00     0.149 HD
ENDBRANCH   6  13
BRANCH   5  18
ATOM     18  N   LIG d   1      -0.207  78.582 110.998  0.00  0.00     0.381 N 
ATOM     19  H   LIG d   1      -0.693  78.378 110.147  0.00  0.00    -0.090 HD
ATOM     20  H   LIG d   1       0.305  77.763 111.273  0.00  0.00    -0.090 HD
ATOM     21  H   LIG d   1       0.419  79.344 110.856  0.00  0.00    -0.090 HD
ENDBRANCH   5  18
BRANCH   3  22
ATOM     22  C   LIG d   1      -3.578  76.856 113.930  0.00  0.00     0.382 C 
ATOM     23  O   LIG d   1      -3.317  75.744 114.449  0.00  0.00    -0.241 OA
ATOM     24  O   LIG d   1      -4.742  77.104 113.563  0.00  0.00    -0.241 OA
ENDBRANCH   3  22
TORSDOF 7
ENDMDL
