MODEL 1
REMARK VINA RESULT:      -5.2      0.000      0.000
REMARK  7 active torsions:
REMARK  status: ('A' for Active; 'I' for Inactive)
REMARK    1  A    between atoms: C_2  and  C_3 
REMARK    2  A    between atoms: C_3  and  O_6 
REMARK    3  A    between atoms: C_3  and  C_4 
REMARK    4  A    between atoms: C_7  and  O_6 
REMARK    5  A    between atoms: C_9  and  C_10 
REMARK    6  A    between atoms: N_15  and  C_14 
REMARK    7  A    between atoms: N_20  and  C_19 
REMARK       I    between atoms: C_22  and  N_20 
ROOT
ATOM      1  C   LIG d   1      -2.615  78.262 114.966  0.00  0.00     0.161 C 
ATOM      2  C   LIG d   1      -2.868  79.438 114.240  0.00  0.00     0.016 C 
ATOM      3  C   LIG d   1      -2.473  79.622 112.895  0.00  0.00     0.038 C 
ATOM      4  C   LIG d   1      -1.927  78.579 112.133  0.00  0.00     0.028 C 
ATOM      5  C   LIG d   1      -1.193  77.537 112.970  0.00  0.00    -0.047 C 
ATOM      6  C   LIG d   1      -2.119  77.072 114.117  0.00  0.00     0.091 C 
ENDROOT
BRANCH   1   7
ATOM      7  O   LIG d   1      -3.787  77.888 115.716  0.00  0.00    -0.368 OA
BRANCH   7   8
ATOM      8  C   LIG d   1      -3.850  78.367 117.082  0.00  0.00     0.119 C 
BRANCH   8   9
ATOM      9  C   LIG d   1      -3.907  77.133 118.003  0.00  0.00     0.028 C 
ATOM     10  C   LIG d   1      -2.588  76.904 118.760  0.00  0.00     0.006 C 
ENDBRANCH   8   9
BRANCH   8  11
ATOM     11  C   LIG d   1      -5.151  79.131 117.346  0.00  0.00     0.028 C 
ATOM     12  C   LIG d   1      -5.110  79.943 118.650  0.00  0.00     0.006 C 
ENDBRANCH   8  11
ENDBRANCH   7   8
ENDBRANCH   1   7
BRANCH   6  13
ATOM     13  N   LIG d   1      -1.448  76.114 115.034  0.00  0.00    -0.311 N 
ATOM     14  C   LIG d   1      -2.040  75.022 115.514  0.00  0.00     0.210 C 
ATOM     15  C   LIG d   1      -1.177  74.181 116.459  0.00  0.00     0.109 C 
ATOM     16  O   LIG d   1      -3.187  74.652 115.220  0.00  0.00    -0.276 OA
ATOM     17  H   LIG d   1      -0.505  76.321 115.299  0.00  0.00     0.149 HD
ENDBRANCH   6  13
BRANCH   5  18
ATOM     18  N   LIG d   1      -0.795  76.440 112.068  0.00  0.00     0.381 N 
ATOM     19  H   LIG d   1       0.050  76.683 111.591  0.00  0.00    -0.090 HD
ATOM     20  H   LIG d   1      -1.516  76.306 111.381  0.00  0.00    -0.090 HD
ATOM     21  H   LIG d   1      -0.662  75.601 112.589  0.00  0.00    -0.090 HD
ENDBRANCH   5  18
BRANCH   3  22
ATOM     22  C   LIG d   1      -2.587  80.875 112.311  0.00  0.00     0.382 C 
ATOM     23  O   LIG d   1      -1.556  81.541 112.051  0.00  0.00    -0.241 OA
ATOM     24  O   LIG d   1      -3.709  81.365 112.081  0.00  0.00    -0.241 OA
ENDBRANCH   3  22
TORSDOF 7
ENDMDL
MODEL 2
REMARK VINA RESULT:      -4.6      1.211      1.738
REMARK  7 active torsions:
REMARK  status: ('A' for Active; 'I' for Inactive)
REMARK    1  A    between atoms: C_2  and  C_3 
REMARK    2  A    between atoms: C_3  and  O_6 
REMARK    3  A    between atoms: C_3  and  C_4 
REMARK    4  A    between atoms: C_7  and  O_6 
REMARK    5  A    between atoms: C_9  and  C_10 
REMARK    6  A    between atoms: N_15  and  C_14 
REMARK    7  A    between atoms: N_20  and  C_19 
REMARK       I    between atoms: C_22  and  N_20 
ROOT
ATOM      1  C   LIG d   1      -2.716  78.088 114.931  0.00  0.00     0.161 C 
ATOM      2  C   LIG d   1      -2.868  79.299 114.235  0.00  0.00     0.016 C 
ATOM      3  C   LIG d   1      -2.381  79.510 112.925  0.00  0.00     0.038 C 
ATOM      4  C   LIG d   1      -1.837  78.468 112.159  0.00  0.00     0.028 C 
ATOM      5  C   LIG d   1      -1.207  77.363 113.000  0.00  0.00    -0.047 C 
ATOM      6  C   LIG d   1      -2.224  76.906 114.071  0.00  0.00     0.091 C 
ENDROOT
BRANCH   1   7
ATOM      7  O   LIG d   1      -3.950  77.747 115.593  0.00  0.00    -0.368 OA
BRANCH   7   8
ATOM      8  C   LIG d   1      -3.969  77.918 117.032  0.00  0.00     0.119 C 
BRANCH   8   9
ATOM      9  C   LIG d   1      -2.720  78.733 117.418  0.00  0.00     0.028 C 
ATOM     10  C   LIG d   1      -2.018  78.174 118.668  0.00  0.00     0.006 C 
ENDBRANCH   8   9
BRANCH   8  11
ATOM     11  C   LIG d   1      -3.817  76.576 117.754  0.00  0.00     0.028 C 
ATOM     12  C   LIG d   1      -4.585  75.437 117.064  0.00  0.00     0.006 C 
ENDBRANCH   8  11
ENDBRANCH   7   8
ENDBRANCH   1   7
BRANCH   6  13
ATOM     13  N   LIG d   1      -1.658  75.885 114.991  0.00  0.00    -0.311 N 
ATOM     14  C   LIG d   1      -0.623  76.117 115.796  0.00  0.00     0.210 C 
ATOM     15  C   LIG d   1      -0.186  74.922 116.649  0.00  0.00     0.109 C 
ATOM     16  O   LIG d   1      -0.047  77.209 115.910  0.00  0.00    -0.276 OA
ATOM     17  H   LIG d   1      -2.086  74.979 114.986  0.00  0.00     0.149 HD
ENDBRANCH   6  13
BRANCH   5  18
ATOM     18  N   LIG d   1      -0.805  76.280 112.084  0.00  0.00     0.381 N 
ATOM     19  H   LIG d   1       0.070  75.894 112.379  0.00  0.00    -0.090 HD
ATOM     20  H   LIG d   1      -0.686  76.661 111.162  0.00  0.00    -0.090 HD
ATOM     21  H   LIG d   1      -1.502  75.568 112.070  0.00  0.00    -0.090 HD
ENDBRANCH   5  18
BRANCH   3  22
ATOM     22  C   LIG d   1      -2.398  80.786 112.382  0.00  0.00     0.382 C 
ATOM     23  O   LIG d   1      -1.334  81.308 111.972  0.00  0.00    -0.241 OA
ATOM     24  O   LIG d   1      -3.458  81.440 112.339  0.00  0.00    -0.241 OA
ENDBRANCH   3  22
TORSDOF 7
ENDMDL
MODEL 3
REMARK VINA RESULT:      -4.5      2.961      3.856
REMARK  7 active torsions:
REMARK  status: ('A' for Active; 'I' for Inactive)
REMARK    1  A    between atoms: C_2  and  C_3 
REMARK    2  A    between atoms: C_3  and  O_6 
REMARK    3  A    between atoms: C_3  and  C_4 
REMARK    4  A    between atoms: C_7  and  O_6 
REMARK    5  A    between atoms: C_9  and  C_10 
REMARK    6  A    between atoms: N_15  and  C_14 
REMARK    7  A    between atoms: N_20  and  C_19 
REMARK       I    between atoms: C_22  and  N_20 
ROOT
ATOM      1  C   LIG d   1      -3.779  77.916 116.884  0.00  0.00     0.161 C 
ATOM      2  C   LIG d   1      -2.807  78.828 117.330  0.00  0.00     0.016 C 
ATOM      3  C   LIG d   1      -1.454  78.784 116.922  0.00  0.00     0.038 C 
ATOM      4  C   LIG d   1      -1.010  77.911 115.918  0.00  0.00     0.028 C 
ATOM      5  C   LIG d   1      -1.844  76.639 115.809  0.00  0.00    -0.047 C 
ATOM      6  C   LIG d   1      -3.337  77.026 115.704  0.00  0.00     0.091 C 
ENDROOT
BRANCH   1   7
ATOM      7  O   LIG d   1      -4.994  78.618 116.555  0.00  0.00    -0.368 OA
BRANCH   7   8
ATOM      8  C   LIG d   1      -5.989  78.695 117.605  0.00  0.00     0.119 C 
BRANCH   8   9
ATOM      9  C   LIG d   1      -7.122  77.715 117.242  0.00  0.00     0.028 C 
ATOM     10  C   LIG d   1      -7.051  76.410 118.052  0.00  0.00     0.006 C 
ENDBRANCH   8   9
BRANCH   8  11
ATOM     11  C   LIG d   1      -6.648  80.077 117.648  0.00  0.00     0.028 C 
ATOM     12  C   LIG d   1      -8.181  80.005 117.726  0.00  0.00     0.006 C 
ENDBRANCH   8  11
ENDBRANCH   7   8
ENDBRANCH   1   7
BRANCH   6  13
ATOM     13  N   LIG d   1      -4.230  75.838 115.678  0.00  0.00    -0.311 N 
ATOM     14  C   LIG d   1      -5.015  75.533 114.646  0.00  0.00     0.210 C 
ATOM     15  C   LIG d   1      -5.870  74.277 114.833  0.00  0.00     0.109 C 
ATOM     16  O   LIG d   1      -5.059  76.166 113.580  0.00  0.00    -0.276 OA
ATOM     17  H   LIG d   1      -4.233  75.252 116.490  0.00  0.00     0.149 HD
ENDBRANCH   6  13
BRANCH   5  18
ATOM     18  N   LIG d   1      -1.358  75.886 114.637  0.00  0.00     0.381 N 
ATOM     19  H   LIG d   1      -1.754  74.968 114.636  0.00  0.00    -0.090 HD
ATOM     20  H   LIG d   1      -0.359  75.799 114.698  0.00  0.00    -0.090 HD
ATOM     21  H   LIG d   1      -1.606  76.364 113.798  0.00  0.00    -0.090 HD
ENDBRANCH   5  18
BRANCH   3  22
ATOM     22  C   LIG d   1      -0.520  79.594 117.551  0.00  0.00     0.382 C 
ATOM     23  O   LIG d   1      -0.565  79.753 118.795  0.00  0.00    -0.241 OA
ATOM     24  O   LIG d   1       0.338  80.202 116.885  0.00  0.00    -0.241 OA
ENDBRANCH   3  22
TORSDOF 7
ENDMDL
MODEL 4
REMARK VINA RESULT:      -4.4      2.654      5.526
REMARK  7 active torsions:
REMARK  status: ('A' for Active; 'I' for Inactive)
REMARK    1  A    between atoms: C_2  and  C_3 
REMARK    2  A    between atoms: C_3  and  O_6 
REMARK    3  A    between atoms: C_3  and  C_4 
REMARK    4  A    between atoms: C_7  and  O_6 
REMARK    5  A    between atoms: C_9  and  C_10 
REMARK    6  A    between atoms: N_15  and  C_14 
REMARK    7  A    between atoms: N_20  and  C_19 
REMARK       I    between atoms: C_22  and  N_20 
ROOT
ATOM      1  C   LIG d   1      -1.739  75.997 115.159  0.00  0.00     0.161 C 
ATOM      2  C   LIG d   1      -1.615  75.295 116.369  0.00  0.00     0.016 C 
ATOM      3  C   LIG d   1      -0.955  75.814 117.506  0.00  0.00     0.038 C 
ATOM      4  C   LIG d   1      -0.501  77.140 117.559  0.00  0.00     0.028 C 
ATOM      5  C   LIG d   1      -0.156  77.717 116.190  0.00  0.00    -0.047 C 
ATOM      6  C   LIG d   1      -1.348  77.488 115.234  0.00  0.00     0.091 C 
ENDROOT
BRANCH   1   7
ATOM      7  O   LIG d   1      -3.079  75.856 114.647  0.00  0.00    -0.368 OA
BRANCH   7   8
ATOM      8  C   LIG d   1      -4.114  75.605 115.629  0.00  0.00     0.119 C 
BRANCH   8   9
ATOM      9  C   LIG d   1      -5.221  74.787 114.937  0.00  0.00     0.028 C 
ATOM     10  C   LIG d   1      -6.176  75.669 114.115  0.00  0.00     0.006 C 
ENDBRANCH   8   9
BRANCH   8  11
ATOM     11  C   LIG d   1      -4.789  76.906 116.073  0.00  0.00     0.028 C 
ATOM     12  C   LIG d   1      -4.567  77.215 117.562  0.00  0.00     0.006 C 
ENDBRANCH   8  11
ENDBRANCH   7   8
ENDBRANCH   1   7
BRANCH   6  13
ATOM     13  N   LIG d   1      -1.061  77.948 113.850  0.00  0.00    -0.311 N 
ATOM     14  C   LIG d   1      -1.725  78.936 113.253  0.00  0.00     0.210 C 
ATOM     15  C   LIG d   1      -1.283  79.238 111.818  0.00  0.00     0.109 C 
ATOM     16  O   LIG d   1      -2.616  79.613 113.787  0.00  0.00    -0.276 OA
ATOM     17  H   LIG d   1      -0.332  77.474 113.354  0.00  0.00     0.149 HD
ENDBRANCH   6  13
BRANCH   5  18
ATOM     18  N   LIG d   1       0.170  79.144 116.377  0.00  0.00     0.381 N 
ATOM     19  H   LIG d   1      -0.575  79.600 116.865  0.00  0.00    -0.090 HD
ATOM     20  H   LIG d   1       0.268  79.576 115.475  0.00  0.00    -0.090 HD
ATOM     21  H   LIG d   1       1.018  79.235 116.891  0.00  0.00    -0.090 HD
ENDBRANCH   5  18
BRANCH   3  22
ATOM     22  C   LIG d   1      -0.706  74.989 118.593  0.00  0.00     0.382 C 
ATOM     23  O   LIG d   1      -1.442  75.051 119.608  0.00  0.00    -0.241 OA
ATOM     24  O   LIG d   1       0.270  74.215 118.589  0.00  0.00    -0.241 OA
ENDBRANCH   3  22
TORSDOF 7
ENDMDL
MODEL 5
REMARK VINA RESULT:      -4.3      2.492      3.448
REMARK  7 active torsions:
REMARK  status: ('A' for Active; 'I' for Inactive)
REMARK    1  A    between atoms: C_2  and  C_3 
REMARK    2  A    between atoms: C_3  and  O_6 
REMARK    3  A    between atoms: C_3  and  C_4 
REMARK    4  A    between atoms: C_7  and  O_6 
REMARK    5  A    between atoms: C_9  and  C_10 
REMARK    6  A    between atoms: N_15  and  C_14 
REMARK    7  A    between atoms: N_20  and  C_19 
REMARK       I    between atoms: C_22  and  N_20 
ROOT
ATOM      1  C   LIG d   1      -3.530  75.899 116.009  0.00  0.00     0.161 C 
ATOM      2  C   LIG d   1      -3.652  76.600 114.797  0.00  0.00     0.016 C 
ATOM      3  C   LIG d   1      -2.588  76.757 113.879  0.00  0.00     0.038 C 
ATOM      4  C   LIG d   1      -1.364  76.091 114.040  0.00  0.00     0.028 C 
ATOM      5  C   LIG d   1      -1.029  75.784 115.496  0.00  0.00    -0.047 C 
ATOM      6  C   LIG d   1      -2.235  75.071 116.150  0.00  0.00     0.091 C 
ENDROOT
BRANCH   1   7
ATOM      7  O   LIG d   1      -4.685  75.060 116.206  0.00  0.00    -0.368 OA
BRANCH   7   8
ATOM      8  C   LIG d   1      -5.784  75.651 116.942  0.00  0.00     0.119 C 
BRANCH   8   9
ATOM      9  C   LIG d   1      -5.553  75.354 118.436  0.00  0.00     0.028 C 
ATOM     10  C   LIG d   1      -5.418  76.636 119.275  0.00  0.00     0.006 C 
ENDBRANCH   8   9
BRANCH   8  11
ATOM     11  C   LIG d   1      -7.114  74.975 116.596  0.00  0.00     0.028 C 
ATOM     12  C   LIG d   1      -8.321  75.909 116.774  0.00  0.00     0.006 C 
ENDBRANCH   8  11
ENDBRANCH   7   8
ENDBRANCH   1   7
BRANCH   6  13
ATOM     13  N   LIG d   1      -2.023  74.811 117.597  0.00  0.00    -0.311 N 
ATOM     14  C   LIG d   1      -1.819  75.775 118.494  0.00  0.00     0.210 C 
ATOM     15  C   LIG d   1      -1.603  75.288 119.930  0.00  0.00     0.109 C 
ATOM     16  O   LIG d   1      -1.828  76.989 118.241  0.00  0.00    -0.276 OA
ATOM     17  H   LIG d   1      -2.032  73.855 117.895  0.00  0.00     0.149 HD
ENDBRANCH   6  13
BRANCH   5  18
ATOM     18  N   LIG d   1       0.200  74.969 115.508  0.00  0.00     0.381 N 
ATOM     19  H   LIG d   1      -0.010  74.035 115.218  0.00  0.00    -0.090 HD
ATOM     20  H   LIG d   1       0.558  74.935 116.447  0.00  0.00    -0.090 HD
ATOM     21  H   LIG d   1       0.880  75.369 114.900  0.00  0.00    -0.090 HD
ENDBRANCH   5  18
BRANCH   3  22
ATOM     22  C   LIG d   1      -2.731  77.621 112.804  0.00  0.00     0.382 C 
ATOM     23  O   LIG d   1      -1.870  78.510 112.595  0.00  0.00    -0.241 OA
ATOM     24  O   LIG d   1      -3.732  77.552 112.066  0.00  0.00    -0.241 OA
ENDBRANCH   3  22
TORSDOF 7
ENDMDL
MODEL 6
REMARK VINA RESULT:      -4.2      4.147      6.165
REMARK  7 active torsions:
REMARK  status: ('A' for Active; 'I' for Inactive)
REMARK    1  A    between atoms: C_2  and  C_3 
REMARK    2  A    between atoms: C_3  and  O_6 
REMARK    3  A    between atoms: C_3  and  C_4 
REMARK    4  A    between atoms: C_7  and  O_6 
REMARK    5  A    between atoms: C_9  and  C_10 
REMARK    6  A    between atoms: N_15  and  C_14 
REMARK    7  A    between atoms: N_20  and  C_19 
REMARK       I    between atoms: C_22  and  N_20 
ROOT
ATOM      1  C   LIG d   1      -6.627  77.903 117.457  0.00  0.00     0.161 C 
ATOM      2  C   LIG d   1      -7.732  78.753 117.282  0.00  0.00     0.016 C 
ATOM      3  C   LIG d   1      -7.789  80.070 117.792  0.00  0.00     0.038 C 
ATOM      4  C   LIG d   1      -6.677  80.684 118.385  0.00  0.00     0.028 C 
ATOM      5  C   LIG d   1      -5.712  79.696 119.031  0.00  0.00    -0.047 C 
ATOM      6  C   LIG d   1      -5.361  78.594 118.005  0.00  0.00     0.091 C 
ENDROOT
BRANCH   1   7
ATOM      7  O   LIG d   1      -6.332  77.225 116.220  0.00  0.00    -0.368 OA
BRANCH   7   8
ATOM      8  C   LIG d   1      -7.051  75.990 115.983  0.00  0.00     0.119 C 
BRANCH   8   9
ATOM      9  C   LIG d   1      -7.064  75.200 117.306  0.00  0.00     0.028 C 
ATOM     10  C   LIG d   1      -5.916  74.180 117.392  0.00  0.00     0.006 C 
ENDBRANCH   8   9
BRANCH   8  11
ATOM     11  C   LIG d   1      -6.309  75.096 114.985  0.00  0.00     0.028 C 
ATOM     12  C   LIG d   1      -5.130  75.811 114.306  0.00  0.00     0.006 C 
ENDBRANCH   8  11
ENDBRANCH   7   8
ENDBRANCH   1   7
BRANCH   6  13
ATOM     13  N   LIG d   1      -4.487  77.539 118.582  0.00  0.00    -0.311 N 
ATOM     14  C   LIG d   1      -3.440  77.023 117.942  0.00  0.00     0.210 C 
ATOM     15  C   LIG d   1      -2.686  75.933 118.709  0.00  0.00     0.109 C 
ATOM     16  O   LIG d   1      -3.045  77.388 116.824  0.00  0.00    -0.276 OA
ATOM     17  H   LIG d   1      -4.717  77.208 119.499  0.00  0.00     0.149 HD
ENDBRANCH   6  13
BRANCH   5  18
ATOM     18  N   LIG d   1      -4.534  80.457 119.488  0.00  0.00     0.381 N 
ATOM     19  H   LIG d   1      -4.134  80.013 120.291  0.00  0.00    -0.090 HD
ATOM     20  H   LIG d   1      -4.826  81.381 119.751  0.00  0.00    -0.090 HD
ATOM     21  H   LIG d   1      -3.858  80.510 118.758  0.00  0.00    -0.090 HD
ENDBRANCH   5  18
BRANCH   3  22
ATOM     22  C   LIG d   1      -8.983  80.774 117.746  0.00  0.00     0.382 C 
ATOM     23  O   LIG d   1     -10.060  80.202 118.043  0.00  0.00    -0.241 OA
ATOM     24  O   LIG d   1      -9.003  81.960 117.367  0.00  0.00    -0.241 OA
ENDBRANCH   3  22
TORSDOF 7
ENDMDL
MODEL 7
REMARK VINA RESULT:      -4.2      3.814      5.229
REMARK  7 active torsions:
REMARK  status: ('A' for Active; 'I' for Inactive)
REMARK    1  A    between atoms: C_2  and  C_3 
REMARK    2  A    between atoms: C_3  and  O_6 
REMARK    3  A    between atoms: C_3  and  C_4 
REMARK    4  A    between atoms: C_7  and  O_6 
REMARK    5  A    between atoms: C_9  and  C_10 
REMARK    6  A    between atoms: N_15  and  C_14 
REMARK    7  A    between atoms: N_20  and  C_19 
REMARK       I    between atoms: C_22  and  N_20 
ROOT
ATOM      1  C   LIG d   1      -5.340  76.976 118.573  0.00  0.00     0.161 C 
ATOM      2  C   LIG d   1      -6.222  78.062 118.442  0.00  0.00     0.016 C 
ATOM      3  C   LIG d   1      -5.890  79.257 117.763  0.00  0.00     0.038 C 
ATOM      4  C   LIG d   1      -4.700  79.389 117.033  0.00  0.00     0.028 C 
ATOM      5  C   LIG d   1      -3.568  78.512 117.557  0.00  0.00    -0.047 C 
ATOM      6  C   LIG d   1      -4.078  77.059 117.688  0.00  0.00     0.091 C 
ENDROOT
BRANCH   1   7
ATOM      7  O   LIG d   1      -6.043  75.743 118.328  0.00  0.00    -0.368 OA
BRANCH   7   8
ATOM      8  C   LIG d   1      -6.384  75.466 116.948  0.00  0.00     0.119 C 
BRANCH   8   9
ATOM      9  C   LIG d   1      -7.898  75.182 116.892  0.00  0.00     0.028 C 
ATOM     10  C   LIG d   1      -8.736  76.472 116.876  0.00  0.00     0.006 C 
ENDBRANCH   8   9
BRANCH   8  11
ATOM     11  C   LIG d   1      -5.713  74.181 116.454  0.00  0.00     0.028 C 
ATOM     12  C   LIG d   1      -5.403  74.211 114.949  0.00  0.00     0.006 C 
ENDBRANCH   8  11
ENDBRANCH   7   8
ENDBRANCH   1   7
BRANCH   6  13
ATOM     13  N   LIG d   1      -3.058  76.150 118.274  0.00  0.00    -0.311 N 
ATOM     14  C   LIG d   1      -2.229  75.409 117.541  0.00  0.00     0.210 C 
ATOM     15  C   LIG d   1      -1.268  74.527 118.345  0.00  0.00     0.109 C 
ATOM     16  O   LIG d   1      -2.176  75.422 116.302  0.00  0.00    -0.276 OA
ATOM     17  H   LIG d   1      -3.011  76.102 119.273  0.00  0.00     0.149 HD
ENDBRANCH   6  13
BRANCH   5  18
ATOM     18  N   LIG d   1      -2.433  78.644 116.624  0.00  0.00     0.381 N 
ATOM     19  H   LIG d   1      -2.753  78.528 115.683  0.00  0.00    -0.090 HD
ATOM     20  H   LIG d   1      -1.764  77.920 116.821  0.00  0.00    -0.090 HD
ATOM     21  H   LIG d   1      -2.007  79.538 116.729  0.00  0.00    -0.090 HD
ENDBRANCH   5  18
BRANCH   3  22
ATOM     22  C   LIG d   1      -6.738  80.351 117.843  0.00  0.00     0.382 C 
ATOM     23  O   LIG d   1      -7.539  80.454 118.803  0.00  0.00    -0.241 OA
ATOM     24  O   LIG d   1      -6.744  81.213 116.944  0.00  0.00    -0.241 OA
ENDBRANCH   3  22
TORSDOF 7
ENDMDL
MODEL 8
REMARK VINA RESULT:      -4.1      4.200      5.618
REMARK  7 active torsions:
REMARK  status: ('A' for Active; 'I' for Inactive)
REMARK    1  A    between atoms: C_2  and  C_3 
REMARK    2  A    between atoms: C_3  and  O_6 
REMARK    3  A    between atoms: C_3  and  C_4 
REMARK    4  A    between atoms: C_7  and  O_6 
REMARK    5  A    between atoms: C_9  and  C_10 
REMARK    6  A    between atoms: N_15  and  C_14 
REMARK    7  A    between atoms: N_20  and  C_19 
REMARK       I    between atoms: C_22  and  N_20 
ROOT
ATOM      1  C   LIG d   1      -5.595  77.425 117.375  0.00  0.00     0.161 C 
ATOM      2  C   LIG d   1      -6.640  78.348 117.203  0.00  0.00     0.016 C 
ATOM      3  C   LIG d   1      -6.597  79.672 117.696  0.00  0.00     0.038 C 
ATOM      4  C   LIG d   1      -5.435  80.214 118.266  0.00  0.00     0.028 C 
ATOM      5  C   LIG d   1      -4.533  79.167 118.912  0.00  0.00    -0.047 C 
ATOM      6  C   LIG d   1      -4.276  78.031 117.896  0.00  0.00     0.091 C 
ENDROOT
BRANCH   1   7
ATOM      7  O   LIG d   1      -5.366  76.711 116.143  0.00  0.00    -0.368 OA
BRANCH   7   8
ATOM      8  C   LIG d   1      -5.405  75.266 116.227  0.00  0.00     0.119 C 
BRANCH   8   9
ATOM      9  C   LIG d   1      -5.978  74.740 114.897  0.00  0.00     0.028 C 
ATOM     10  C   LIG d   1      -6.201  75.862 113.869  0.00  0.00     0.006 C 
ENDBRANCH   8   9
BRANCH   8  11
ATOM     11  C   LIG d   1      -6.387  74.796 117.305  0.00  0.00     0.028 C 
ATOM     12  C   LIG d   1      -7.817  74.616 116.771  0.00  0.00     0.006 C 
ENDBRANCH   8  11
ENDBRANCH   7   8
ENDBRANCH   1   7
BRANCH   6  13
ATOM     13  N   LIG d   1      -3.471  76.924 118.476  0.00  0.00    -0.311 N 
ATOM     14  C   LIG d   1      -2.335  76.484 117.938  0.00  0.00     0.210 C 
ATOM     15  C   LIG d   1      -1.674  75.321 118.685  0.00  0.00     0.109 C 
ATOM     16  O   LIG d   1      -1.795  76.968 116.932  0.00  0.00    -0.276 OA
ATOM     17  H   LIG d   1      -3.819  76.495 119.311  0.00  0.00     0.149 HD
ENDBRANCH   6  13
BRANCH   5  18
ATOM     18  N   LIG d   1      -3.298  79.849 119.343  0.00  0.00     0.381 N 
ATOM     19  H   LIG d   1      -3.426  80.239 120.255  0.00  0.00    -0.090 HD
ATOM     20  H   LIG d   1      -3.100  80.599 118.704  0.00  0.00    -0.090 HD
ATOM     21  H   LIG d   1      -2.539  79.204 119.353  0.00  0.00    -0.090 HD
ENDBRANCH   5  18
BRANCH   3  22
ATOM     22  C   LIG d   1      -7.738  80.458 117.656  0.00  0.00     0.382 C 
ATOM     23  O   LIG d   1      -7.772  81.479 116.927  0.00  0.00    -0.241 OA
ATOM     24  O   LIG d   1      -8.719  80.184 118.373  0.00  0.00    -0.241 OA
ENDBRANCH   3  22
TORSDOF 7
ENDMDL
MODEL 9
REMARK VINA RESULT:      -4.1      3.372      5.415
REMARK  7 active torsions:
REMARK  status: ('A' for Active; 'I' for Inactive)
REMARK    1  A    between atoms: C_2  and  C_3 
REMARK    2  A    between atoms: C_3  and  O_6 
REMARK    3  A    between atoms: C_3  and  C_4 
REMARK    4  A    between atoms: C_7  and  O_6 
REMARK    5  A    between atoms: C_9  and  C_10 
REMARK    6  A    between atoms: N_15  and  C_14 
REMARK    7  A    between atoms: N_20  and  C_19 
REMARK       I    between atoms: C_22  and  N_20 
ROOT
ATOM      1  C   LIG d   1      -4.888  78.114 117.001  0.00  0.00     0.161 C 
ATOM      2  C   LIG d   1      -5.251  79.452 117.226  0.00  0.00     0.016 C 
ATOM      3  C   LIG d   1      -6.556  79.853 117.597  0.00  0.00     0.038 C 
ATOM      4  C   LIG d   1      -7.555  78.921 117.916  0.00  0.00     0.028 C 
ATOM      5  C   LIG d   1      -7.378  77.579 117.214  0.00  0.00    -0.047 C 
ATOM      6  C   LIG d   1      -5.936  77.075 117.452  0.00  0.00     0.091 C 
ENDROOT
BRANCH   1   7
ATOM      7  O   LIG d   1      -3.615  77.842 117.618  0.00  0.00    -0.368 OA
BRANCH   7   8
ATOM      8  C   LIG d   1      -2.495  77.659 116.717  0.00  0.00     0.119 C 
BRANCH   8   9
ATOM      9  C   LIG d   1      -1.548  78.859 116.907  0.00  0.00     0.028 C 
ATOM     10  C   LIG d   1      -1.625  79.450 118.325  0.00  0.00     0.006 C 
ENDBRANCH   8   9
BRANCH   8  11
ATOM     11  C   LIG d   1      -2.942  77.722 115.254  0.00  0.00     0.028 C 
ATOM     12  C   LIG d   1      -2.209  78.810 114.453  0.00  0.00     0.006 C 
ENDBRANCH   8  11
ENDBRANCH   7   8
ENDBRANCH   1   7
BRANCH   6  13
ATOM     13  N   LIG d   1      -5.653  75.807 116.730  0.00  0.00    -0.311 N 
ATOM     14  C   LIG d   1      -5.888  75.636 115.430  0.00  0.00     0.210 C 
ATOM     15  C   LIG d   1      -5.542  74.245 114.888  0.00  0.00     0.109 C 
ATOM     16  O   LIG d   1      -6.319  76.513 114.667  0.00  0.00    -0.276 OA
ATOM     17  H   LIG d   1      -5.271  75.052 117.266  0.00  0.00     0.149 HD
ENDBRANCH   6  13
BRANCH   5  18
ATOM     18  N   LIG d   1      -8.406  76.662 117.742  0.00  0.00     0.381 N 
ATOM     19  H   LIG d   1      -9.282  76.841 117.294  0.00  0.00    -0.090 HD
ATOM     20  H   LIG d   1      -8.515  76.828 118.727  0.00  0.00    -0.090 HD
ATOM     21  H   LIG d   1      -8.132  75.716 117.585  0.00  0.00    -0.090 HD
ENDBRANCH   5  18
BRANCH   3  22
ATOM     22  C   LIG d   1      -6.882  81.200 117.612  0.00  0.00     0.382 C 
ATOM     23  O   LIG d   1      -7.496  81.708 116.642  0.00  0.00    -0.241 OA
ATOM     24  O   LIG d   1      -6.532  81.924 118.563  0.00  0.00    -0.241 OA
ENDBRANCH   3  22
TORSDOF 7
ENDMDL
