MODEL 1
REMARK VINA RESULT:      -5.5      0.000      0.000
REMARK  7 active torsions:
REMARK  status: ('A' for Active; 'I' for Inactive)
REMARK    1  A    between atoms: C_2  and  C_3 
REMARK    2  A    between atoms: C_3  and  O_6 
REMARK    3  A    between atoms: C_3  and  C_4 
REMARK    4  A    between atoms: C_7  and  O_6 
REMARK    5  A    between atoms: C_9  and  C_10 
REMARK    6  A    between atoms: N_15  and  C_14 
REMARK    7  A    between atoms: N_20  and  C_19 
REMARK       I    between atoms: C_22  and  N_20 
ROOT
ATOM      1  C   LIG d   1      -2.907  77.341 116.023  0.00  0.00     0.161 C 
ATOM      2  C   LIG d   1      -3.280  77.811 114.753  0.00  0.00     0.016 C 
ATOM      3  C   LIG d   1      -2.501  77.613 113.590  0.00  0.00     0.038 C 
ATOM      4  C   LIG d   1      -1.361  76.795 113.591  0.00  0.00     0.028 C 
ATOM      5  C   LIG d   1      -0.673  76.717 114.950  0.00  0.00    -0.047 C 
ATOM      6  C   LIG d   1      -1.723  76.351 116.023  0.00  0.00     0.091 C 
ENDROOT
BRANCH   1   7
ATOM      7  O   LIG d   1      -4.048  76.758 116.682  0.00  0.00    -0.368 OA
BRANCH   7   8
ATOM      8  C   LIG d   1      -5.110  76.284 115.818  0.00  0.00     0.119 C 
BRANCH   8   9
ATOM      9  C   LIG d   1      -6.448  76.703 116.458  0.00  0.00     0.028 C 
ATOM     10  C   LIG d   1      -6.259  77.377 117.827  0.00  0.00     0.006 C 
ENDBRANCH   8   9
BRANCH   8  11
ATOM     11  C   LIG d   1      -5.147  74.753 115.768  0.00  0.00     0.028 C 
ATOM     12  C   LIG d   1      -6.539  74.180 116.078  0.00  0.00     0.006 C 
ENDBRANCH   8  11
ENDBRANCH   7   8
ENDBRANCH   1   7
BRANCH   6  13
ATOM     13  N   LIG d   1      -1.150  76.336 117.395  0.00  0.00    -0.311 N 
ATOM     14  C   LIG d   1      -0.574  75.264 117.937  0.00  0.00     0.210 C 
ATOM     15  C   LIG d   1      -0.067  75.458 119.370  0.00  0.00     0.109 C 
ATOM     16  O   LIG d   1      -0.406  74.182 117.356  0.00  0.00    -0.276 OA
ATOM     17  H   LIG d   1      -1.216  77.182 117.925  0.00  0.00     0.149 HD
ENDBRANCH   6  13
BRANCH   5  18
ATOM     18  N   LIG d   1       0.414  75.725 114.842  0.00  0.00     0.381 N 
ATOM     19  H   LIG d   1       0.260  74.982 115.494  0.00  0.00    -0.090 HD
ATOM     20  H   LIG d   1       1.284  76.171 115.073  0.00  0.00    -0.090 HD
ATOM     21  H   LIG d   1       0.454  75.362 113.916  0.00  0.00    -0.090 HD
ENDBRANCH   5  18
BRANCH   3  22
ATOM     22  C   LIG d   1      -2.838  78.271 112.416  0.00  0.00     0.382 C 
ATOM     23  O   LIG d   1      -2.532  77.770 111.307  0.00  0.00    -0.241 OA
ATOM     24  O   LIG d   1      -3.404  79.379 112.454  0.00  0.00    -0.241 OA
ENDBRANCH   3  22
TORSDOF 7
ENDMDL
MODEL 2
REMARK VINA RESULT:      -5.5      1.710      4.915
REMARK  7 active torsions:
REMARK  status: ('A' for Active; 'I' for Inactive)
REMARK    1  A    between atoms: C_2  and  C_3 
REMARK    2  A    between atoms: C_3  and  O_6 
REMARK    3  A    between atoms: C_3  and  C_4 
REMARK    4  A    between atoms: C_7  and  O_6 
REMARK    5  A    between atoms: C_9  and  C_10 
REMARK    6  A    between atoms: N_15  and  C_14 
REMARK    7  A    between atoms: N_20  and  C_19 
REMARK       I    between atoms: C_22  and  N_20 
ROOT
ATOM      1  C   LIG d   1      -1.985  75.663 114.994  0.00  0.00     0.161 C 
ATOM      2  C   LIG d   1      -1.783  75.287 116.332  0.00  0.00     0.016 C 
ATOM      3  C   LIG d   1      -1.143  76.113 117.284  0.00  0.00     0.038 C 
ATOM      4  C   LIG d   1      -0.793  77.441 116.998  0.00  0.00     0.028 C 
ATOM      5  C   LIG d   1      -0.520  77.690 115.519  0.00  0.00    -0.047 C 
ATOM      6  C   LIG d   1      -1.710  77.151 114.692  0.00  0.00     0.091 C 
ENDROOT
BRANCH   1   7
ATOM      7  O   LIG d   1      -3.319  75.306 114.582  0.00  0.00    -0.368 OA
BRANCH   7   8
ATOM      8  C   LIG d   1      -4.320  75.263 115.629  0.00  0.00     0.119 C 
BRANCH   8   9
ATOM      9  C   LIG d   1      -5.346  74.180 115.245  0.00  0.00     0.028 C 
ATOM     10  C   LIG d   1      -6.577  74.184 116.167  0.00  0.00     0.006 C 
ENDBRANCH   8   9
BRANCH   8  11
ATOM     11  C   LIG d   1      -5.115  76.571 115.695  0.00  0.00     0.028 C 
ATOM     12  C   LIG d   1      -4.771  77.416 116.931  0.00  0.00     0.006 C 
ENDBRANCH   8  11
ENDBRANCH   7   8
ENDBRANCH   1   7
BRANCH   6  13
ATOM     13  N   LIG d   1      -1.487  77.279 113.228  0.00  0.00    -0.311 N 
ATOM     14  C   LIG d   1      -2.305  77.947 112.417  0.00  0.00     0.210 C 
ATOM     15  C   LIG d   1      -1.901  77.938 110.939  0.00  0.00     0.109 C 
ATOM     16  O   LIG d   1      -3.311  78.572 112.786  0.00  0.00    -0.276 OA
ATOM     17  H   LIG d   1      -0.677  76.828 112.849  0.00  0.00     0.149 HD
ENDBRANCH   6  13
BRANCH   5  18
ATOM     18  N   LIG d   1      -0.303  79.138 115.343  0.00  0.00     0.381 N 
ATOM     19  H   LIG d   1      -1.142  79.568 115.008  0.00  0.00    -0.090 HD
ATOM     20  H   LIG d   1       0.418  79.278 114.658  0.00  0.00    -0.090 HD
ATOM     21  H   LIG d   1      -0.034  79.550 116.210  0.00  0.00    -0.090 HD
ENDBRANCH   5  18
BRANCH   3  22
ATOM     22  C   LIG d   1      -0.810  75.597 118.528  0.00  0.00     0.382 C 
ATOM     23  O   LIG d   1      -0.656  74.360 118.673  0.00  0.00    -0.241 OA
ATOM     24  O   LIG d   1      -0.705  76.348 119.516  0.00  0.00    -0.241 OA
ENDBRANCH   3  22
TORSDOF 7
ENDMDL
MODEL 3
REMARK VINA RESULT:      -5.1      2.460      3.284
REMARK  7 active torsions:
REMARK  status: ('A' for Active; 'I' for Inactive)
REMARK    1  A    between atoms: C_2  and  C_3 
REMARK    2  A    between atoms: C_3  and  O_6 
REMARK    3  A    between atoms: C_3  and  C_4 
REMARK    4  A    between atoms: C_7  and  O_6 
REMARK    5  A    between atoms: C_9  and  C_10 
REMARK    6  A    between atoms: N_15  and  C_14 
REMARK    7  A    between atoms: N_20  and  C_19 
REMARK       I    between atoms: C_22  and  N_20 
ROOT
ATOM      1  C   LIG d   1      -2.453  78.837 116.113  0.00  0.00     0.161 C 
ATOM      2  C   LIG d   1      -2.704  79.873 115.198  0.00  0.00     0.016 C 
ATOM      3  C   LIG d   1      -2.365  79.800 113.827  0.00  0.00     0.038 C 
ATOM      4  C   LIG d   1      -1.886  78.617 113.244  0.00  0.00     0.028 C 
ATOM      5  C   LIG d   1      -1.147  77.714 114.226  0.00  0.00    -0.047 C 
ATOM      6  C   LIG d   1      -2.033  77.497 115.473  0.00  0.00     0.091 C 
ENDROOT
BRANCH   1   7
ATOM      7  O   LIG d   1      -3.601  78.648 116.964  0.00  0.00    -0.368 OA
BRANCH   7   8
ATOM      8  C   LIG d   1      -4.160  79.846 117.555  0.00  0.00     0.119 C 
BRANCH   8   9
ATOM      9  C   LIG d   1      -3.667  79.916 119.014  0.00  0.00     0.028 C 
ATOM     10  C   LIG d   1      -2.690  81.081 119.247  0.00  0.00     0.006 C 
ENDBRANCH   8   9
BRANCH   8  11
ATOM     11  C   LIG d   1      -5.687  79.762 117.648  0.00  0.00     0.028 C 
ATOM     12  C   LIG d   1      -6.358  81.144 117.697  0.00  0.00     0.006 C 
ENDBRANCH   8  11
ENDBRANCH   7   8
ENDBRANCH   1   7
BRANCH   6  13
ATOM     13  N   LIG d   1      -1.350  76.693 116.521  0.00  0.00    -0.311 N 
ATOM     14  C   LIG d   1      -1.394  75.363 116.569  0.00  0.00     0.210 C 
ATOM     15  C   LIG d   1      -0.638  74.733 117.743  0.00  0.00     0.109 C 
ATOM     16  O   LIG d   1      -1.960  74.643 115.732  0.00  0.00    -0.276 OA
ATOM     17  H   LIG d   1      -0.842  77.195 117.222  0.00  0.00     0.149 HD
ENDBRANCH   6  13
BRANCH   5  18
ATOM     18  N   LIG d   1      -0.824  76.459 113.521  0.00  0.00     0.381 N 
ATOM     19  H   LIG d   1      -0.941  75.683 114.140  0.00  0.00    -0.090 HD
ATOM     20  H   LIG d   1       0.138  76.488 113.230  0.00  0.00    -0.090 HD
ATOM     21  H   LIG d   1      -1.415  76.352 112.726  0.00  0.00    -0.090 HD
ENDBRANCH   5  18
BRANCH   3  22
ATOM     22  C   LIG d   1      -2.468  80.931 113.033  0.00  0.00     0.382 C 
ATOM     23  O   LIG d   1      -1.617  81.146 112.136  0.00  0.00    -0.241 OA
ATOM     24  O   LIG d   1      -3.374  81.762 113.230  0.00  0.00    -0.241 OA
ENDBRANCH   3  22
TORSDOF 7
ENDMDL
MODEL 4
REMARK VINA RESULT:      -4.9      2.929      4.511
REMARK  7 active torsions:
REMARK  status: ('A' for Active; 'I' for Inactive)
REMARK    1  A    between atoms: C_2  and  C_3 
REMARK    2  A    between atoms: C_3  and  O_6 
REMARK    3  A    between atoms: C_3  and  C_4 
REMARK    4  A    between atoms: C_7  and  O_6 
REMARK    5  A    between atoms: C_9  and  C_10 
REMARK    6  A    between atoms: N_15  and  C_14 
REMARK    7  A    between atoms: N_20  and  C_19 
REMARK       I    between atoms: C_22  and  N_20 
ROOT
ATOM      1  C   LIG d   1      -3.385  78.514 116.836  0.00  0.00     0.161 C 
ATOM      2  C   LIG d   1      -2.544  79.562 117.248  0.00  0.00     0.016 C 
ATOM      3  C   LIG d   1      -1.277  79.815 116.674  0.00  0.00     0.038 C 
ATOM      4  C   LIG d   1      -0.827  79.125 115.538  0.00  0.00     0.028 C 
ATOM      5  C   LIG d   1      -1.420  77.727 115.404  0.00  0.00    -0.047 C 
ATOM      6  C   LIG d   1      -2.958  77.821 115.525  0.00  0.00     0.091 C 
ENDROOT
BRANCH   1   7
ATOM      7  O   LIG d   1      -4.742  78.987 116.734  0.00  0.00    -0.368 OA
BRANCH   7   8
ATOM      8  C   LIG d   1      -5.563  78.830 117.917  0.00  0.00     0.119 C 
BRANCH   8   9
ATOM      9  C   LIG d   1      -6.126  77.396 117.903  0.00  0.00     0.028 C 
ATOM     10  C   LIG d   1      -6.959  77.105 116.642  0.00  0.00     0.006 C 
ENDBRANCH   8   9
BRANCH   8  11
ATOM     11  C   LIG d   1      -6.788  79.748 117.872  0.00  0.00     0.028 C 
ATOM     12  C   LIG d   1      -6.420  81.223 117.650  0.00  0.00     0.006 C 
ENDBRANCH   8  11
ENDBRANCH   7   8
ENDBRANCH   1   7
BRANCH   6  13
ATOM     13  N   LIG d   1      -3.612  76.486 115.488  0.00  0.00    -0.311 N 
ATOM     14  C   LIG d   1      -4.332  76.051 114.456  0.00  0.00     0.210 C 
ATOM     15  C   LIG d   1      -4.935  74.653 114.632  0.00  0.00     0.109 C 
ATOM     16  O   LIG d   1      -4.501  76.675 113.398  0.00  0.00    -0.276 OA
ATOM     17  H   LIG d   1      -3.500  75.901 116.293  0.00  0.00     0.149 HD
ENDBRANCH   6  13
BRANCH   5  18
ATOM     18  N   LIG d   1      -0.975  77.176 114.110  0.00  0.00     0.381 N 
ATOM     19  H   LIG d   1      -1.686  76.584 113.731  0.00  0.00    -0.090 HD
ATOM     20  H   LIG d   1      -0.150  76.622 114.259  0.00  0.00    -0.090 HD
ATOM     21  H   LIG d   1      -0.776  77.917 113.474  0.00  0.00    -0.090 HD
ENDBRANCH   5  18
BRANCH   3  22
ATOM     22  C   LIG d   1      -0.429  80.741 117.261  0.00  0.00     0.382 C 
ATOM     23  O   LIG d   1       0.435  81.328 116.567  0.00  0.00    -0.241 OA
ATOM     24  O   LIG d   1      -0.488  80.964 118.485  0.00  0.00    -0.241 OA
ENDBRANCH   3  22
TORSDOF 7
ENDMDL
MODEL 5
REMARK VINA RESULT:      -4.9      2.819      5.412
REMARK  7 active torsions:
REMARK  status: ('A' for Active; 'I' for Inactive)
REMARK    1  A    between atoms: C_2  and  C_3 
REMARK    2  A    between atoms: C_3  and  O_6 
REMARK    3  A    between atoms: C_3  and  C_4 
REMARK    4  A    between atoms: C_7  and  O_6 
REMARK    5  A    between atoms: C_9  and  C_10 
REMARK    6  A    between atoms: N_15  and  C_14 
REMARK    7  A    between atoms: N_20  and  C_19 
REMARK       I    between atoms: C_22  and  N_20 
ROOT
ATOM      1  C   LIG d   1      -1.064  77.739 114.794  0.00  0.00     0.161 C 
ATOM      2  C   LIG d   1      -1.292  77.996 116.156  0.00  0.00     0.016 C 
ATOM      3  C   LIG d   1      -1.951  79.153 116.630  0.00  0.00     0.038 C 
ATOM      4  C   LIG d   1      -2.565  80.066 115.759  0.00  0.00     0.028 C 
ATOM      5  C   LIG d   1      -1.923  80.109 114.376  0.00  0.00    -0.047 C 
ATOM      6  C   LIG d   1      -1.824  78.668 113.824  0.00  0.00     0.091 C 
ENDROOT
BRANCH   1   7
ATOM      7  O   LIG d   1      -1.359  76.359 114.500  0.00  0.00    -0.368 OA
BRANCH   7   8
ATOM      8  C   LIG d   1      -1.931  75.585 115.584  0.00  0.00     0.119 C 
BRANCH   8   9
ATOM      9  C   LIG d   1      -1.000  74.383 115.835  0.00  0.00     0.028 C 
ATOM     10  C   LIG d   1      -0.407  74.386 117.254  0.00  0.00     0.006 C 
ENDBRANCH   8   9
BRANCH   8  11
ATOM     11  C   LIG d   1      -3.279  74.979 115.184  0.00  0.00     0.028 C 
ATOM     12  C   LIG d   1      -4.293  76.035 114.718  0.00  0.00     0.006 C 
ENDBRANCH   8  11
ENDBRANCH   7   8
ENDBRANCH   1   7
BRANCH   6  13
ATOM     13  N   LIG d   1      -1.131  78.611 112.510  0.00  0.00    -0.311 N 
ATOM     14  C   LIG d   1      -1.721  78.206 111.388  0.00  0.00     0.210 C 
ATOM     15  C   LIG d   1      -0.821  78.204 110.148  0.00  0.00     0.109 C 
ATOM     16  O   LIG d   1      -2.914  77.877 111.294  0.00  0.00    -0.276 OA
ATOM     17  H   LIG d   1      -0.170  78.890 112.489  0.00  0.00     0.149 HD
ENDBRANCH   6  13
BRANCH   5  18
ATOM     18  N   LIG d   1      -2.745  80.996 113.531  0.00  0.00     0.381 N 
ATOM     19  H   LIG d   1      -3.032  81.796 114.059  0.00  0.00    -0.090 HD
ATOM     20  H   LIG d   1      -3.568  80.498 113.240  0.00  0.00    -0.090 HD
ATOM     21  H   LIG d   1      -2.224  81.285 112.733  0.00  0.00    -0.090 HD
ENDBRANCH   5  18
BRANCH   3  22
ATOM     22  C   LIG d   1      -1.966  79.427 117.989  0.00  0.00     0.382 C 
ATOM     23  O   LIG d   1      -1.984  80.617 118.388  0.00  0.00    -0.241 OA
ATOM     24  O   LIG d   1      -1.918  78.502 118.821  0.00  0.00    -0.241 OA
ENDBRANCH   3  22
TORSDOF 7
ENDMDL
MODEL 6
REMARK VINA RESULT:      -4.8      3.335      5.687
REMARK  7 active torsions:
REMARK  status: ('A' for Active; 'I' for Inactive)
REMARK    1  A    between atoms: C_2  and  C_3 
REMARK    2  A    between atoms: C_3  and  O_6 
REMARK    3  A    between atoms: C_3  and  C_4 
REMARK    4  A    between atoms: C_7  and  O_6 
REMARK    5  A    between atoms: C_9  and  C_10 
REMARK    6  A    between atoms: N_15  and  C_14 
REMARK    7  A    between atoms: N_20  and  C_19 
REMARK       I    between atoms: C_22  and  N_20 
ROOT
ATOM      1  C   LIG d   1      -1.694  79.954 114.202  0.00  0.00     0.161 C 
ATOM      2  C   LIG d   1      -2.513  78.836 114.431  0.00  0.00     0.016 C 
ATOM      3  C   LIG d   1      -2.626  77.756 113.525  0.00  0.00     0.038 C 
ATOM      4  C   LIG d   1      -1.806  77.651 112.391  0.00  0.00     0.028 C 
ATOM      5  C   LIG d   1      -1.330  78.999 111.861  0.00  0.00    -0.047 C 
ATOM      6  C   LIG d   1      -0.709  79.805 113.024  0.00  0.00     0.091 C 
ENDROOT
BRANCH   1   7
ATOM      7  O   LIG d   1      -0.984  80.295 115.410  0.00  0.00    -0.368 OA
BRANCH   7   8
ATOM      8  C   LIG d   1      -1.217  79.433 116.551  0.00  0.00     0.119 C 
BRANCH   8   9
ATOM      9  C   LIG d   1      -1.535  80.337 117.757  0.00  0.00     0.028 C 
ATOM     10  C   LIG d   1      -2.946  80.093 118.317  0.00  0.00     0.006 C 
ENDBRANCH   8   9
BRANCH   8  11
ATOM     11  C   LIG d   1       0.052  78.669 116.940  0.00  0.00     0.028 C 
ATOM     12  C   LIG d   1      -0.030  77.170 116.613  0.00  0.00     0.006 C 
ENDBRANCH   8  11
ENDBRANCH   7   8
ENDBRANCH   1   7
BRANCH   6  13
ATOM     13  N   LIG d   1      -0.294  81.170 112.610  0.00  0.00    -0.311 N 
ATOM     14  C   LIG d   1      -1.156  82.130 112.280  0.00  0.00     0.210 C 
ATOM     15  C   LIG d   1      -0.516  83.459 111.863  0.00  0.00     0.109 C 
ATOM     16  O   LIG d   1      -2.390  82.018 112.323  0.00  0.00    -0.276 OA
ATOM     17  H   LIG d   1       0.689  81.358 112.577  0.00  0.00     0.149 HD
ENDBRANCH   6  13
BRANCH   5  18
ATOM     18  N   LIG d   1      -0.377  78.736 110.766  0.00  0.00     0.381 N 
ATOM     19  H   LIG d   1       0.353  78.134 111.091  0.00  0.00    -0.090 HD
ATOM     20  H   LIG d   1       0.036  79.605 110.479  0.00  0.00    -0.090 HD
ATOM     21  H   LIG d   1      -0.849  78.313 109.997  0.00  0.00    -0.090 HD
ENDBRANCH   5  18
BRANCH   3  22
ATOM     22  C   LIG d   1      -3.595  76.786 113.729  0.00  0.00     0.382 C 
ATOM     23  O   LIG d   1      -3.372  75.832 114.512  0.00  0.00    -0.241 OA
ATOM     24  O   LIG d   1      -4.673  76.829 113.106  0.00  0.00    -0.241 OA
ENDBRANCH   3  22
TORSDOF 7
ENDMDL
MODEL 7
REMARK VINA RESULT:      -4.8      2.404      3.810
REMARK  7 active torsions:
REMARK  status: ('A' for Active; 'I' for Inactive)
REMARK    1  A    between atoms: C_2  and  C_3 
REMARK    2  A    between atoms: C_3  and  O_6 
REMARK    3  A    between atoms: C_3  and  C_4 
REMARK    4  A    between atoms: C_7  and  O_6 
REMARK    5  A    between atoms: C_9  and  C_10 
REMARK    6  A    between atoms: N_15  and  C_14 
REMARK    7  A    between atoms: N_20  and  C_19 
REMARK       I    between atoms: C_22  and  N_20 
ROOT
ATOM      1  C   LIG d   1      -0.916  77.102 115.462  0.00  0.00     0.161 C 
ATOM      2  C   LIG d   1      -1.351  77.812 114.331  0.00  0.00     0.016 C 
ATOM      3  C   LIG d   1      -2.591  77.577 113.694  0.00  0.00     0.038 C 
ATOM      4  C   LIG d   1      -3.552  76.712 114.238  0.00  0.00     0.028 C 
ATOM      5  C   LIG d   1      -2.952  75.603 115.095  0.00  0.00    -0.047 C 
ATOM      6  C   LIG d   1      -1.998  76.232 116.136  0.00  0.00     0.091 C 
ENDROOT
BRANCH   1   7
ATOM      7  O   LIG d   1      -0.337  78.012 116.418  0.00  0.00    -0.368 OA
BRANCH   7   8
ATOM      8  C   LIG d   1      -0.834  79.372 116.385  0.00  0.00     0.119 C 
BRANCH   8   9
ATOM      9  C   LIG d   1       0.355  80.307 116.678  0.00  0.00     0.028 C 
ATOM     10  C   LIG d   1       0.056  81.300 117.813  0.00  0.00     0.006 C 
ENDBRANCH   8   9
BRANCH   8  11
ATOM     11  C   LIG d   1      -1.837  79.627 117.514  0.00  0.00     0.028 C 
ATOM     12  C   LIG d   1      -3.296  79.610 117.030  0.00  0.00     0.006 C 
ENDBRANCH   8  11
ENDBRANCH   7   8
ENDBRANCH   1   7
BRANCH   6  13
ATOM     13  N   LIG d   1      -1.304  75.209 116.961  0.00  0.00    -0.311 N 
ATOM     14  C   LIG d   1      -1.038  75.369 118.256  0.00  0.00     0.210 C 
ATOM     15  C   LIG d   1      -0.297  74.200 118.913  0.00  0.00     0.109 C 
ATOM     16  O   LIG d   1      -1.374  76.354 118.931  0.00  0.00    -0.276 OA
ATOM     17  H   LIG d   1      -1.024  74.365 116.500  0.00  0.00     0.149 HD
ENDBRANCH   6  13
BRANCH   5  18
ATOM     18  N   LIG d   1      -4.070  74.861 115.710  0.00  0.00     0.381 N 
ATOM     19  H   LIG d   1      -3.785  73.923 115.908  0.00  0.00    -0.090 HD
ATOM     20  H   LIG d   1      -4.835  74.828 115.059  0.00  0.00    -0.090 HD
ATOM     21  H   LIG d   1      -4.358  75.313 116.550  0.00  0.00    -0.090 HD
ENDBRANCH   5  18
BRANCH   3  22
ATOM     22  C   LIG d   1      -2.863  78.181 112.476  0.00  0.00     0.382 C 
ATOM     23  O   LIG d   1      -2.662  77.556 111.407  0.00  0.00    -0.241 OA
ATOM     24  O   LIG d   1      -3.265  79.359 112.431  0.00  0.00    -0.241 OA
ENDBRANCH   3  22
TORSDOF 7
ENDMDL
MODEL 8
REMARK VINA RESULT:      -4.7      3.281      5.358
REMARK  7 active torsions:
REMARK  status: ('A' for Active; 'I' for Inactive)
REMARK    1  A    between atoms: C_2  and  C_3 
REMARK    2  A    between atoms: C_3  and  O_6 
REMARK    3  A    between atoms: C_3  and  C_4 
REMARK    4  A    between atoms: C_7  and  O_6 
REMARK    5  A    between atoms: C_9  and  C_10 
REMARK    6  A    between atoms: N_15  and  C_14 
REMARK    7  A    between atoms: N_20  and  C_19 
REMARK       I    between atoms: C_22  and  N_20 
ROOT
ATOM      1  C   LIG d   1      -5.480  78.204 117.660  0.00  0.00     0.161 C 
ATOM      2  C   LIG d   1      -6.685  78.907 117.498  0.00  0.00     0.016 C 
ATOM      3  C   LIG d   1      -6.912  80.196 118.032  0.00  0.00     0.038 C 
ATOM      4  C   LIG d   1      -5.889  80.938 118.640  0.00  0.00     0.028 C 
ATOM      5  C   LIG d   1      -4.805  80.070 119.270  0.00  0.00    -0.047 C 
ATOM      6  C   LIG d   1      -4.314  79.042 118.225  0.00  0.00     0.091 C 
ENDROOT
BRANCH   1   7
ATOM      7  O   LIG d   1      -5.098  77.593 116.412  0.00  0.00    -0.368 OA
BRANCH   7   8
ATOM      8  C   LIG d   1      -6.062  76.682 115.828  0.00  0.00     0.119 C 
BRANCH   8   9
ATOM      9  C   LIG d   1      -6.391  75.614 116.888  0.00  0.00     0.028 C 
ATOM     10  C   LIG d   1      -6.265  74.183 116.339  0.00  0.00     0.006 C 
ENDBRANCH   8   9
BRANCH   8  11
ATOM     11  C   LIG d   1      -5.458  75.912 114.650  0.00  0.00     0.028 C 
ATOM     12  C   LIG d   1      -4.130  76.514 114.162  0.00  0.00     0.006 C 
ENDBRANCH   8  11
ENDBRANCH   7   8
ENDBRANCH   1   7
BRANCH   6  13
ATOM     13  N   LIG d   1      -3.312  78.099 118.786  0.00  0.00    -0.311 N 
ATOM     14  C   LIG d   1      -2.102  77.917 118.260  0.00  0.00     0.210 C 
ATOM     15  C   LIG d   1      -1.232  76.882 118.981  0.00  0.00     0.109 C 
ATOM     16  O   LIG d   1      -1.654  78.537 117.284  0.00  0.00    -0.276 OA
ATOM     17  H   LIG d   1      -3.581  77.577 119.597  0.00  0.00     0.149 HD
ENDBRANCH   6  13
BRANCH   5  18
ATOM     18  N   LIG d   1      -3.735  80.968 119.745  0.00  0.00     0.381 N 
ATOM     19  H   LIG d   1      -3.777  81.048 120.741  0.00  0.00    -0.090 HD
ATOM     20  H   LIG d   1      -3.877  81.881 119.349  0.00  0.00    -0.090 HD
ATOM     21  H   LIG d   1      -2.845  80.614 119.470  0.00  0.00    -0.090 HD
ENDBRANCH   5  18
BRANCH   3  22
ATOM     22  C   LIG d   1      -8.187  80.741 117.995  0.00  0.00     0.382 C 
ATOM     23  O   LIG d   1      -9.139  80.145 118.554  0.00  0.00    -0.241 OA
ATOM     24  O   LIG d   1      -8.405  81.797 117.371  0.00  0.00    -0.241 OA
ENDBRANCH   3  22
TORSDOF 7
ENDMDL
MODEL 9
REMARK VINA RESULT:      -4.6      2.583      3.929
REMARK  7 active torsions:
REMARK  status: ('A' for Active; 'I' for Inactive)
REMARK    1  A    between atoms: C_2  and  C_3 
REMARK    2  A    between atoms: C_3  and  O_6 
REMARK    3  A    between atoms: C_3  and  C_4 
REMARK    4  A    between atoms: C_7  and  O_6 
REMARK    5  A    between atoms: C_9  and  C_10 
REMARK    6  A    between atoms: N_15  and  C_14 
REMARK    7  A    between atoms: N_20  and  C_19 
REMARK       I    between atoms: C_22  and  N_20 
ROOT
ATOM      1  C   LIG d   1      -2.689  77.054 115.208  0.00  0.00     0.161 C 
ATOM      2  C   LIG d   1      -2.491  77.160 113.821  0.00  0.00     0.016 C 
ATOM      3  C   LIG d   1      -1.821  78.245 113.211  0.00  0.00     0.038 C 
ATOM      4  C   LIG d   1      -1.168  79.231 113.965  0.00  0.00     0.028 C 
ATOM      5  C   LIG d   1      -1.773  79.435 115.350  0.00  0.00    -0.047 C 
ATOM      6  C   LIG d   1      -1.887  78.064 116.055  0.00  0.00     0.091 C 
ENDROOT
BRANCH   1   7
ATOM      7  O   LIG d   1      -2.413  75.707 115.640  0.00  0.00    -0.368 OA
BRANCH   7   8
ATOM      8  C   LIG d   1      -1.033  75.413 115.966  0.00  0.00     0.119 C 
BRANCH   8   9
ATOM      9  C   LIG d   1      -0.581  74.249 115.062  0.00  0.00     0.028 C 
ATOM     10  C   LIG d   1       0.047  74.739 113.746  0.00  0.00     0.006 C 
ENDBRANCH   8   9
BRANCH   8  11
ATOM     11  C   LIG d   1      -0.899  74.888 117.399  0.00  0.00     0.028 C 
ATOM     12  C   LIG d   1       0.437  75.276 118.053  0.00  0.00     0.006 C 
ENDBRANCH   8  11
ENDBRANCH   7   8
ENDBRANCH   1   7
BRANCH   6  13
ATOM     13  N   LIG d   1      -2.547  78.162 117.383  0.00  0.00    -0.311 N 
ATOM     14  C   LIG d   1      -1.878  78.324 118.523  0.00  0.00     0.210 C 
ATOM     15  C   LIG d   1      -2.751  78.381 119.781  0.00  0.00     0.109 C 
ATOM     16  O   LIG d   1      -0.649  78.459 118.609  0.00  0.00    -0.276 OA
ATOM     17  H   LIG d   1      -3.545  78.094 117.402  0.00  0.00     0.149 HD
ENDBRANCH   6  13
BRANCH   5  18
ATOM     18  N   LIG d   1      -0.913  80.389 116.076  0.00  0.00     0.381 N 
ATOM     19  H   LIG d   1      -0.811  81.228 115.542  0.00  0.00    -0.090 HD
ATOM     20  H   LIG d   1      -0.003  79.979 116.197  0.00  0.00    -0.090 HD
ATOM     21  H   LIG d   1      -1.311  80.598 116.965  0.00  0.00    -0.090 HD
ENDBRANCH   5  18
BRANCH   3  22
ATOM     22  C   LIG d   1      -1.835  78.373 111.831  0.00  0.00     0.382 C 
ATOM     23  O   LIG d   1      -2.292  77.446 111.120  0.00  0.00    -0.241 OA
ATOM     24  O   LIG d   1      -1.355  79.385 111.285  0.00  0.00    -0.241 OA
ENDBRANCH   3  22
TORSDOF 7
ENDMDL
