MODEL 1
REMARK VINA RESULT:      -5.2      0.000      0.000
REMARK  7 active torsions:
REMARK  status: ('A' for Active; 'I' for Inactive)
REMARK    1  A    between atoms: C_2  and  C_3 
REMARK    2  A    between atoms: C_3  and  O_6 
REMARK    3  A    between atoms: C_3  and  C_4 
REMARK    4  A    between atoms: C_7  and  O_6 
REMARK    5  A    between atoms: C_9  and  C_10 
REMARK    6  A    between atoms: N_15  and  C_14 
REMARK    7  A    between atoms: N_20  and  C_19 
REMARK       I    between atoms: C_22  and  N_20 
ROOT
ATOM      1  C   LIG d   1      -3.054  78.245 115.382  0.00  0.00     0.161 C 
ATOM      2  C   LIG d   1      -3.166  79.385 114.569  0.00  0.00     0.016 C 
ATOM      3  C   LIG d   1      -2.318  79.641 113.466  0.00  0.00     0.038 C 
ATOM      4  C   LIG d   1      -1.391  78.693 113.009  0.00  0.00     0.028 C 
ATOM      5  C   LIG d   1      -0.899  77.750 114.101  0.00  0.00    -0.047 C 
ATOM      6  C   LIG d   1      -2.121  77.146 114.831  0.00  0.00     0.091 C 
ENDROOT
BRANCH   1   7
ATOM      7  O   LIG d   1      -4.363  77.704 115.648  0.00  0.00    -0.368 OA
BRANCH   7   8
ATOM      8  C   LIG d   1      -4.844  77.837 117.008  0.00  0.00     0.119 C 
BRANCH   8   9
ATOM      9  C   LIG d   1      -5.152  76.421 117.531  0.00  0.00     0.028 C 
ATOM     10  C   LIG d   1      -5.655  75.482 116.422  0.00  0.00     0.006 C 
ENDBRANCH   8   9
BRANCH   8  11
ATOM     11  C   LIG d   1      -6.179  78.586 117.055  0.00  0.00     0.028 C 
ATOM     12  C   LIG d   1      -6.013  80.081 117.371  0.00  0.00     0.006 C 
ENDBRANCH   8  11
ENDBRANCH   7   8
ENDBRANCH   1   7
BRANCH   6  13
ATOM     13  N   LIG d   1      -1.728  76.277 115.971  0.00  0.00    -0.311 N 
ATOM     14  C   LIG d   1      -1.983  74.970 116.018  0.00  0.00     0.210 C 
ATOM     15  C   LIG d   1      -1.510  74.265 117.292  0.00  0.00     0.109 C 
ATOM     16  O   LIG d   1      -2.528  74.323 115.111  0.00  0.00    -0.276 OA
ATOM     17  H   LIG d   1      -1.253  76.714 116.736  0.00  0.00     0.149 HD
ENDBRANCH   6  13
BRANCH   5  18
ATOM     18  N   LIG d   1      -0.047  76.730 113.460  0.00  0.00     0.381 N 
ATOM     19  H   LIG d   1      -0.311  75.819 113.778  0.00  0.00    -0.090 HD
ATOM     20  H   LIG d   1       0.909  76.892 113.725  0.00  0.00    -0.090 HD
ATOM     21  H   LIG d   1      -0.138  76.784 112.470  0.00  0.00    -0.090 HD
ENDBRANCH   5  18
BRANCH   3  22
ATOM     22  C   LIG d   1      -2.366  80.874 112.834  0.00  0.00     0.382 C 
ATOM     23  O   LIG d   1      -1.320  81.373 112.353  0.00  0.00    -0.241 OA
ATOM     24  O   LIG d   1      -3.433  81.514 112.778  0.00  0.00    -0.241 OA
ENDBRANCH   3  22
TORSDOF 7
ENDMDL
MODEL 2
REMARK VINA RESULT:      -4.9      2.254      4.761
REMARK  7 active torsions:
REMARK  status: ('A' for Active; 'I' for Inactive)
REMARK    1  A    between atoms: C_2  and  C_3 
REMARK    2  A    between atoms: C_3  and  O_6 
REMARK    3  A    between atoms: C_3  and  C_4 
REMARK    4  A    between atoms: C_7  and  O_6 
REMARK    5  A    between atoms: C_9  and  C_10 
REMARK    6  A    between atoms: N_15  and  C_14 
REMARK    7  A    between atoms: N_20  and  C_19 
REMARK       I    between atoms: C_22  and  N_20 
ROOT
ATOM      1  C   LIG d   1      -1.763  76.089 114.527  0.00  0.00     0.161 C 
ATOM      2  C   LIG d   1      -1.633  75.805 115.897  0.00  0.00     0.016 C 
ATOM      3  C   LIG d   1      -0.998  76.674 116.815  0.00  0.00     0.038 C 
ATOM      4  C   LIG d   1      -0.582  77.963 116.449  0.00  0.00     0.028 C 
ATOM      5  C   LIG d   1      -0.239  78.092 114.969  0.00  0.00    -0.047 C 
ATOM      6  C   LIG d   1      -1.415  77.539 114.131  0.00  0.00     0.091 C 
ENDROOT
BRANCH   1   7
ATOM      7  O   LIG d   1      -3.093  75.755 114.084  0.00  0.00    -0.368 OA
BRANCH   7   8
ATOM      8  C   LIG d   1      -4.097  75.625 115.120  0.00  0.00     0.119 C 
BRANCH   8   9
ATOM      9  C   LIG d   1      -5.041  74.479 114.709  0.00  0.00     0.028 C 
ATOM     10  C   LIG d   1      -6.104  74.181 115.780  0.00  0.00     0.006 C 
ENDBRANCH   8   9
BRANCH   8  11
ATOM     11  C   LIG d   1      -4.983  76.872 115.198  0.00  0.00     0.028 C 
ATOM     12  C   LIG d   1      -4.690  77.735 116.436  0.00  0.00     0.006 C 
ENDBRANCH   8  11
ENDBRANCH   7   8
ENDBRANCH   1   7
BRANCH   6  13
ATOM     13  N   LIG d   1      -1.126  77.551 112.674  0.00  0.00    -0.311 N 
ATOM     14  C   LIG d   1      -1.515  78.529 111.857  0.00  0.00     0.210 C 
ATOM     15  C   LIG d   1      -1.131  78.334 110.387  0.00  0.00     0.109 C 
ATOM     16  O   LIG d   1      -2.112  79.554 112.216  0.00  0.00    -0.276 OA
ATOM     17  H   LIG d   1      -0.618  76.772 112.303  0.00  0.00     0.149 HD
ENDBRANCH   6  13
BRANCH   5  18
ATOM     18  N   LIG d   1       0.045  79.514 114.700  0.00  0.00     0.381 N 
ATOM     19  H   LIG d   1       0.642  79.881 115.413  0.00  0.00    -0.090 HD
ATOM     20  H   LIG d   1      -0.819  80.027 114.718  0.00  0.00    -0.090 HD
ATOM     21  H   LIG d   1       0.480  79.612 113.809  0.00  0.00    -0.090 HD
ENDBRANCH   5  18
BRANCH   3  22
ATOM     22  C   LIG d   1      -0.739  76.239 118.105  0.00  0.00     0.382 C 
ATOM     23  O   LIG d   1       0.152  75.379 118.310  0.00  0.00    -0.241 OA
ATOM     24  O   LIG d   1      -1.413  76.662 119.063  0.00  0.00    -0.241 OA
ENDBRANCH   3  22
TORSDOF 7
ENDMDL
MODEL 3
REMARK VINA RESULT:      -4.6      3.792      5.604
REMARK  7 active torsions:
REMARK  status: ('A' for Active; 'I' for Inactive)
REMARK    1  A    between atoms: C_2  and  C_3 
REMARK    2  A    between atoms: C_3  and  O_6 
REMARK    3  A    between atoms: C_3  and  C_4 
REMARK    4  A    between atoms: C_7  and  O_6 
REMARK    5  A    between atoms: C_9  and  C_10 
REMARK    6  A    between atoms: N_15  and  C_14 
REMARK    7  A    between atoms: N_20  and  C_19 
REMARK       I    between atoms: C_22  and  N_20 
ROOT
ATOM      1  C   LIG d   1      -5.761  77.660 116.796  0.00  0.00     0.161 C 
ATOM      2  C   LIG d   1      -4.774  77.336 115.852  0.00  0.00     0.016 C 
ATOM      3  C   LIG d   1      -4.675  76.068 115.233  0.00  0.00     0.038 C 
ATOM      4  C   LIG d   1      -5.655  75.080 115.407  0.00  0.00     0.028 C 
ATOM      5  C   LIG d   1      -6.392  75.185 116.738  0.00  0.00    -0.047 C 
ATOM      6  C   LIG d   1      -6.905  76.632 116.915  0.00  0.00     0.091 C 
ENDROOT
BRANCH   1   7
ATOM      7  O   LIG d   1      -6.292  78.971 116.517  0.00  0.00    -0.368 OA
BRANCH   7   8
ATOM      8  C   LIG d   1      -5.681  80.072 117.234  0.00  0.00     0.119 C 
BRANCH   8   9
ATOM      9  C   LIG d   1      -5.206  79.531 118.596  0.00  0.00     0.028 C 
ATOM     10  C   LIG d   1      -3.861  80.137 119.032  0.00  0.00     0.006 C 
ENDBRANCH   8   9
BRANCH   8  11
ATOM     11  C   LIG d   1      -6.708  81.160 117.564  0.00  0.00     0.028 C 
ATOM     12  C   LIG d   1      -8.136  80.609 117.702  0.00  0.00     0.006 C 
ENDBRANCH   8  11
ENDBRANCH   7   8
ENDBRANCH   1   7
BRANCH   6  13
ATOM     13  N   LIG d   1      -7.565  76.842 118.230  0.00  0.00    -0.311 N 
ATOM     14  C   LIG d   1      -8.873  76.688 118.428  0.00  0.00     0.210 C 
ATOM     15  C   LIG d   1      -9.350  76.975 119.855  0.00  0.00     0.109 C 
ATOM     16  O   LIG d   1      -9.679  76.310 117.564  0.00  0.00    -0.276 OA
ATOM     17  H   LIG d   1      -6.980  77.120 118.994  0.00  0.00     0.149 HD
ENDBRANCH   6  13
BRANCH   5  18
ATOM     18  N   LIG d   1      -7.475  74.184 116.728  0.00  0.00     0.381 N 
ATOM     19  H   LIG d   1      -8.317  74.599 116.383  0.00  0.00    -0.090 HD
ATOM     20  H   LIG d   1      -7.639  73.873 117.670  0.00  0.00    -0.090 HD
ATOM     21  H   LIG d   1      -7.219  73.410 116.156  0.00  0.00    -0.090 HD
ENDBRANCH   5  18
BRANCH   3  22
ATOM     22  C   LIG d   1      -3.564  75.765 114.461  0.00  0.00     0.382 C 
ATOM     23  O   LIG d   1      -3.389  76.340 113.360  0.00  0.00    -0.241 OA
ATOM     24  O   LIG d   1      -2.756  74.891 114.832  0.00  0.00    -0.241 OA
ENDBRANCH   3  22
TORSDOF 7
ENDMDL
MODEL 4
REMARK VINA RESULT:      -4.6      2.520      3.378
REMARK  7 active torsions:
REMARK  status: ('A' for Active; 'I' for Inactive)
REMARK    1  A    between atoms: C_2  and  C_3 
REMARK    2  A    between atoms: C_3  and  O_6 
REMARK    3  A    between atoms: C_3  and  C_4 
REMARK    4  A    between atoms: C_7  and  O_6 
REMARK    5  A    between atoms: C_9  and  C_10 
REMARK    6  A    between atoms: N_15  and  C_14 
REMARK    7  A    between atoms: N_20  and  C_19 
REMARK       I    between atoms: C_22  and  N_20 
ROOT
ATOM      1  C   LIG d   1      -2.965  77.033 114.764  0.00  0.00     0.161 C 
ATOM      2  C   LIG d   1      -3.096  76.985 113.366  0.00  0.00     0.016 C 
ATOM      3  C   LIG d   1      -2.255  77.699 112.482  0.00  0.00     0.038 C 
ATOM      4  C   LIG d   1      -1.123  78.393 112.933  0.00  0.00     0.028 C 
ATOM      5  C   LIG d   1      -1.246  78.882 114.372  0.00  0.00    -0.047 C 
ATOM      6  C   LIG d   1      -1.667  77.697 115.270  0.00  0.00     0.091 C 
ENDROOT
BRANCH   1   7
ATOM      7  O   LIG d   1      -3.096  75.706 115.313  0.00  0.00    -0.368 OA
BRANCH   7   8
ATOM      8  C   LIG d   1      -4.220  75.492 116.201  0.00  0.00     0.119 C 
BRANCH   8   9
ATOM      9  C   LIG d   1      -3.654  75.261 117.616  0.00  0.00     0.028 C 
ATOM     10  C   LIG d   1      -2.324  74.489 117.597  0.00  0.00     0.006 C 
ENDBRANCH   8   9
BRANCH   8  11
ATOM     11  C   LIG d   1      -4.971  74.204 115.850  0.00  0.00     0.028 C 
ATOM     12  C   LIG d   1      -6.497  74.387 115.842  0.00  0.00     0.006 C 
ENDBRANCH   8  11
ENDBRANCH   7   8
ENDBRANCH   1   7
BRANCH   6  13
ATOM     13  N   LIG d   1      -1.892  78.106 116.681  0.00  0.00    -0.311 N 
ATOM     14  C   LIG d   1      -0.985  77.951 117.643  0.00  0.00     0.210 C 
ATOM     15  C   LIG d   1      -1.427  78.423 119.032  0.00  0.00     0.109 C 
ATOM     16  O   LIG d   1       0.157  77.498 117.472  0.00  0.00    -0.276 OA
ATOM     17  H   LIG d   1      -2.781  78.512 116.902  0.00  0.00     0.149 HD
ENDBRANCH   6  13
BRANCH   5  18
ATOM     18  N   LIG d   1       0.053  79.466 114.757  0.00  0.00     0.381 N 
ATOM     19  H   LIG d   1       0.733  79.276 114.049  0.00  0.00    -0.090 HD
ATOM     20  H   LIG d   1       0.360  79.039 115.613  0.00  0.00    -0.090 HD
ATOM     21  H   LIG d   1      -0.040  80.450 114.883  0.00  0.00    -0.090 HD
ENDBRANCH   5  18
BRANCH   3  22
ATOM     22  C   LIG d   1      -2.567  77.754 111.132  0.00  0.00     0.382 C 
ATOM     23  O   LIG d   1      -3.599  77.185 110.703  0.00  0.00    -0.241 OA
ATOM     24  O   LIG d   1      -1.805  78.328 110.330  0.00  0.00    -0.241 OA
ENDBRANCH   3  22
TORSDOF 7
ENDMDL
MODEL 5
REMARK VINA RESULT:      -4.6      2.411      3.007
REMARK  7 active torsions:
REMARK  status: ('A' for Active; 'I' for Inactive)
REMARK    1  A    between atoms: C_2  and  C_3 
REMARK    2  A    between atoms: C_3  and  O_6 
REMARK    3  A    between atoms: C_3  and  C_4 
REMARK    4  A    between atoms: C_7  and  O_6 
REMARK    5  A    between atoms: C_9  and  C_10 
REMARK    6  A    between atoms: N_15  and  C_14 
REMARK    7  A    between atoms: N_20  and  C_19 
REMARK       I    between atoms: C_22  and  N_20 
ROOT
ATOM      1  C   LIG d   1      -2.754  76.852 114.899  0.00  0.00     0.161 C 
ATOM      2  C   LIG d   1      -2.988  76.829 113.514  0.00  0.00     0.016 C 
ATOM      3  C   LIG d   1      -2.267  77.621 112.590  0.00  0.00     0.038 C 
ATOM      4  C   LIG d   1      -1.155  78.383 112.976  0.00  0.00     0.028 C 
ATOM      5  C   LIG d   1      -1.201  78.828 114.434  0.00  0.00    -0.047 C 
ATOM      6  C   LIG d   1      -1.471  77.594 115.326  0.00  0.00     0.091 C 
ENDROOT
BRANCH   1   7
ATOM      7  O   LIG d   1      -2.751  75.507 115.417  0.00  0.00    -0.368 OA
BRANCH   7   8
ATOM      8  C   LIG d   1      -3.908  75.123 116.200  0.00  0.00     0.119 C 
BRANCH   8   9
ATOM      9  C   LIG d   1      -4.919  74.465 115.240  0.00  0.00     0.028 C 
ATOM     10  C   LIG d   1      -6.164  75.338 115.011  0.00  0.00     0.006 C 
ENDBRANCH   8   9
BRANCH   8  11
ATOM     11  C   LIG d   1      -4.628  76.349 116.769  0.00  0.00     0.028 C 
ATOM     12  C   LIG d   1      -4.658  76.363 118.305  0.00  0.00     0.006 C 
ENDBRANCH   8  11
ENDBRANCH   7   8
ENDBRANCH   1   7
BRANCH   6  13
ATOM     13  N   LIG d   1      -1.615  77.954 116.761  0.00  0.00    -0.311 N 
ATOM     14  C   LIG d   1      -0.969  77.326 117.742  0.00  0.00     0.210 C 
ATOM     15  C   LIG d   1      -1.277  77.842 119.152  0.00  0.00     0.109 C 
ATOM     16  O   LIG d   1      -0.146  76.413 117.577  0.00  0.00    -0.276 OA
ATOM     17  H   LIG d   1      -2.240  78.704 116.983  0.00  0.00     0.149 HD
ENDBRANCH   6  13
BRANCH   5  18
ATOM     18  N   LIG d   1       0.079  79.493 114.738  0.00  0.00     0.381 N 
ATOM     19  H   LIG d   1       0.796  78.806 114.867  0.00  0.00    -0.090 HD
ATOM     20  H   LIG d   1      -0.018  80.011 115.594  0.00  0.00    -0.090 HD
ATOM     21  H   LIG d   1       0.329  80.108 113.996  0.00  0.00    -0.090 HD
ENDBRANCH   5  18
BRANCH   3  22
ATOM     22  C   LIG d   1      -2.684  77.686 111.269  0.00  0.00     0.382 C 
ATOM     23  O   LIG d   1      -3.773  77.164 110.929  0.00  0.00    -0.241 OA
ATOM     24  O   LIG d   1      -1.964  78.220 110.405  0.00  0.00    -0.241 OA
ENDBRANCH   3  22
TORSDOF 7
ENDMDL
MODEL 6
REMARK VINA RESULT:      -4.5      3.820      5.055
REMARK  7 active torsions:
REMARK  status: ('A' for Active; 'I' for Inactive)
REMARK    1  A    between atoms: C_2  and  C_3 
REMARK    2  A    between atoms: C_3  and  O_6 
REMARK    3  A    between atoms: C_3  and  C_4 
REMARK    4  A    between atoms: C_7  and  O_6 
REMARK    5  A    between atoms: C_9  and  C_10 
REMARK    6  A    between atoms: N_15  and  C_14 
REMARK    7  A    between atoms: N_20  and  C_19 
REMARK       I    between atoms: C_22  and  N_20 
ROOT
ATOM      1  C   LIG d   1      -6.243  77.038 118.736  0.00  0.00     0.161 C 
ATOM      2  C   LIG d   1      -7.122  78.104 118.484  0.00  0.00     0.016 C 
ATOM      3  C   LIG d   1      -6.775  79.230 117.702  0.00  0.00     0.038 C 
ATOM      4  C   LIG d   1      -5.569  79.295 116.989  0.00  0.00     0.028 C 
ATOM      5  C   LIG d   1      -4.449  78.474 117.619  0.00  0.00    -0.047 C 
ATOM      6  C   LIG d   1      -4.962  77.039 117.875  0.00  0.00     0.091 C 
ENDROOT
BRANCH   1   7
ATOM      7  O   LIG d   1      -6.941  75.785 118.593  0.00  0.00    -0.368 OA
BRANCH   7   8
ATOM      8  C   LIG d   1      -7.579  75.553 117.313  0.00  0.00     0.119 C 
BRANCH   8   9
ATOM      9  C   LIG d   1      -8.978  74.970 117.592  0.00  0.00     0.028 C 
ATOM     10  C   LIG d   1     -10.060  76.059 117.681  0.00  0.00     0.006 C 
ENDBRANCH   8   9
BRANCH   8  11
ATOM     11  C   LIG d   1      -6.843  74.475 116.512  0.00  0.00     0.028 C 
ATOM     12  C   LIG d   1      -6.281  75.001 115.181  0.00  0.00     0.006 C 
ENDBRANCH   8  11
ENDBRANCH   7   8
ENDBRANCH   1   7
BRANCH   6  13
ATOM     13  N   LIG d   1      -3.955  76.192 118.567  0.00  0.00    -0.311 N 
ATOM     14  C   LIG d   1      -3.130  75.364 117.928  0.00  0.00     0.210 C 
ATOM     15  C   LIG d   1      -2.184  74.568 118.832  0.00  0.00     0.109 C 
ATOM     16  O   LIG d   1      -3.070  75.237 116.696  0.00  0.00    -0.276 OA
ATOM     17  H   LIG d   1      -3.914  76.256 119.565  0.00  0.00     0.149 HD
ENDBRANCH   6  13
BRANCH   5  18
ATOM     18  N   LIG d   1      -3.294  78.520 116.702  0.00  0.00     0.381 N 
ATOM     19  H   LIG d   1      -3.607  78.713 115.772  0.00  0.00    -0.090 HD
ATOM     20  H   LIG d   1      -2.842  77.622 116.703  0.00  0.00    -0.090 HD
ATOM     21  H   LIG d   1      -2.652  79.223 116.997  0.00  0.00    -0.090 HD
ENDBRANCH   5  18
BRANCH   3  22
ATOM     22  C   LIG d   1      -7.625  80.325 117.660  0.00  0.00     0.382 C 
ATOM     23  O   LIG d   1      -8.804  80.220 118.075  0.00  0.00    -0.241 OA
ATOM     24  O   LIG d   1      -7.241  81.405 117.172  0.00  0.00    -0.241 OA
ENDBRANCH   3  22
TORSDOF 7
ENDMDL
MODEL 7
REMARK VINA RESULT:      -4.3      2.497      4.198
REMARK  7 active torsions:
REMARK  status: ('A' for Active; 'I' for Inactive)
REMARK    1  A    between atoms: C_2  and  C_3 
REMARK    2  A    between atoms: C_3  and  O_6 
REMARK    3  A    between atoms: C_3  and  C_4 
REMARK    4  A    between atoms: C_7  and  O_6 
REMARK    5  A    between atoms: C_9  and  C_10 
REMARK    6  A    between atoms: N_15  and  C_14 
REMARK    7  A    between atoms: N_20  and  C_19 
REMARK       I    between atoms: C_22  and  N_20 
ROOT
ATOM      1  C   LIG d   1      -3.212  77.646 115.821  0.00  0.00     0.161 C 
ATOM      2  C   LIG d   1      -2.875  77.830 117.172  0.00  0.00     0.016 C 
ATOM      3  C   LIG d   1      -1.708  78.507 117.598  0.00  0.00     0.038 C 
ATOM      4  C   LIG d   1      -0.872  79.181 116.696  0.00  0.00     0.028 C 
ATOM      5  C   LIG d   1      -0.900  78.594 115.289  0.00  0.00    -0.047 C 
ATOM      6  C   LIG d   1      -2.369  78.471 114.826  0.00  0.00     0.091 C 
ENDROOT
BRANCH   1   7
ATOM      7  O   LIG d   1      -4.616  77.909 115.627  0.00  0.00    -0.368 OA
BRANCH   7   8
ATOM      8  C   LIG d   1      -5.506  77.404 116.652  0.00  0.00     0.119 C 
BRANCH   8   9
ATOM      9  C   LIG d   1      -6.164  76.123 116.104  0.00  0.00     0.028 C 
ATOM     10  C   LIG d   1      -6.290  76.138 114.572  0.00  0.00     0.006 C 
ENDBRANCH   8   9
BRANCH   8  11
ATOM     11  C   LIG d   1      -6.663  78.374 116.913  0.00  0.00     0.028 C 
ATOM     12  C   LIG d   1      -6.187  79.750 117.405  0.00  0.00     0.006 C 
ENDBRANCH   8  11
ENDBRANCH   7   8
ENDBRANCH   1   7
BRANCH   6  13
ATOM     13  N   LIG d   1      -2.491  77.827 113.492  0.00  0.00    -0.311 N 
ATOM     14  C   LIG d   1      -2.544  78.511 112.350  0.00  0.00     0.210 C 
ATOM     15  C   LIG d   1      -2.689  77.653 111.089  0.00  0.00     0.109 C 
ATOM     16  O   LIG d   1      -2.451  79.744 112.259  0.00  0.00    -0.276 OA
ATOM     17  H   LIG d   1      -2.541  76.827 113.470  0.00  0.00     0.149 HD
ENDBRANCH   6  13
BRANCH   5  18
ATOM     18  N   LIG d   1      -0.092  79.475 114.423  0.00  0.00     0.381 N 
ATOM     19  H   LIG d   1       0.389  80.151 114.982  0.00  0.00    -0.090 HD
ATOM     20  H   LIG d   1      -0.706  79.964 113.795  0.00  0.00    -0.090 HD
ATOM     21  H   LIG d   1       0.564  78.934 113.904  0.00  0.00    -0.090 HD
ENDBRANCH   5  18
BRANCH   3  22
ATOM     22  C   LIG d   1      -1.348  78.479 118.936  0.00  0.00     0.382 C 
ATOM     23  O   LIG d   1      -0.696  77.507 119.390  0.00  0.00    -0.241 OA
ATOM     24  O   LIG d   1      -1.704  79.392 119.705  0.00  0.00    -0.241 OA
ENDBRANCH   3  22
TORSDOF 7
ENDMDL
MODEL 8
REMARK VINA RESULT:      -4.3      2.661      4.136
REMARK  7 active torsions:
REMARK  status: ('A' for Active; 'I' for Inactive)
REMARK    1  A    between atoms: C_2  and  C_3 
REMARK    2  A    between atoms: C_3  and  O_6 
REMARK    3  A    between atoms: C_3  and  C_4 
REMARK    4  A    between atoms: C_7  and  O_6 
REMARK    5  A    between atoms: C_9  and  C_10 
REMARK    6  A    between atoms: N_15  and  C_14 
REMARK    7  A    between atoms: N_20  and  C_19 
REMARK       I    between atoms: C_22  and  N_20 
ROOT
ATOM      1  C   LIG d   1      -2.296  76.460 114.772  0.00  0.00     0.161 C 
ATOM      2  C   LIG d   1      -2.843  77.011 115.943  0.00  0.00     0.016 C 
ATOM      3  C   LIG d   1      -2.545  78.315 116.402  0.00  0.00     0.038 C 
ATOM      4  C   LIG d   1      -1.793  79.217 115.635  0.00  0.00     0.028 C 
ATOM      5  C   LIG d   1      -0.808  78.535 114.691  0.00  0.00    -0.047 C 
ATOM      6  C   LIG d   1      -1.562  77.469 113.864  0.00  0.00     0.091 C 
ENDROOT
BRANCH   1   7
ATOM      7  O   LIG d   1      -3.324  75.774 114.029  0.00  0.00    -0.368 OA
BRANCH   7   8
ATOM      8  C   LIG d   1      -4.654  75.804 114.604  0.00  0.00     0.119 C 
BRANCH   8   9
ATOM      9  C   LIG d   1      -5.096  74.345 114.824  0.00  0.00     0.028 C 
ATOM     10  C   LIG d   1      -6.084  74.202 115.994  0.00  0.00     0.006 C 
ENDBRANCH   8   9
BRANCH   8  11
ATOM     11  C   LIG d   1      -5.671  76.393 113.622  0.00  0.00     0.028 C 
ATOM     12  C   LIG d   1      -5.011  77.020 112.384  0.00  0.00     0.006 C 
ENDBRANCH   8  11
ENDBRANCH   7   8
ENDBRANCH   1   7
BRANCH   6  13
ATOM     13  N   LIG d   1      -0.656  76.696 112.975  0.00  0.00    -0.311 N 
ATOM     14  C   LIG d   1      -0.843  76.579 111.661  0.00  0.00     0.210 C 
ATOM     15  C   LIG d   1       0.198  75.722 110.934  0.00  0.00     0.109 C 
ATOM     16  O   LIG d   1      -1.753  77.130 111.024  0.00  0.00    -0.276 OA
ATOM     17  H   LIG d   1       0.127  76.242 113.404  0.00  0.00     0.149 HD
ENDBRANCH   6  13
BRANCH   5  18
ATOM     18  N   LIG d   1      -0.192  79.584 113.857  0.00  0.00     0.381 N 
ATOM     19  H   LIG d   1      -0.489  79.480 112.907  0.00  0.00    -0.090 HD
ATOM     20  H   LIG d   1       0.807  79.479 113.888  0.00  0.00    -0.090 HD
ATOM     21  H   LIG d   1      -0.449  80.485 114.196  0.00  0.00    -0.090 HD
ENDBRANCH   5  18
BRANCH   3  22
ATOM     22  C   LIG d   1      -2.969  78.714 117.660  0.00  0.00     0.382 C 
ATOM     23  O   LIG d   1      -4.195  78.807 117.908  0.00  0.00    -0.241 OA
ATOM     24  O   LIG d   1      -2.140  79.024 118.537  0.00  0.00    -0.241 OA
ENDBRANCH   3  22
TORSDOF 7
ENDMDL
MODEL 9
REMARK VINA RESULT:      -4.2      2.592      4.492
REMARK  7 active torsions:
REMARK  status: ('A' for Active; 'I' for Inactive)
REMARK    1  A    between atoms: C_2  and  C_3 
REMARK    2  A    between atoms: C_3  and  O_6 
REMARK    3  A    between atoms: C_3  and  C_4 
REMARK    4  A    between atoms: C_7  and  O_6 
REMARK    5  A    between atoms: C_9  and  C_10 
REMARK    6  A    between atoms: N_15  and  C_14 
REMARK    7  A    between atoms: N_20  and  C_19 
REMARK       I    between atoms: C_22  and  N_20 
ROOT
ATOM      1  C   LIG d   1      -3.090  77.348 115.363  0.00  0.00     0.161 C 
ATOM      2  C   LIG d   1      -2.566  77.021 116.625  0.00  0.00     0.016 C 
ATOM      3  C   LIG d   1      -1.336  77.521 117.111  0.00  0.00     0.038 C 
ATOM      4  C   LIG d   1      -0.614  78.509 116.424  0.00  0.00     0.028 C 
ATOM      5  C   LIG d   1      -0.849  78.493 114.917  0.00  0.00    -0.047 C 
ATOM      6  C   LIG d   1      -2.371  78.510 114.646  0.00  0.00     0.091 C 
ENDROOT
BRANCH   1   7
ATOM      7  O   LIG d   1      -4.500  77.624 115.476  0.00  0.00    -0.368 OA
BRANCH   7   8
ATOM      8  C   LIG d   1      -5.388  76.681 114.828  0.00  0.00     0.119 C 
BRANCH   8   9
ATOM      9  C   LIG d   1      -6.644  76.545 115.711  0.00  0.00     0.028 C 
ATOM     10  C   LIG d   1      -6.832  77.747 116.652  0.00  0.00     0.006 C 
ENDBRANCH   8   9
BRANCH   8  11
ATOM     11  C   LIG d   1      -4.773  75.279 114.780  0.00  0.00     0.028 C 
ATOM     12  C   LIG d   1      -5.732  74.189 115.284  0.00  0.00     0.006 C 
ENDBRANCH   8  11
ENDBRANCH   7   8
ENDBRANCH   1   7
BRANCH   6  13
ATOM     13  N   LIG d   1      -2.690  78.411 113.198  0.00  0.00    -0.311 N 
ATOM     14  C   LIG d   1      -2.297  77.397 112.429  0.00  0.00     0.210 C 
ATOM     15  C   LIG d   1      -2.717  77.501 110.959  0.00  0.00     0.109 C 
ATOM     16  O   LIG d   1      -1.669  76.406 112.830  0.00  0.00    -0.276 OA
ATOM     17  H   LIG d   1      -3.223  79.157 112.796  0.00  0.00     0.149 HD
ENDBRANCH   6  13
BRANCH   5  18
ATOM     18  N   LIG d   1      -0.147  79.656 114.344  0.00  0.00     0.381 N 
ATOM     19  H   LIG d   1       0.515  80.011 115.005  0.00  0.00    -0.090 HD
ATOM     20  H   LIG d   1      -0.818  80.378 114.151  0.00  0.00    -0.090 HD
ATOM     21  H   LIG d   1       0.320  79.393 113.504  0.00  0.00    -0.090 HD
ENDBRANCH   5  18
BRANCH   3  22
ATOM     22  C   LIG d   1      -0.796  77.004 118.278  0.00  0.00     0.382 C 
ATOM     23  O   LIG d   1      -0.148  77.747 119.053  0.00  0.00    -0.241 OA
ATOM     24  O   LIG d   1      -0.912  75.792 118.545  0.00  0.00    -0.241 OA
ENDBRANCH   3  22
TORSDOF 7
ENDMDL
