MODEL 1
REMARK VINA RESULT:      -5.5      0.000      0.000
REMARK  7 active torsions:
REMARK  status: ('A' for Active; 'I' for Inactive)
REMARK    1  A    between atoms: C_2  and  C_3 
REMARK    2  A    between atoms: C_3  and  O_6 
REMARK    3  A    between atoms: C_3  and  C_4 
REMARK    4  A    between atoms: C_7  and  O_6 
REMARK    5  A    between atoms: C_9  and  C_10 
REMARK    6  A    between atoms: N_15  and  C_14 
REMARK    7  A    between atoms: N_20  and  C_19 
REMARK       I    between atoms: C_22  and  N_20 
ROOT
ATOM      1  C   LIG d   1      -2.513  77.784 116.162  0.00  0.00     0.161 C 
ATOM      2  C   LIG d   1      -2.800  78.650 115.094  0.00  0.00     0.016 C 
ATOM      3  C   LIG d   1      -2.220  78.522 113.811  0.00  0.00     0.038 C 
ATOM      4  C   LIG d   1      -1.424  77.421 113.463  0.00  0.00     0.028 C 
ATOM      5  C   LIG d   1      -0.703  76.795 114.653  0.00  0.00    -0.047 C 
ATOM      6  C   LIG d   1      -1.733  76.511 115.771  0.00  0.00     0.091 C 
ENDROOT
BRANCH   1   7
ATOM      7  O   LIG d   1      -3.731  77.433 116.848  0.00  0.00    -0.368 OA
BRANCH   7   8
ATOM      8  C   LIG d   1      -4.925  77.360 116.029  0.00  0.00     0.119 C 
BRANCH   8   9
ATOM      9  C   LIG d   1      -6.094  77.915 116.866  0.00  0.00     0.028 C 
ATOM     10  C   LIG d   1      -5.906  79.398 117.226  0.00  0.00     0.006 C 
ENDBRANCH   8   9
BRANCH   8  11
ATOM     11  C   LIG d   1      -5.300  75.908 115.720  0.00  0.00     0.028 C 
ATOM     12  C   LIG d   1      -5.061  75.531 114.250  0.00  0.00     0.006 C 
ENDBRANCH   8  11
ENDBRANCH   7   8
ENDBRANCH   1   7
BRANCH   6  13
ATOM     13  N   LIG d   1      -1.098  75.976 117.003  0.00  0.00    -0.311 N 
ATOM     14  C   LIG d   1      -1.575  74.933 117.680  0.00  0.00     0.210 C 
ATOM     15  C   LIG d   1      -0.780  74.557 118.934  0.00  0.00     0.109 C 
ATOM     16  O   LIG d   1      -2.563  74.263 117.343  0.00  0.00    -0.276 OA
ATOM     17  H   LIG d   1      -0.273  76.440 117.330  0.00  0.00     0.149 HD
ENDBRANCH   6  13
BRANCH   5  18
ATOM     18  N   LIG d   1      -0.022  75.578 114.171  0.00  0.00     0.381 N 
ATOM     19  H   LIG d   1      -0.665  74.811 114.163  0.00  0.00    -0.090 HD
ATOM     20  H   LIG d   1       0.728  75.354 114.802  0.00  0.00    -0.090 HD
ATOM     21  H   LIG d   1       0.338  75.729 113.255  0.00  0.00    -0.090 HD
ENDBRANCH   5  18
BRANCH   3  22
ATOM     22  C   LIG d   1      -2.403  79.525 112.871  0.00  0.00     0.382 C 
ATOM     23  O   LIG d   1      -1.839  79.447 111.753  0.00  0.00    -0.241 OA
ATOM     24  O   LIG d   1      -3.090  80.528 113.143  0.00  0.00    -0.241 OA
ENDBRANCH   3  22
TORSDOF 7
ENDMDL
MODEL 2
REMARK VINA RESULT:      -5.0      3.392      5.417
REMARK  7 active torsions:
REMARK  status: ('A' for Active; 'I' for Inactive)
REMARK    1  A    between atoms: C_2  and  C_3 
REMARK    2  A    between atoms: C_3  and  O_6 
REMARK    3  A    between atoms: C_3  and  C_4 
REMARK    4  A    between atoms: C_7  and  O_6 
REMARK    5  A    between atoms: C_9  and  C_10 
REMARK    6  A    between atoms: N_15  and  C_14 
REMARK    7  A    between atoms: N_20  and  C_19 
REMARK       I    between atoms: C_22  and  N_20 
ROOT
ATOM      1  C   LIG d   1      -6.300  78.344 117.345  0.00  0.00     0.161 C 
ATOM      2  C   LIG d   1      -5.100  78.777 116.756  0.00  0.00     0.016 C 
ATOM      3  C   LIG d   1      -4.168  77.901 116.155  0.00  0.00     0.038 C 
ATOM      4  C   LIG d   1      -4.445  76.539 115.965  0.00  0.00     0.028 C 
ATOM      5  C   LIG d   1      -5.419  75.971 116.992  0.00  0.00    -0.047 C 
ATOM      6  C   LIG d   1      -6.672  76.875 117.050  0.00  0.00     0.091 C 
ENDROOT
BRANCH   1   7
ATOM      7  O   LIG d   1      -7.377  79.220 116.960  0.00  0.00    -0.368 OA
BRANCH   7   8
ATOM      8  C   LIG d   1      -7.935  80.044 118.013  0.00  0.00     0.119 C 
BRANCH   8   9
ATOM      9  C   LIG d   1      -9.455  79.787 118.046  0.00  0.00     0.028 C 
ATOM     10  C   LIG d   1      -9.919  79.183 119.382  0.00  0.00     0.006 C 
ENDBRANCH   8   9
BRANCH   8  11
ATOM     11  C   LIG d   1      -7.783  81.535 117.695  0.00  0.00     0.028 C 
ATOM     12  C   LIG d   1      -7.405  82.372 118.927  0.00  0.00     0.006 C 
ENDBRANCH   8  11
ENDBRANCH   7   8
ENDBRANCH   1   7
BRANCH   6  13
ATOM     13  N   LIG d   1      -7.639  76.439 118.090  0.00  0.00    -0.311 N 
ATOM     14  C   LIG d   1      -8.683  75.651 117.836  0.00  0.00     0.210 C 
ATOM     15  C   LIG d   1      -9.566  75.338 119.047  0.00  0.00     0.109 C 
ATOM     16  O   LIG d   1      -8.943  75.156 116.729  0.00  0.00    -0.276 OA
ATOM     17  H   LIG d   1      -7.486  76.768 119.023  0.00  0.00     0.149 HD
ENDBRANCH   6  13
BRANCH   5  18
ATOM     18  N   LIG d   1      -5.726  74.583 116.596  0.00  0.00     0.381 N 
ATOM     19  H   LIG d   1      -6.706  74.410 116.701  0.00  0.00    -0.090 HD
ATOM     20  H   LIG d   1      -5.228  73.955 117.201  0.00  0.00    -0.090 HD
ATOM     21  H   LIG d   1      -5.454  74.431 115.650  0.00  0.00    -0.090 HD
ENDBRANCH   5  18
BRANCH   3  22
ATOM     22  C   LIG d   1      -2.924  78.379 115.770  0.00  0.00     0.382 C 
ATOM     23  O   LIG d   1      -2.828  79.165 114.797  0.00  0.00    -0.241 OA
ATOM     24  O   LIG d   1      -1.893  78.000 116.357  0.00  0.00    -0.241 OA
ENDBRANCH   3  22
TORSDOF 7
ENDMDL
MODEL 3
REMARK VINA RESULT:      -4.8      2.133      4.945
REMARK  7 active torsions:
REMARK  status: ('A' for Active; 'I' for Inactive)
REMARK    1  A    between atoms: C_2  and  C_3 
REMARK    2  A    between atoms: C_3  and  O_6 
REMARK    3  A    between atoms: C_3  and  C_4 
REMARK    4  A    between atoms: C_7  and  O_6 
REMARK    5  A    between atoms: C_9  and  C_10 
REMARK    6  A    between atoms: N_15  and  C_14 
REMARK    7  A    between atoms: N_20  and  C_19 
REMARK       I    between atoms: C_22  and  N_20 
ROOT
ATOM      1  C   LIG d   1      -1.285  75.489 115.308  0.00  0.00     0.161 C 
ATOM      2  C   LIG d   1      -0.907  75.127 116.612  0.00  0.00     0.016 C 
ATOM      3  C   LIG d   1      -0.291  76.019 117.520  0.00  0.00     0.038 C 
ATOM      4  C   LIG d   1      -0.147  77.385 117.234  0.00  0.00     0.028 C 
ATOM      5  C   LIG d   1      -0.053  77.685 115.741  0.00  0.00    -0.047 C 
ATOM      6  C   LIG d   1      -1.236  77.003 115.017  0.00  0.00     0.091 C 
ENDROOT
BRANCH   1   7
ATOM      7  O   LIG d   1      -2.595  74.964 115.015  0.00  0.00    -0.368 OA
BRANCH   7   8
ATOM      8  C   LIG d   1      -3.715  75.802 115.391  0.00  0.00     0.119 C 
BRANCH   8   9
ATOM      9  C   LIG d   1      -4.247  75.286 116.742  0.00  0.00     0.028 C 
ATOM     10  C   LIG d   1      -4.084  76.320 117.869  0.00  0.00     0.006 C 
ENDBRANCH   8   9
BRANCH   8  11
ATOM     11  C   LIG d   1      -4.882  75.645 114.410  0.00  0.00     0.028 C 
ATOM     12  C   LIG d   1      -6.234  76.040 115.024  0.00  0.00     0.006 C 
ENDBRANCH   8  11
ENDBRANCH   7   8
ENDBRANCH   1   7
BRANCH   6  13
ATOM     13  N   LIG d   1      -1.174  77.176 113.542  0.00  0.00    -0.311 N 
ATOM     14  C   LIG d   1      -2.028  77.933 112.856  0.00  0.00     0.210 C 
ATOM     15  C   LIG d   1      -1.798  77.958 111.342  0.00  0.00     0.109 C 
ATOM     16  O   LIG d   1      -2.935  78.613 113.362  0.00  0.00    -0.276 OA
ATOM     17  H   LIG d   1      -0.449  76.685 113.056  0.00  0.00     0.149 HD
ENDBRANCH   6  13
BRANCH   5  18
ATOM     18  N   LIG d   1      -0.045  79.151 115.581  0.00  0.00     0.381 N 
ATOM     19  H   LIG d   1      -0.705  79.565 116.209  0.00  0.00    -0.090 HD
ATOM     20  H   LIG d   1      -0.319  79.377 114.641  0.00  0.00    -0.090 HD
ATOM     21  H   LIG d   1       0.867  79.509 115.763  0.00  0.00    -0.090 HD
ENDBRANCH   5  18
BRANCH   3  22
ATOM     22  C   LIG d   1       0.224  75.538 118.713  0.00  0.00     0.382 C 
ATOM     23  O   LIG d   1       0.440  74.310 118.854  0.00  0.00    -0.241 OA
ATOM     24  O   LIG d   1       0.435  76.311 119.667  0.00  0.00    -0.241 OA
ENDBRANCH   3  22
TORSDOF 7
ENDMDL
MODEL 4
REMARK VINA RESULT:      -4.5      3.556      5.695
REMARK  7 active torsions:
REMARK  status: ('A' for Active; 'I' for Inactive)
REMARK    1  A    between atoms: C_2  and  C_3 
REMARK    2  A    between atoms: C_3  and  O_6 
REMARK    3  A    between atoms: C_3  and  C_4 
REMARK    4  A    between atoms: C_7  and  O_6 
REMARK    5  A    between atoms: C_9  and  C_10 
REMARK    6  A    between atoms: N_15  and  C_14 
REMARK    7  A    between atoms: N_20  and  C_19 
REMARK       I    between atoms: C_22  and  N_20 
ROOT
ATOM      1  C   LIG d   1      -6.731  77.966 117.457  0.00  0.00     0.161 C 
ATOM      2  C   LIG d   1      -7.776  78.895 117.325  0.00  0.00     0.016 C 
ATOM      3  C   LIG d   1      -7.802  80.139 117.997  0.00  0.00     0.038 C 
ATOM      4  C   LIG d   1      -6.703  80.606 118.733  0.00  0.00     0.028 C 
ATOM      5  C   LIG d   1      -5.836  79.488 119.304  0.00  0.00    -0.047 C 
ATOM      6  C   LIG d   1      -5.472  78.506 118.168  0.00  0.00     0.091 C 
ENDROOT
BRANCH   1   7
ATOM      7  O   LIG d   1      -6.385  77.433 116.163  0.00  0.00    -0.368 OA
BRANCH   7   8
ATOM      8  C   LIG d   1      -6.859  76.093 115.879  0.00  0.00     0.119 C 
BRANCH   8   9
ATOM      9  C   LIG d   1      -7.559  75.571 117.148  0.00  0.00     0.028 C 
ATOM     10  C   LIG d   1      -8.967  75.023 116.858  0.00  0.00     0.006 C 
ENDBRANCH   8   9
BRANCH   8  11
ATOM     11  C   LIG d   1      -5.693  75.131 115.633  0.00  0.00     0.028 C 
ATOM     12  C   LIG d   1      -4.833  75.532 114.424  0.00  0.00     0.006 C 
ENDBRANCH   8  11
ENDBRANCH   7   8
ENDBRANCH   1   7
BRANCH   6  13
ATOM     13  N   LIG d   1      -4.695  77.337 118.656  0.00  0.00    -0.311 N 
ATOM     14  C   LIG d   1      -3.589  76.892 118.063  0.00  0.00     0.210 C 
ATOM     15  C   LIG d   1      -2.954  75.661 118.718  0.00  0.00     0.109 C 
ATOM     16  O   LIG d   1      -3.055  77.419 117.076  0.00  0.00    -0.276 OA
ATOM     17  H   LIG d   1      -5.041  76.868 119.471  0.00  0.00     0.149 HD
ENDBRANCH   6  13
BRANCH   5  18
ATOM     18  N   LIG d   1      -4.656  80.114 119.928  0.00  0.00     0.381 N 
ATOM     19  H   LIG d   1      -4.729  80.057 120.924  0.00  0.00    -0.090 HD
ATOM     20  H   LIG d   1      -4.627  81.085 119.669  0.00  0.00    -0.090 HD
ATOM     21  H   LIG d   1      -3.825  79.657 119.622  0.00  0.00    -0.090 HD
ENDBRANCH   5  18
BRANCH   3  22
ATOM     22  C   LIG d   1      -8.952  80.912 117.968  0.00  0.00     0.382 C 
ATOM     23  O   LIG d   1     -10.060  80.379 117.718  0.00  0.00    -0.241 OA
ATOM     24  O   LIG d   1      -8.890  82.143 118.146  0.00  0.00    -0.241 OA
ENDBRANCH   3  22
TORSDOF 7
ENDMDL
MODEL 5
REMARK VINA RESULT:      -4.4      2.050      4.933
REMARK  7 active torsions:
REMARK  status: ('A' for Active; 'I' for Inactive)
REMARK    1  A    between atoms: C_2  and  C_3 
REMARK    2  A    between atoms: C_3  and  O_6 
REMARK    3  A    between atoms: C_3  and  C_4 
REMARK    4  A    between atoms: C_7  and  O_6 
REMARK    5  A    between atoms: C_9  and  C_10 
REMARK    6  A    between atoms: N_15  and  C_14 
REMARK    7  A    between atoms: N_20  and  C_19 
REMARK       I    between atoms: C_22  and  N_20 
ROOT
ATOM      1  C   LIG d   1      -3.323  76.850 115.678  0.00  0.00     0.161 C 
ATOM      2  C   LIG d   1      -3.196  76.618 117.057  0.00  0.00     0.016 C 
ATOM      3  C   LIG d   1      -2.114  77.100 117.830  0.00  0.00     0.038 C 
ATOM      4  C   LIG d   1      -1.158  77.979 117.301  0.00  0.00     0.028 C 
ATOM      5  C   LIG d   1      -0.967  77.832 115.796  0.00  0.00    -0.047 C 
ATOM      6  C   LIG d   1      -2.349  77.900 115.105  0.00  0.00     0.091 C 
ENDROOT
BRANCH   1   7
ATOM      7  O   LIG d   1      -4.684  77.207 115.366  0.00  0.00    -0.368 OA
BRANCH   7   8
ATOM      8  C   LIG d   1      -5.657  76.992 116.418  0.00  0.00     0.119 C 
BRANCH   8   9
ATOM      9  C   LIG d   1      -6.756  76.071 115.852  0.00  0.00     0.028 C 
ATOM     10  C   LIG d   1      -7.093  74.909 116.801  0.00  0.00     0.006 C 
ENDBRANCH   8   9
BRANCH   8  11
ATOM     11  C   LIG d   1      -6.371  78.294 116.792  0.00  0.00     0.028 C 
ATOM     12  C   LIG d   1      -5.458  79.284 117.531  0.00  0.00     0.006 C 
ENDBRANCH   8  11
ENDBRANCH   7   8
ENDBRANCH   1   7
BRANCH   6  13
ATOM     13  N   LIG d   1      -2.261  77.680 113.638  0.00  0.00    -0.311 N 
ATOM     14  C   LIG d   1      -2.153  78.670 112.754  0.00  0.00     0.210 C 
ATOM     15  C   LIG d   1      -2.097  78.225 111.289  0.00  0.00     0.109 C 
ATOM     16  O   LIG d   1      -2.065  79.873 113.045  0.00  0.00    -0.276 OA
ATOM     17  H   LIG d   1      -2.293  76.733 113.316  0.00  0.00     0.149 HD
ENDBRANCH   6  13
BRANCH   5  18
ATOM     18  N   LIG d   1      -0.048  78.899 115.356  0.00  0.00     0.381 N 
ATOM     19  H   LIG d   1      -0.321  79.770 115.764  0.00  0.00    -0.090 HD
ATOM     20  H   LIG d   1      -0.105  78.986 114.357  0.00  0.00    -0.090 HD
ATOM     21  H   LIG d   1       0.885  78.676 115.625  0.00  0.00    -0.090 HD
ENDBRANCH   5  18
BRANCH   3  22
ATOM     22  C   LIG d   1      -1.960  76.668 119.139  0.00  0.00     0.382 C 
ATOM     23  O   LIG d   1      -2.761  75.832 119.623  0.00  0.00    -0.241 OA
ATOM     24  O   LIG d   1      -1.056  77.138 119.856  0.00  0.00    -0.241 OA
ENDBRANCH   3  22
TORSDOF 7
ENDMDL
MODEL 6
REMARK VINA RESULT:      -4.4      1.623      2.210
REMARK  7 active torsions:
REMARK  status: ('A' for Active; 'I' for Inactive)
REMARK    1  A    between atoms: C_2  and  C_3 
REMARK    2  A    between atoms: C_3  and  O_6 
REMARK    3  A    between atoms: C_3  and  C_4 
REMARK    4  A    between atoms: C_7  and  O_6 
REMARK    5  A    between atoms: C_9  and  C_10 
REMARK    6  A    between atoms: N_15  and  C_14 
REMARK    7  A    between atoms: N_20  and  C_19 
REMARK       I    between atoms: C_22  and  N_20 
ROOT
ATOM      1  C   LIG d   1      -3.612  76.943 116.713  0.00  0.00     0.161 C 
ATOM      2  C   LIG d   1      -3.400  77.956 115.763  0.00  0.00     0.016 C 
ATOM      3  C   LIG d   1      -2.427  77.873 114.741  0.00  0.00     0.038 C 
ATOM      4  C   LIG d   1      -1.697  76.698 114.505  0.00  0.00     0.028 C 
ATOM      5  C   LIG d   1      -1.520  75.836 115.750  0.00  0.00    -0.047 C 
ATOM      6  C   LIG d   1      -2.902  75.608 116.404  0.00  0.00     0.091 C 
ENDROOT
BRANCH   1   7
ATOM      7  O   LIG d   1      -5.026  76.729 116.892  0.00  0.00    -0.368 OA
BRANCH   7   8
ATOM      8  C   LIG d   1      -5.591  75.592 116.195  0.00  0.00     0.119 C 
BRANCH   8   9
ATOM      9  C   LIG d   1      -6.168  76.106 114.861  0.00  0.00     0.028 C 
ATOM     10  C   LIG d   1      -5.351  75.633 113.647  0.00  0.00     0.006 C 
ENDBRANCH   8   9
BRANCH   8  11
ATOM     11  C   LIG d   1      -6.786  75.010 116.956  0.00  0.00     0.028 C 
ATOM     12  C   LIG d   1      -8.109  75.715 116.616  0.00  0.00     0.006 C 
ENDBRANCH   8  11
ENDBRANCH   7   8
ENDBRANCH   1   7
BRANCH   6  13
ATOM     13  N   LIG d   1      -2.809  74.844 117.675  0.00  0.00    -0.311 N 
ATOM     14  C   LIG d   1      -2.099  75.252 118.726  0.00  0.00     0.210 C 
ATOM     15  C   LIG d   1      -2.122  74.304 119.929  0.00  0.00     0.109 C 
ATOM     16  O   LIG d   1      -1.479  76.325 118.787  0.00  0.00    -0.276 OA
ATOM     17  H   LIG d   1      -3.306  73.977 117.724  0.00  0.00     0.149 HD
ENDBRANCH   6  13
BRANCH   5  18
ATOM     18  N   LIG d   1      -0.864  74.582 115.334  0.00  0.00     0.381 N 
ATOM     19  H   LIG d   1      -0.223  74.283 116.042  0.00  0.00    -0.090 HD
ATOM     20  H   LIG d   1      -0.345  74.751 114.490  0.00  0.00    -0.090 HD
ATOM     21  H   LIG d   1      -1.548  73.875 115.176  0.00  0.00    -0.090 HD
ENDBRANCH   5  18
BRANCH   3  22
ATOM     22  C   LIG d   1      -2.147  78.988 113.966  0.00  0.00     0.382 C 
ATOM     23  O   LIG d   1      -0.980  79.188 113.552  0.00  0.00    -0.241 OA
ATOM     24  O   LIG d   1      -3.039  79.821 113.712  0.00  0.00    -0.241 OA
ENDBRANCH   3  22
TORSDOF 7
ENDMDL
MODEL 7
REMARK VINA RESULT:      -4.2      1.509      2.129
REMARK  7 active torsions:
REMARK  status: ('A' for Active; 'I' for Inactive)
REMARK    1  A    between atoms: C_2  and  C_3 
REMARK    2  A    between atoms: C_3  and  O_6 
REMARK    3  A    between atoms: C_3  and  C_4 
REMARK    4  A    between atoms: C_7  and  O_6 
REMARK    5  A    between atoms: C_9  and  C_10 
REMARK    6  A    between atoms: N_15  and  C_14 
REMARK    7  A    between atoms: N_20  and  C_19 
REMARK       I    between atoms: C_22  and  N_20 
ROOT
ATOM      1  C   LIG d   1      -2.798  77.813 115.943  0.00  0.00     0.161 C 
ATOM      2  C   LIG d   1      -2.973  78.729 114.893  0.00  0.00     0.016 C 
ATOM      3  C   LIG d   1      -2.248  78.672 113.681  0.00  0.00     0.038 C 
ATOM      4  C   LIG d   1      -1.400  77.597 113.375  0.00  0.00     0.028 C 
ATOM      5  C   LIG d   1      -0.811  76.919 114.607  0.00  0.00    -0.047 C 
ATOM      6  C   LIG d   1      -1.958  76.569 115.583  0.00  0.00     0.091 C 
ENDROOT
BRANCH   1   7
ATOM      7  O   LIG d   1      -4.082  77.416 116.465  0.00  0.00    -0.368 OA
BRANCH   7   8
ATOM      8  C   LIG d   1      -4.663  78.293 117.462  0.00  0.00     0.119 C 
BRANCH   8   9
ATOM      9  C   LIG d   1      -4.791  77.487 118.769  0.00  0.00     0.028 C 
ATOM     10  C   LIG d   1      -3.755  77.910 119.823  0.00  0.00     0.006 C 
ENDBRANCH   8   9
BRANCH   8  11
ATOM     11  C   LIG d   1      -6.094  78.689 117.088  0.00  0.00     0.028 C 
ATOM     12  C   LIG d   1      -6.463  80.105 117.559  0.00  0.00     0.006 C 
ENDBRANCH   8  11
ENDBRANCH   7   8
ENDBRANCH   1   7
BRANCH   6  13
ATOM     13  N   LIG d   1      -1.461  75.979 116.853  0.00  0.00    -0.311 N 
ATOM     14  C   LIG d   1      -0.641  76.616 117.687  0.00  0.00     0.210 C 
ATOM     15  C   LIG d   1      -0.235  75.819 118.930  0.00  0.00     0.109 C 
ATOM     16  O   LIG d   1      -0.238  77.779 117.531  0.00  0.00    -0.276 OA
ATOM     17  H   LIG d   1      -1.764  75.050 117.074  0.00  0.00     0.149 HD
ENDBRANCH   6  13
BRANCH   5  18
ATOM     18  N   LIG d   1      -0.060  75.735 114.149  0.00  0.00     0.381 N 
ATOM     19  H   LIG d   1       0.489  75.972 113.348  0.00  0.00    -0.090 HD
ATOM     20  H   LIG d   1      -0.713  75.019 113.883  0.00  0.00    -0.090 HD
ATOM     21  H   LIG d   1       0.530  75.402 114.879  0.00  0.00    -0.090 HD
ENDBRANCH   5  18
BRANCH   3  22
ATOM     22  C   LIG d   1      -2.337  79.719 112.776  0.00  0.00     0.382 C 
ATOM     23  O   LIG d   1      -1.584  79.747 111.773  0.00  0.00    -0.241 OA
ATOM     24  O   LIG d   1      -3.130  80.659 112.975  0.00  0.00    -0.241 OA
ENDBRANCH   3  22
TORSDOF 7
ENDMDL
MODEL 8
REMARK VINA RESULT:      -4.0      2.939      5.321
REMARK  7 active torsions:
REMARK  status: ('A' for Active; 'I' for Inactive)
REMARK    1  A    between atoms: C_2  and  C_3 
REMARK    2  A    between atoms: C_3  and  O_6 
REMARK    3  A    between atoms: C_3  and  C_4 
REMARK    4  A    between atoms: C_7  and  O_6 
REMARK    5  A    between atoms: C_9  and  C_10 
REMARK    6  A    between atoms: N_15  and  C_14 
REMARK    7  A    between atoms: N_20  and  C_19 
REMARK       I    between atoms: C_22  and  N_20 
ROOT
ATOM      1  C   LIG d   1      -5.064  78.099 117.167  0.00  0.00     0.161 C 
ATOM      2  C   LIG d   1      -6.371  78.574 116.966  0.00  0.00     0.016 C 
ATOM      3  C   LIG d   1      -6.922  79.660 117.684  0.00  0.00     0.038 C 
ATOM      4  C   LIG d   1      -6.148  80.447 118.550  0.00  0.00     0.028 C 
ATOM      5  C   LIG d   1      -4.970  79.694 119.160  0.00  0.00    -0.047 C 
ATOM      6  C   LIG d   1      -4.168  79.014 118.027  0.00  0.00     0.091 C 
ENDROOT
BRANCH   1   7
ATOM      7  O   LIG d   1      -4.439  77.838 115.895  0.00  0.00    -0.368 OA
BRANCH   7   8
ATOM      8  C   LIG d   1      -4.273  76.443 115.540  0.00  0.00     0.119 C 
BRANCH   8   9
ATOM      9  C   LIG d   1      -4.522  75.609 116.812  0.00  0.00     0.028 C 
ATOM     10  C   LIG d   1      -3.271  74.836 117.262  0.00  0.00     0.006 C 
ENDBRANCH   8   9
BRANCH   8  11
ATOM     11  C   LIG d   1      -2.828  76.139 115.133  0.00  0.00     0.028 C 
ATOM     12  C   LIG d   1      -2.202  77.255 114.282  0.00  0.00     0.006 C 
ENDBRANCH   8  11
ENDBRANCH   7   8
ENDBRANCH   1   7
BRANCH   6  13
ATOM     13  N   LIG d   1      -3.047  78.187 118.544  0.00  0.00    -0.311 N 
ATOM     14  C   LIG d   1      -1.799  78.275 118.087  0.00  0.00     0.210 C 
ATOM     15  C   LIG d   1      -0.800  77.318 118.744  0.00  0.00     0.109 C 
ATOM     16  O   LIG d   1      -1.418  79.078 117.221  0.00  0.00    -0.276 OA
ATOM     17  H   LIG d   1      -3.260  77.531 119.270  0.00  0.00     0.149 HD
ENDBRANCH   6  13
BRANCH   5  18
ATOM     18  N   LIG d   1      -4.171  80.667 119.930  0.00  0.00     0.381 N 
ATOM     19  H   LIG d   1      -4.267  80.484 120.909  0.00  0.00    -0.090 HD
ATOM     20  H   LIG d   1      -4.518  81.591 119.746  0.00  0.00    -0.090 HD
ATOM     21  H   LIG d   1      -3.212  80.606 119.666  0.00  0.00    -0.090 HD
ENDBRANCH   5  18
BRANCH   3  22
ATOM     22  C   LIG d   1      -8.275  79.945 117.568  0.00  0.00     0.382 C 
ATOM     23  O   LIG d   1      -9.124  79.170 118.071  0.00  0.00    -0.241 OA
ATOM     24  O   LIG d   1      -8.658  80.943 116.930  0.00  0.00    -0.241 OA
ENDBRANCH   3  22
TORSDOF 7
ENDMDL
MODEL 9
REMARK VINA RESULT:      -4.0      2.515      4.661
REMARK  7 active torsions:
REMARK  status: ('A' for Active; 'I' for Inactive)
REMARK    1  A    between atoms: C_2  and  C_3 
REMARK    2  A    between atoms: C_3  and  O_6 
REMARK    3  A    between atoms: C_3  and  C_4 
REMARK    4  A    between atoms: C_7  and  O_6 
REMARK    5  A    between atoms: C_9  and  C_10 
REMARK    6  A    between atoms: N_15  and  C_14 
REMARK    7  A    between atoms: N_20  and  C_19 
REMARK       I    between atoms: C_22  and  N_20 
ROOT
ATOM      1  C   LIG d   1      -3.711  75.538 116.716  0.00  0.00     0.161 C 
ATOM      2  C   LIG d   1      -4.930  76.163 116.406  0.00  0.00     0.016 C 
ATOM      3  C   LIG d   1      -5.500  77.191 117.192  0.00  0.00     0.038 C 
ATOM      4  C   LIG d   1      -4.809  77.772 118.266  0.00  0.00     0.028 C 
ATOM      5  C   LIG d   1      -3.801  76.831 118.918  0.00  0.00    -0.047 C 
ATOM      6  C   LIG d   1      -2.890  76.234 117.821  0.00  0.00     0.091 C 
ENDROOT
BRANCH   1   7
ATOM      7  O   LIG d   1      -2.919  75.391 115.521  0.00  0.00    -0.368 OA
BRANCH   7   8
ATOM      8  C   LIG d   1      -1.959  76.444 115.259  0.00  0.00     0.119 C 
BRANCH   8   9
ATOM      9  C   LIG d   1      -2.480  77.256 114.057  0.00  0.00     0.028 C 
ATOM     10  C   LIG d   1      -1.415  78.209 113.487  0.00  0.00     0.006 C 
ENDBRANCH   8   9
BRANCH   8  11
ATOM     11  C   LIG d   1      -0.613  75.871 114.808  0.00  0.00     0.028 C 
ATOM     12  C   LIG d   1      -0.472  74.371 115.110  0.00  0.00     0.006 C 
ENDBRANCH   8  11
ENDBRANCH   7   8
ENDBRANCH   1   7
BRANCH   6  13
ATOM     13  N   LIG d   1      -1.929  75.239 118.363  0.00  0.00    -0.311 N 
ATOM     14  C   LIG d   1      -0.676  75.538 118.701  0.00  0.00     0.210 C 
ATOM     15  C   LIG d   1       0.153  74.358 119.220  0.00  0.00     0.109 C 
ATOM     16  O   LIG d   1      -0.182  76.674 118.651  0.00  0.00    -0.276 OA
ATOM     17  H   LIG d   1      -2.256  74.298 118.466  0.00  0.00     0.149 HD
ENDBRANCH   6  13
BRANCH   5  18
ATOM     18  N   LIG d   1      -3.058  77.606 119.929  0.00  0.00     0.381 N 
ATOM     19  H   LIG d   1      -3.407  78.543 119.962  0.00  0.00    -0.090 HD
ATOM     20  H   LIG d   1      -2.089  77.641 119.665  0.00  0.00    -0.090 HD
ATOM     21  H   LIG d   1      -3.150  77.178 120.824  0.00  0.00    -0.090 HD
ENDBRANCH   5  18
BRANCH   3  22
ATOM     22  C   LIG d   1      -6.792  77.621 116.930  0.00  0.00     0.382 C 
ATOM     23  O   LIG d   1      -7.683  76.787 116.639  0.00  0.00    -0.241 OA
ATOM     24  O   LIG d   1      -7.067  78.835 116.937  0.00  0.00    -0.241 OA
ENDBRANCH   3  22
TORSDOF 7
ENDMDL
