MODEL 1
REMARK VINA RESULT:      -5.1      0.000      0.000
REMARK  7 active torsions:
REMARK  status: ('A' for Active; 'I' for Inactive)
REMARK    1  A    between atoms: C_2  and  C_3 
REMARK    2  A    between atoms: C_3  and  O_6 
REMARK    3  A    between atoms: C_3  and  C_4 
REMARK    4  A    between atoms: C_7  and  O_6 
REMARK    5  A    between atoms: C_9  and  C_10 
REMARK    6  A    between atoms: N_15  and  C_14 
REMARK    7  A    between atoms: N_20  and  C_19 
REMARK       I    between atoms: C_22  and  N_20 
ROOT
ATOM      1  C   LIG d   1      -6.085  77.333 117.476  0.00  0.00     0.161 C 
ATOM      2  C   LIG d   1      -6.768  78.554 117.595  0.00  0.00     0.016 C 
ATOM      3  C   LIG d   1      -6.123  79.812 117.580  0.00  0.00     0.038 C 
ATOM      4  C   LIG d   1      -4.756  79.940 117.291  0.00  0.00     0.028 C 
ATOM      5  C   LIG d   1      -3.940  78.708 117.664  0.00  0.00    -0.047 C 
ATOM      6  C   LIG d   1      -4.608  77.458 117.048  0.00  0.00     0.091 C 
ENDROOT
BRANCH   1   7
ATOM      7  O   LIG d   1      -6.796  76.461 116.574  0.00  0.00    -0.368 OA
BRANCH   7   8
ATOM      8  C   LIG d   1      -6.956  75.089 117.009  0.00  0.00     0.119 C 
BRANCH   8   9
ATOM      9  C   LIG d   1      -6.466  74.180 115.864  0.00  0.00     0.028 C 
ATOM     10  C   LIG d   1      -5.956  74.983 114.655  0.00  0.00     0.006 C 
ENDBRANCH   8   9
BRANCH   8  11
ATOM     11  C   LIG d   1      -8.434  74.734 117.203  0.00  0.00     0.028 C 
ATOM     12  C   LIG d   1      -9.357  75.960 117.114  0.00  0.00     0.006 C 
ENDBRANCH   8  11
ENDBRANCH   7   8
ENDBRANCH   1   7
BRANCH   6  13
ATOM     13  N   LIG d   1      -3.919  76.198 117.435  0.00  0.00    -0.311 N 
ATOM     14  C   LIG d   1      -3.026  75.584 116.662  0.00  0.00     0.210 C 
ATOM     15  C   LIG d   1      -2.451  74.288 117.242  0.00  0.00     0.109 C 
ATOM     16  O   LIG d   1      -2.630  76.007 115.565  0.00  0.00    -0.276 OA
ATOM     17  H   LIG d   1      -4.158  75.803 118.323  0.00  0.00     0.149 HD
ENDBRANCH   6  13
BRANCH   5  18
ATOM     18  N   LIG d   1      -2.562  78.924 117.183  0.00  0.00     0.381 N 
ATOM     19  H   LIG d   1      -2.041  79.437 117.866  0.00  0.00    -0.090 HD
ATOM     20  H   LIG d   1      -2.594  79.466 116.337  0.00  0.00    -0.090 HD
ATOM     21  H   LIG d   1      -2.121  78.048 117.008  0.00  0.00    -0.090 HD
ENDBRANCH   5  18
BRANCH   3  22
ATOM     22  C   LIG d   1      -6.839  80.956 117.896  0.00  0.00     0.382 C 
ATOM     23  O   LIG d   1      -6.861  81.376 119.078  0.00  0.00    -0.241 OA
ATOM     24  O   LIG d   1      -7.501  81.548 117.023  0.00  0.00    -0.241 OA
ENDBRANCH   3  22
TORSDOF 7
ENDMDL
MODEL 2
REMARK VINA RESULT:      -5.1      2.111      3.435
REMARK  7 active torsions:
REMARK  status: ('A' for Active; 'I' for Inactive)
REMARK    1  A    between atoms: C_2  and  C_3 
REMARK    2  A    between atoms: C_3  and  O_6 
REMARK    3  A    between atoms: C_3  and  C_4 
REMARK    4  A    between atoms: C_7  and  O_6 
REMARK    5  A    between atoms: C_9  and  C_10 
REMARK    6  A    between atoms: N_15  and  C_14 
REMARK    7  A    between atoms: N_20  and  C_19 
REMARK       I    between atoms: C_22  and  N_20 
ROOT
ATOM      1  C   LIG d   1      -5.921  77.579 116.778  0.00  0.00     0.161 C 
ATOM      2  C   LIG d   1      -7.293  77.413 117.032  0.00  0.00     0.016 C 
ATOM      3  C   LIG d   1      -8.078  78.367 117.721  0.00  0.00     0.038 C 
ATOM      4  C   LIG d   1      -7.573  79.627 118.073  0.00  0.00     0.028 C 
ATOM      5  C   LIG d   1      -6.063  79.637 118.286  0.00  0.00    -0.047 C 
ATOM      6  C   LIG d   1      -5.379  78.997 117.057  0.00  0.00     0.091 C 
ENDROOT
BRANCH   1   7
ATOM      7  O   LIG d   1      -5.624  77.187 115.424  0.00  0.00    -0.368 OA
BRANCH   7   8
ATOM      8  C   LIG d   1      -4.888  75.948 115.266  0.00  0.00     0.119 C 
BRANCH   8   9
ATOM      9  C   LIG d   1      -5.882  74.879 114.775  0.00  0.00     0.028 C 
ATOM     10  C   LIG d   1      -6.613  74.180 115.933  0.00  0.00     0.006 C 
ENDBRANCH   8   9
BRANCH   8  11
ATOM     11  C   LIG d   1      -4.370  75.433 116.612  0.00  0.00     0.028 C 
ATOM     12  C   LIG d   1      -2.844  75.245 116.631  0.00  0.00     0.006 C 
ENDBRANCH   8  11
ENDBRANCH   7   8
ENDBRANCH   1   7
BRANCH   6  13
ATOM     13  N   LIG d   1      -3.905  78.890 117.220  0.00  0.00    -0.311 N 
ATOM     14  C   LIG d   1      -3.040  79.126 116.236  0.00  0.00     0.210 C 
ATOM     15  C   LIG d   1      -1.566  78.940 116.612  0.00  0.00     0.109 C 
ATOM     16  O   LIG d   1      -3.351  79.504 115.096  0.00  0.00    -0.276 OA
ATOM     17  H   LIG d   1      -3.564  78.620 118.122  0.00  0.00     0.149 HD
ENDBRANCH   6  13
BRANCH   5  18
ATOM     18  N   LIG d   1      -5.654  81.036 118.512  0.00  0.00     0.381 N 
ATOM     19  H   LIG d   1      -5.623  81.226 119.494  0.00  0.00    -0.090 HD
ATOM     20  H   LIG d   1      -6.336  81.646 118.095  0.00  0.00    -0.090 HD
ATOM     21  H   LIG d   1      -4.759  81.200 118.106  0.00  0.00    -0.090 HD
ENDBRANCH   5  18
BRANCH   3  22
ATOM     22  C   LIG d   1      -9.372  78.046 118.100  0.00  0.00     0.382 C 
ATOM     23  O   LIG d   1      -9.874  76.950 117.751  0.00  0.00    -0.241 OA
ATOM     24  O   LIG d   1     -10.060  78.857 118.749  0.00  0.00    -0.241 OA
ENDBRANCH   3  22
TORSDOF 7
ENDMDL
MODEL 3
REMARK VINA RESULT:      -5.0      1.260      2.064
REMARK  7 active torsions:
REMARK  status: ('A' for Active; 'I' for Inactive)
REMARK    1  A    between atoms: C_2  and  C_3 
REMARK    2  A    between atoms: C_3  and  O_6 
REMARK    3  A    between atoms: C_3  and  C_4 
REMARK    4  A    between atoms: C_7  and  O_6 
REMARK    5  A    between atoms: C_9  and  C_10 
REMARK    6  A    between atoms: N_15  and  C_14 
REMARK    7  A    between atoms: N_20  and  C_19 
REMARK       I    between atoms: C_22  and  N_20 
ROOT
ATOM      1  C   LIG d   1      -6.310  76.602 118.752  0.00  0.00     0.161 C 
ATOM      2  C   LIG d   1      -7.198  77.668 118.537  0.00  0.00     0.016 C 
ATOM      3  C   LIG d   1      -6.833  78.866 117.880  0.00  0.00     0.038 C 
ATOM      4  C   LIG d   1      -5.587  79.018 117.254  0.00  0.00     0.028 C 
ATOM      5  C   LIG d   1      -4.487  78.167 117.881  0.00  0.00    -0.047 C 
ATOM      6  C   LIG d   1      -4.978  76.705 117.978  0.00  0.00     0.091 C 
ENDROOT
BRANCH   1   7
ATOM      7  O   LIG d   1      -6.965  75.353 118.457  0.00  0.00    -0.368 OA
BRANCH   7   8
ATOM      8  C   LIG d   1      -7.494  75.212 117.115  0.00  0.00     0.119 C 
BRANCH   8   9
ATOM      9  C   LIG d   1      -8.912  74.621 117.236  0.00  0.00     0.028 C 
ATOM     10  C   LIG d   1     -10.003  75.705 117.218  0.00  0.00     0.006 C 
ENDBRANCH   8   9
BRANCH   8  11
ATOM     11  C   LIG d   1      -6.695  74.185 116.306  0.00  0.00     0.028 C 
ATOM     12  C   LIG d   1      -5.984  74.806 115.093  0.00  0.00     0.006 C 
ENDBRANCH   8  11
ENDBRANCH   7   8
ENDBRANCH   1   7
BRANCH   6  13
ATOM     13  N   LIG d   1      -3.995  75.821 118.657  0.00  0.00    -0.311 N 
ATOM     14  C   LIG d   1      -3.093  75.090 118.004  0.00  0.00     0.210 C 
ATOM     15  C   LIG d   1      -2.188  74.233 118.894  0.00  0.00     0.109 C 
ATOM     16  O   LIG d   1      -2.936  75.094 116.774  0.00  0.00    -0.276 OA
ATOM     17  H   LIG d   1      -4.031  75.781 119.657  0.00  0.00     0.149 HD
ENDBRANCH   6  13
BRANCH   5  18
ATOM     18  N   LIG d   1      -3.279  78.317 117.048  0.00  0.00     0.381 N 
ATOM     19  H   LIG d   1      -2.472  78.396 117.633  0.00  0.00    -0.090 HD
ATOM     20  H   LIG d   1      -3.360  79.159 116.506  0.00  0.00    -0.090 HD
ATOM     21  H   LIG d   1      -3.183  77.532 116.442  0.00  0.00    -0.090 HD
ENDBRANCH   5  18
BRANCH   3  22
ATOM     22  C   LIG d   1      -7.707  79.943 117.878  0.00  0.00     0.382 C 
ATOM     23  O   LIG d   1      -8.803  79.862 118.483  0.00  0.00    -0.241 OA
ATOM     24  O   LIG d   1      -7.432  80.978 117.243  0.00  0.00    -0.241 OA
ENDBRANCH   3  22
TORSDOF 7
ENDMDL
MODEL 4
REMARK VINA RESULT:      -4.9      2.366      5.841
REMARK  7 active torsions:
REMARK  status: ('A' for Active; 'I' for Inactive)
REMARK    1  A    between atoms: C_2  and  C_3 
REMARK    2  A    between atoms: C_3  and  O_6 
REMARK    3  A    between atoms: C_3  and  C_4 
REMARK    4  A    between atoms: C_7  and  O_6 
REMARK    5  A    between atoms: C_9  and  C_10 
REMARK    6  A    between atoms: N_15  and  C_14 
REMARK    7  A    between atoms: N_20  and  C_19 
REMARK       I    between atoms: C_22  and  N_20 
ROOT
ATOM      1  C   LIG d   1      -6.003  78.134 117.288  0.00  0.00     0.161 C 
ATOM      2  C   LIG d   1      -6.258  76.807 116.904  0.00  0.00     0.016 C 
ATOM      3  C   LIG d   1      -7.526  76.192 117.024  0.00  0.00     0.038 C 
ATOM      4  C   LIG d   1      -8.668  76.915 117.399  0.00  0.00     0.028 C 
ATOM      5  C   LIG d   1      -8.359  78.123 118.277  0.00  0.00    -0.047 C 
ATOM      6  C   LIG d   1      -7.262  78.972 117.595  0.00  0.00     0.091 C 
ENDROOT
BRANCH   1   7
ATOM      7  O   LIG d   1      -5.199  78.787 116.286  0.00  0.00    -0.368 OA
BRANCH   7   8
ATOM      8  C   LIG d   1      -3.956  79.371 116.747  0.00  0.00     0.119 C 
BRANCH   8   9
ATOM      9  C   LIG d   1      -2.852  78.952 115.758  0.00  0.00     0.028 C 
ATOM     10  C   LIG d   1      -2.822  77.432 115.522  0.00  0.00     0.006 C 
ENDBRANCH   8   9
BRANCH   8  11
ATOM     11  C   LIG d   1      -3.534  78.788 118.099  0.00  0.00     0.028 C 
ATOM     12  C   LIG d   1      -3.237  79.870 119.149  0.00  0.00     0.006 C 
ENDBRANCH   8  11
ENDBRANCH   7   8
ENDBRANCH   1   7
BRANCH   6  13
ATOM     13  N   LIG d   1      -6.841  80.129 118.427  0.00  0.00    -0.311 N 
ATOM     14  C   LIG d   1      -6.898  81.392 118.010  0.00  0.00     0.210 C 
ATOM     15  C   LIG d   1      -6.396  82.430 119.018  0.00  0.00     0.109 C 
ATOM     16  O   LIG d   1      -7.347  81.754 116.912  0.00  0.00    -0.276 OA
ATOM     17  H   LIG d   1      -6.493  79.928 119.344  0.00  0.00     0.149 HD
ENDBRANCH   6  13
BRANCH   5  18
ATOM     18  N   LIG d   1      -9.620  78.862 118.478  0.00  0.00     0.381 N 
ATOM     19  H   LIG d   1      -9.423  79.825 118.662  0.00  0.00    -0.090 HD
ATOM     20  H   LIG d   1     -10.098  78.480 119.275  0.00  0.00    -0.090 HD
ATOM     21  H   LIG d   1     -10.195  78.782 117.668  0.00  0.00    -0.090 HD
ENDBRANCH   5  18
BRANCH   3  22
ATOM     22  C   LIG d   1      -7.652  74.829 116.806  0.00  0.00     0.382 C 
ATOM     23  O   LIG d   1      -8.697  74.231 117.158  0.00  0.00    -0.241 OA
ATOM     24  O   LIG d   1      -6.715  74.180 116.303  0.00  0.00    -0.241 OA
ENDBRANCH   3  22
TORSDOF 7
ENDMDL
MODEL 5
REMARK VINA RESULT:      -4.8      2.760      6.168
REMARK  7 active torsions:
REMARK  status: ('A' for Active; 'I' for Inactive)
REMARK    1  A    between atoms: C_2  and  C_3 
REMARK    2  A    between atoms: C_3  and  O_6 
REMARK    3  A    between atoms: C_3  and  C_4 
REMARK    4  A    between atoms: C_7  and  O_6 
REMARK    5  A    between atoms: C_9  and  C_10 
REMARK    6  A    between atoms: N_15  and  C_14 
REMARK    7  A    between atoms: N_20  and  C_19 
REMARK       I    between atoms: C_22  and  N_20 
ROOT
ATOM      1  C   LIG d   1      -4.404  78.283 116.556  0.00  0.00     0.161 C 
ATOM      2  C   LIG d   1      -4.453  77.009 115.965  0.00  0.00     0.016 C 
ATOM      3  C   LIG d   1      -5.626  76.221 115.911  0.00  0.00     0.038 C 
ATOM      4  C   LIG d   1      -6.873  76.720 116.314  0.00  0.00     0.028 C 
ATOM      5  C   LIG d   1      -6.776  77.807 117.378  0.00  0.00    -0.047 C 
ATOM      6  C   LIG d   1      -5.780  78.889 116.901  0.00  0.00     0.091 C 
ENDROOT
BRANCH   1   7
ATOM      7  O   LIG d   1      -3.656  79.183 115.715  0.00  0.00    -0.368 OA
BRANCH   7   8
ATOM      8  C   LIG d   1      -2.553  78.600 114.978  0.00  0.00     0.119 C 
BRANCH   8   9
ATOM      9  C   LIG d   1      -1.248  79.084 115.640  0.00  0.00     0.028 C 
ATOM     10  C   LIG d   1      -0.473  77.940 116.315  0.00  0.00     0.006 C 
ENDBRANCH   8   9
BRANCH   8  11
ATOM     11  C   LIG d   1      -2.500  79.129 113.542  0.00  0.00     0.028 C 
ATOM     12  C   LIG d   1      -1.164  79.811 113.207  0.00  0.00     0.006 C 
ENDBRANCH   8  11
ENDBRANCH   7   8
ENDBRANCH   1   7
BRANCH   6  13
ATOM     13  N   LIG d   1      -5.562  79.948 117.921  0.00  0.00    -0.311 N 
ATOM     14  C   LIG d   1      -6.264  81.079 117.965  0.00  0.00     0.210 C 
ATOM     15  C   LIG d   1      -5.865  82.045 119.085  0.00  0.00     0.109 C 
ATOM     16  O   LIG d   1      -7.202  81.359 117.204  0.00  0.00    -0.276 OA
ATOM     17  H   LIG d   1      -4.841  79.789 118.597  0.00  0.00     0.149 HD
ENDBRANCH   6  13
BRANCH   5  18
ATOM     18  N   LIG d   1      -8.135  78.333 117.605  0.00  0.00     0.381 N 
ATOM     19  H   LIG d   1      -8.478  78.759 116.767  0.00  0.00    -0.090 HD
ATOM     20  H   LIG d   1      -8.097  79.035 118.323  0.00  0.00    -0.090 HD
ATOM     21  H   LIG d   1      -8.744  77.595 117.883  0.00  0.00    -0.090 HD
ENDBRANCH   5  18
BRANCH   3  22
ATOM     22  C   LIG d   1      -5.549  74.903 115.487  0.00  0.00     0.382 C 
ATOM     23  O   LIG d   1      -4.453  74.433 115.095  0.00  0.00    -0.241 OA
ATOM     24  O   LIG d   1      -6.570  74.192 115.448  0.00  0.00    -0.241 OA
ENDBRANCH   3  22
TORSDOF 7
ENDMDL
MODEL 6
REMARK VINA RESULT:      -4.7      1.972      4.948
REMARK  7 active torsions:
REMARK  status: ('A' for Active; 'I' for Inactive)
REMARK    1  A    between atoms: C_2  and  C_3 
REMARK    2  A    between atoms: C_3  and  O_6 
REMARK    3  A    between atoms: C_3  and  C_4 
REMARK    4  A    between atoms: C_7  and  O_6 
REMARK    5  A    between atoms: C_9  and  C_10 
REMARK    6  A    between atoms: N_15  and  C_14 
REMARK    7  A    between atoms: N_20  and  C_19 
REMARK       I    between atoms: C_22  and  N_20 
ROOT
ATOM      1  C   LIG d   1      -6.668  78.310 117.585  0.00  0.00     0.161 C 
ATOM      2  C   LIG d   1      -6.298  77.383 116.597  0.00  0.00     0.016 C 
ATOM      3  C   LIG d   1      -4.954  77.078 116.280  0.00  0.00     0.038 C 
ATOM      4  C   LIG d   1      -3.883  77.571 117.040  0.00  0.00     0.028 C 
ATOM      5  C   LIG d   1      -4.186  78.901 117.722  0.00  0.00    -0.047 C 
ATOM      6  C   LIG d   1      -5.516  78.775 118.500  0.00  0.00     0.091 C 
ENDROOT
BRANCH   1   7
ATOM      7  O   LIG d   1      -7.750  77.777 118.374  0.00  0.00    -0.368 OA
BRANCH   7   8
ATOM      8  C   LIG d   1      -9.087  78.140 117.951  0.00  0.00     0.119 C 
BRANCH   8   9
ATOM      9  C   LIG d   1      -9.601  79.224 118.919  0.00  0.00     0.028 C 
ATOM     10  C   LIG d   1      -9.774  80.589 118.232  0.00  0.00     0.006 C 
ENDBRANCH   8   9
BRANCH   8  11
ATOM     11  C   LIG d   1     -10.059  76.966 118.104  0.00  0.00     0.028 C 
ATOM     12  C   LIG d   1      -9.697  75.772 117.206  0.00  0.00     0.006 C 
ENDBRANCH   8  11
ENDBRANCH   7   8
ENDBRANCH   1   7
BRANCH   6  13
ATOM     13  N   LIG d   1      -5.929  80.057 119.128  0.00  0.00    -0.311 N 
ATOM     14  C   LIG d   1      -6.205  81.158 118.432  0.00  0.00     0.210 C 
ATOM     15  C   LIG d   1      -6.593  82.376 119.276  0.00  0.00     0.109 C 
ATOM     16  O   LIG d   1      -6.198  81.233 117.194  0.00  0.00    -0.276 OA
ATOM     17  H   LIG d   1      -5.992  80.076 120.127  0.00  0.00     0.149 HD
ENDBRANCH   6  13
BRANCH   5  18
ATOM     18  N   LIG d   1      -3.038  79.230 118.588  0.00  0.00     0.381 N 
ATOM     19  H   LIG d   1      -3.170  80.133 118.997  0.00  0.00    -0.090 HD
ATOM     20  H   LIG d   1      -2.205  79.256 118.027  0.00  0.00    -0.090 HD
ATOM     21  H   LIG d   1      -2.944  78.544 119.304  0.00  0.00    -0.090 HD
ENDBRANCH   5  18
BRANCH   3  22
ATOM     22  C   LIG d   1      -4.669  76.302 115.167  0.00  0.00     0.382 C 
ATOM     23  O   LIG d   1      -4.559  75.057 115.282  0.00  0.00    -0.241 OA
ATOM     24  O   LIG d   1      -4.478  76.835 114.057  0.00  0.00    -0.241 OA
ENDBRANCH   3  22
TORSDOF 7
ENDMDL
MODEL 7
REMARK VINA RESULT:      -4.7      3.177      4.288
REMARK  7 active torsions:
REMARK  status: ('A' for Active; 'I' for Inactive)
REMARK    1  A    between atoms: C_2  and  C_3 
REMARK    2  A    between atoms: C_3  and  O_6 
REMARK    3  A    between atoms: C_3  and  C_4 
REMARK    4  A    between atoms: C_7  and  O_6 
REMARK    5  A    between atoms: C_9  and  C_10 
REMARK    6  A    between atoms: N_15  and  C_14 
REMARK    7  A    between atoms: N_20  and  C_19 
REMARK       I    between atoms: C_22  and  N_20 
ROOT
ATOM      1  C   LIG d   1      -3.063  77.574 115.379  0.00  0.00     0.161 C 
ATOM      2  C   LIG d   1      -3.121  78.363 114.218  0.00  0.00     0.016 C 
ATOM      3  C   LIG d   1      -2.092  79.252 113.830  0.00  0.00     0.038 C 
ATOM      4  C   LIG d   1      -0.862  79.301 114.502  0.00  0.00     0.028 C 
ATOM      5  C   LIG d   1      -0.956  78.893 115.968  0.00  0.00    -0.047 C 
ATOM      6  C   LIG d   1      -1.681  77.532 116.065  0.00  0.00     0.091 C 
ENDROOT
BRANCH   1   7
ATOM      7  O   LIG d   1      -3.517  76.238 115.085  0.00  0.00    -0.368 OA
BRANCH   7   8
ATOM      8  C   LIG d   1      -4.562  75.717 115.943  0.00  0.00     0.119 C 
BRANCH   8   9
ATOM      9  C   LIG d   1      -5.548  74.937 115.050  0.00  0.00     0.028 C 
ATOM     10  C   LIG d   1      -6.607  74.180 115.868  0.00  0.00     0.006 C 
ENDBRANCH   8   9
BRANCH   8  11
ATOM     11  C   LIG d   1      -5.387  76.847 116.566  0.00  0.00     0.028 C 
ATOM     12  C   LIG d   1      -5.438  76.770 118.100  0.00  0.00     0.006 C 
ENDBRANCH   8  11
ENDBRANCH   7   8
ENDBRANCH   1   7
BRANCH   6  13
ATOM     13  N   LIG d   1      -1.890  77.099 117.471  0.00  0.00    -0.311 N 
ATOM     14  C   LIG d   1      -1.435  75.947 117.959  0.00  0.00     0.210 C 
ATOM     15  C   LIG d   1      -1.778  75.686 119.429  0.00  0.00     0.109 C 
ATOM     16  O   LIG d   1      -0.751  75.130 117.323  0.00  0.00    -0.276 OA
ATOM     17  H   LIG d   1      -2.408  77.716 118.066  0.00  0.00     0.149 HD
ENDBRANCH   6  13
BRANCH   5  18
ATOM     18  N   LIG d   1       0.416  78.857 116.509  0.00  0.00     0.381 N 
ATOM     19  H   LIG d   1       0.791  77.934 116.421  0.00  0.00    -0.090 HD
ATOM     20  H   LIG d   1       0.387  79.093 117.486  0.00  0.00    -0.090 HD
ATOM     21  H   LIG d   1       0.993  79.506 116.020  0.00  0.00    -0.090 HD
ENDBRANCH   5  18
BRANCH   3  22
ATOM     22  C   LIG d   1      -2.306  80.134 112.781  0.00  0.00     0.382 C 
ATOM     23  O   LIG d   1      -3.355  80.821 112.744  0.00  0.00    -0.241 OA
ATOM     24  O   LIG d   1      -1.483  80.218 111.850  0.00  0.00    -0.241 OA
ENDBRANCH   3  22
TORSDOF 7
ENDMDL
MODEL 8
REMARK VINA RESULT:      -4.7      1.852      4.711
REMARK  7 active torsions:
REMARK  status: ('A' for Active; 'I' for Inactive)
REMARK    1  A    between atoms: C_2  and  C_3 
REMARK    2  A    between atoms: C_3  and  O_6 
REMARK    3  A    between atoms: C_3  and  C_4 
REMARK    4  A    between atoms: C_7  and  O_6 
REMARK    5  A    between atoms: C_9  and  C_10 
REMARK    6  A    between atoms: N_15  and  C_14 
REMARK    7  A    between atoms: N_20  and  C_19 
REMARK       I    between atoms: C_22  and  N_20 
ROOT
ATOM      1  C   LIG d   1      -6.935  77.501 117.185  0.00  0.00     0.161 C 
ATOM      2  C   LIG d   1      -5.993  76.907 116.328  0.00  0.00     0.016 C 
ATOM      3  C   LIG d   1      -4.669  77.380 116.180  0.00  0.00     0.038 C 
ATOM      4  C   LIG d   1      -4.148  78.393 116.997  0.00  0.00     0.028 C 
ATOM      5  C   LIG d   1      -5.209  79.355 117.521  0.00  0.00    -0.047 C 
ATOM      6  C   LIG d   1      -6.351  78.539 118.167  0.00  0.00     0.091 C 
ENDROOT
BRANCH   1   7
ATOM      7  O   LIG d   1      -7.654  76.480 117.904  0.00  0.00    -0.368 OA
BRANCH   7   8
ATOM      8  C   LIG d   1      -7.575  75.140 117.358  0.00  0.00     0.119 C 
BRANCH   8   9
ATOM      9  C   LIG d   1      -9.017  74.614 117.215  0.00  0.00     0.028 C 
ATOM     10  C   LIG d   1     -10.056  75.747 117.189  0.00  0.00     0.006 C 
ENDBRANCH   8   9
BRANCH   8  11
ATOM     11  C   LIG d   1      -6.888  74.180 118.332  0.00  0.00     0.028 C 
ATOM     12  C   LIG d   1      -6.000  74.905 119.356  0.00  0.00     0.006 C 
ENDBRANCH   8  11
ENDBRANCH   7   8
ENDBRANCH   1   7
BRANCH   6  13
ATOM     13  N   LIG d   1      -7.471  79.399 118.629  0.00  0.00    -0.311 N 
ATOM     14  C   LIG d   1      -7.835  80.523 118.014  0.00  0.00     0.210 C 
ATOM     15  C   LIG d   1      -9.002  81.270 118.668  0.00  0.00     0.109 C 
ATOM     16  O   LIG d   1      -7.323  80.956 116.971  0.00  0.00    -0.276 OA
ATOM     17  H   LIG d   1      -7.962  79.106 119.452  0.00  0.00     0.149 HD
ENDBRANCH   6  13
BRANCH   5  18
ATOM     18  N   LIG d   1      -4.549  80.275 118.466  0.00  0.00     0.381 N 
ATOM     19  H   LIG d   1      -3.847  79.784 118.983  0.00  0.00    -0.090 HD
ATOM     20  H   LIG d   1      -5.234  80.621 119.115  0.00  0.00    -0.090 HD
ATOM     21  H   LIG d   1      -4.137  81.035 117.971  0.00  0.00    -0.090 HD
ENDBRANCH   5  18
BRANCH   3  22
ATOM     22  C   LIG d   1      -3.863  76.862 115.177  0.00  0.00     0.382 C 
ATOM     23  O   LIG d   1      -4.085  77.160 113.979  0.00  0.00    -0.241 OA
ATOM     24  O   LIG d   1      -2.945  76.067 115.452  0.00  0.00    -0.241 OA
ENDBRANCH   3  22
TORSDOF 7
ENDMDL
MODEL 9
REMARK VINA RESULT:      -4.6      2.256      5.406
REMARK  7 active torsions:
REMARK  status: ('A' for Active; 'I' for Inactive)
REMARK    1  A    between atoms: C_2  and  C_3 
REMARK    2  A    between atoms: C_3  and  O_6 
REMARK    3  A    between atoms: C_3  and  C_4 
REMARK    4  A    between atoms: C_7  and  O_6 
REMARK    5  A    between atoms: C_9  and  C_10 
REMARK    6  A    between atoms: N_15  and  C_14 
REMARK    7  A    between atoms: N_20  and  C_19 
REMARK       I    between atoms: C_22  and  N_20 
ROOT
ATOM      1  C   LIG d   1      -6.128  77.797 117.185  0.00  0.00     0.161 C 
ATOM      2  C   LIG d   1      -4.753  77.875 117.460  0.00  0.00     0.016 C 
ATOM      3  C   LIG d   1      -3.806  76.950 116.964  0.00  0.00     0.038 C 
ATOM      4  C   LIG d   1      -4.153  75.964 116.028  0.00  0.00     0.028 C 
ATOM      5  C   LIG d   1      -5.614  75.534 116.114  0.00  0.00    -0.047 C 
ATOM      6  C   LIG d   1      -6.510  76.793 116.077  0.00  0.00     0.091 C 
ENDROOT
BRANCH   1   7
ATOM      7  O   LIG d   1      -6.639  79.108 116.872  0.00  0.00    -0.368 OA
BRANCH   7   8
ATOM      8  C   LIG d   1      -7.221  79.845 117.975  0.00  0.00     0.119 C 
BRANCH   8   9
ATOM      9  C   LIG d   1      -8.708  79.449 118.064  0.00  0.00     0.028 C 
ATOM     10  C   LIG d   1      -9.636  80.671 118.160  0.00  0.00     0.006 C 
ENDBRANCH   8   9
BRANCH   8  11
ATOM     11  C   LIG d   1      -7.219  81.352 117.701  0.00  0.00     0.028 C 
ATOM     12  C   LIG d   1      -6.322  82.133 118.674  0.00  0.00     0.006 C 
ENDBRANCH   8  11
ENDBRANCH   7   8
ENDBRANCH   1   7
BRANCH   6  13
ATOM     13  N   LIG d   1      -7.951  76.469 116.241  0.00  0.00    -0.311 N 
ATOM     14  C   LIG d   1      -8.443  75.837 117.305  0.00  0.00     0.210 C 
ATOM     15  C   LIG d   1      -9.954  75.583 117.265  0.00  0.00     0.109 C 
ATOM     16  O   LIG d   1      -7.778  75.492 118.293  0.00  0.00    -0.276 OA
ATOM     17  H   LIG d   1      -8.567  76.741 115.500  0.00  0.00     0.149 HD
ENDBRANCH   6  13
BRANCH   5  18
ATOM     18  N   LIG d   1      -5.872  74.607 114.997  0.00  0.00     0.381 N 
ATOM     19  H   LIG d   1      -5.494  74.983 114.150  0.00  0.00    -0.090 HD
ATOM     20  H   LIG d   1      -6.866  74.507 114.881  0.00  0.00    -0.090 HD
ATOM     21  H   LIG d   1      -5.462  73.720 115.188  0.00  0.00    -0.090 HD
ENDBRANCH   5  18
BRANCH   3  22
ATOM     22  C   LIG d   1      -2.502  76.981 117.434  0.00  0.00     0.382 C 
ATOM     23  O   LIG d   1      -2.188  76.321 118.454  0.00  0.00    -0.241 OA
ATOM     24  O   LIG d   1      -1.647  77.696 116.878  0.00  0.00    -0.241 OA
ENDBRANCH   3  22
TORSDOF 7
ENDMDL
