MODEL 1
REMARK VINA RESULT:      -5.2      0.000      0.000
REMARK  7 active torsions:
REMARK  status: ('A' for Active; 'I' for Inactive)
REMARK    1  A    between atoms: C_2  and  C_3 
REMARK    2  A    between atoms: C_3  and  O_6 
REMARK    3  A    between atoms: C_3  and  C_4 
REMARK    4  A    between atoms: C_7  and  O_6 
REMARK    5  A    between atoms: C_9  and  C_10 
REMARK    6  A    between atoms: N_15  and  C_14 
REMARK    7  A    between atoms: N_20  and  C_19 
REMARK       I    between atoms: C_22  and  N_20 
ROOT
ATOM      1  C   LIG d   1      -5.759  77.331 118.196  0.00  0.00     0.161 C 
ATOM      2  C   LIG d   1      -6.589  78.456 118.063  0.00  0.00     0.016 C 
ATOM      3  C   LIG d   1      -6.120  79.724 117.649  0.00  0.00     0.038 C 
ATOM      4  C   LIG d   1      -4.808  79.916 117.190  0.00  0.00     0.028 C 
ATOM      5  C   LIG d   1      -3.809  78.929 117.784  0.00  0.00    -0.047 C 
ATOM      6  C   LIG d   1      -4.348  77.493 117.593  0.00  0.00     0.091 C 
ENDROOT
BRANCH   1   7
ATOM      7  O   LIG d   1      -6.413  76.174 117.637  0.00  0.00    -0.368 OA
BRANCH   7   8
ATOM      8  C   LIG d   1      -7.380  76.432 116.589  0.00  0.00     0.119 C 
BRANCH   8   9
ATOM      9  C   LIG d   1      -8.606  75.538 116.860  0.00  0.00     0.028 C 
ATOM     10  C   LIG d   1      -8.337  74.489 117.951  0.00  0.00     0.006 C 
ENDBRANCH   8   9
BRANCH   8  11
ATOM     11  C   LIG d   1      -6.850  75.990 115.222  0.00  0.00     0.028 C 
ATOM     12  C   LIG d   1      -5.735  74.938 115.326  0.00  0.00     0.006 C 
ENDBRANCH   8  11
ENDBRANCH   7   8
ENDBRANCH   1   7
BRANCH   6  13
ATOM     13  N   LIG d   1      -3.471  76.470 118.221  0.00  0.00    -0.311 N 
ATOM     14  C   LIG d   1      -2.562  75.769 117.545  0.00  0.00     0.210 C 
ATOM     15  C   LIG d   1      -1.778  74.752 118.380  0.00  0.00     0.109 C 
ATOM     16  O   LIG d   1      -2.308  75.917 116.340  0.00  0.00    -0.276 OA
ATOM     17  H   LIG d   1      -3.588  76.308 119.202  0.00  0.00     0.149 HD
ENDBRANCH   6  13
BRANCH   5  18
ATOM     18  N   LIG d   1      -2.512  79.152 117.117  0.00  0.00     0.381 N 
ATOM     19  H   LIG d   1      -2.095  78.273 116.883  0.00  0.00    -0.090 HD
ATOM     20  H   LIG d   1      -1.899  79.633 117.752  0.00  0.00    -0.090 HD
ATOM     21  H   LIG d   1      -2.642  79.697 116.293  0.00  0.00    -0.090 HD
ENDBRANCH   5  18
BRANCH   3  22
ATOM     22  C   LIG d   1      -6.957  80.826 117.728  0.00  0.00     0.382 C 
ATOM     23  O   LIG d   1      -6.882  81.735 116.866  0.00  0.00    -0.241 OA
ATOM     24  O   LIG d   1      -7.756  80.946 118.677  0.00  0.00    -0.241 OA
ENDBRANCH   3  22
TORSDOF 7
ENDMDL
MODEL 2
REMARK VINA RESULT:      -4.9      3.383      4.920
REMARK  7 active torsions:
REMARK  status: ('A' for Active; 'I' for Inactive)
REMARK    1  A    between atoms: C_2  and  C_3 
REMARK    2  A    between atoms: C_3  and  O_6 
REMARK    3  A    between atoms: C_3  and  C_4 
REMARK    4  A    between atoms: C_7  and  O_6 
REMARK    5  A    between atoms: C_9  and  C_10 
REMARK    6  A    between atoms: N_15  and  C_14 
REMARK    7  A    between atoms: N_20  and  C_19 
REMARK       I    between atoms: C_22  and  N_20 
ROOT
ATOM      1  C   LIG d   1      -2.908  79.056 115.921  0.00  0.00     0.161 C 
ATOM      2  C   LIG d   1      -2.933  79.989 114.871  0.00  0.00     0.016 C 
ATOM      3  C   LIG d   1      -2.202  79.831 113.671  0.00  0.00     0.038 C 
ATOM      4  C   LIG d   1      -1.510  78.647 113.375  0.00  0.00     0.028 C 
ATOM      5  C   LIG d   1      -1.046  77.891 114.615  0.00  0.00    -0.047 C 
ATOM      6  C   LIG d   1      -2.247  77.706 115.570  0.00  0.00     0.091 C 
ENDROOT
BRANCH   1   7
ATOM      7  O   LIG d   1      -4.243  78.846 116.420  0.00  0.00    -0.368 OA
BRANCH   7   8
ATOM      8  C   LIG d   1      -4.716  79.803 117.399  0.00  0.00     0.119 C 
BRANCH   8   9
ATOM      9  C   LIG d   1      -4.190  79.354 118.776  0.00  0.00     0.028 C 
ATOM     10  C   LIG d   1      -4.836  78.042 119.252  0.00  0.00     0.006 C 
ENDBRANCH   8   9
BRANCH   8  11
ATOM     11  C   LIG d   1      -6.243  79.771 117.518  0.00  0.00     0.028 C 
ATOM     12  C   LIG d   1      -6.865  81.175 117.586  0.00  0.00     0.006 C 
ENDBRANCH   8  11
ENDBRANCH   7   8
ENDBRANCH   1   7
BRANCH   6  13
ATOM     13  N   LIG d   1      -1.861  77.050 116.847  0.00  0.00    -0.311 N 
ATOM     14  C   LIG d   1      -2.431  75.934 117.299  0.00  0.00     0.210 C 
ATOM     15  C   LIG d   1      -1.898  75.436 118.646  0.00  0.00     0.109 C 
ATOM     16  O   LIG d   1      -3.305  75.292 116.697  0.00  0.00    -0.276 OA
ATOM     17  H   LIG d   1      -1.138  77.487 117.384  0.00  0.00     0.149 HD
ENDBRANCH   6  13
BRANCH   5  18
ATOM     18  N   LIG d   1      -0.463  76.612 114.166  0.00  0.00     0.381 N 
ATOM     19  H   LIG d   1       0.506  76.738 113.953  0.00  0.00    -0.090 HD
ATOM     20  H   LIG d   1      -0.934  76.317 113.329  0.00  0.00    -0.090 HD
ATOM     21  H   LIG d   1      -0.567  75.922 114.876  0.00  0.00    -0.090 HD
ENDBRANCH   5  18
BRANCH   3  22
ATOM     22  C   LIG d   1      -2.126  80.881 112.769  0.00  0.00     0.382 C 
ATOM     23  O   LIG d   1      -3.104  81.653 112.621  0.00  0.00    -0.241 OA
ATOM     24  O   LIG d   1      -1.108  81.039 112.068  0.00  0.00    -0.241 OA
ENDBRANCH   3  22
TORSDOF 7
ENDMDL
MODEL 3
REMARK VINA RESULT:      -4.9      2.980      4.442
REMARK  7 active torsions:
REMARK  status: ('A' for Active; 'I' for Inactive)
REMARK    1  A    between atoms: C_2  and  C_3 
REMARK    2  A    between atoms: C_3  and  O_6 
REMARK    3  A    between atoms: C_3  and  C_4 
REMARK    4  A    between atoms: C_7  and  O_6 
REMARK    5  A    between atoms: C_9  and  C_10 
REMARK    6  A    between atoms: N_15  and  C_14 
REMARK    7  A    between atoms: N_20  and  C_19 
REMARK       I    between atoms: C_22  and  N_20 
ROOT
ATOM      1  C   LIG d   1      -3.408  76.725 115.899  0.00  0.00     0.161 C 
ATOM      2  C   LIG d   1      -3.426  77.345 114.638  0.00  0.00     0.016 C 
ATOM      3  C   LIG d   1      -2.262  77.586 113.873  0.00  0.00     0.038 C 
ATOM      4  C   LIG d   1      -1.008  77.084 114.251  0.00  0.00     0.028 C 
ATOM      5  C   LIG d   1      -0.862  76.893 115.757  0.00  0.00    -0.047 C 
ATOM      6  C   LIG d   1      -2.062  76.070 116.278  0.00  0.00     0.091 C 
ENDROOT
BRANCH   1   7
ATOM      7  O   LIG d   1      -4.475  75.760 115.985  0.00  0.00    -0.368 OA
BRANCH   7   8
ATOM      8  C   LIG d   1      -5.806  76.299 116.182  0.00  0.00     0.119 C 
BRANCH   8   9
ATOM      9  C   LIG d   1      -5.784  77.119 117.487  0.00  0.00     0.028 C 
ATOM     10  C   LIG d   1      -6.201  78.583 117.266  0.00  0.00     0.006 C 
ENDBRANCH   8   9
BRANCH   8  11
ATOM     11  C   LIG d   1      -6.828  75.184 116.422  0.00  0.00     0.028 C 
ATOM     12  C   LIG d   1      -8.225  75.721 116.770  0.00  0.00     0.006 C 
ENDBRANCH   8  11
ENDBRANCH   7   8
ENDBRANCH   1   7
BRANCH   6  13
ATOM     13  N   LIG d   1      -2.041  75.910 117.755  0.00  0.00    -0.311 N 
ATOM     14  C   LIG d   1      -1.320  74.981 118.381  0.00  0.00     0.210 C 
ATOM     15  C   LIG d   1      -1.458  74.975 119.907  0.00  0.00     0.109 C 
ATOM     16  O   LIG d   1      -0.555  74.183 117.820  0.00  0.00    -0.276 OA
ATOM     17  H   LIG d   1      -2.610  76.536 118.291  0.00  0.00     0.149 HD
ENDBRANCH   6  13
BRANCH   5  18
ATOM     18  N   LIG d   1       0.437  76.237 115.999  0.00  0.00     0.381 N 
ATOM     19  H   LIG d   1       1.148  76.929 116.125  0.00  0.00    -0.090 HD
ATOM     20  H   LIG d   1       0.676  75.682 115.196  0.00  0.00    -0.090 HD
ATOM     21  H   LIG d   1       0.381  75.657 116.807  0.00  0.00    -0.090 HD
ENDBRANCH   5  18
BRANCH   3  22
ATOM     22  C   LIG d   1      -2.340  78.372 112.733  0.00  0.00     0.382 C 
ATOM     23  O   LIG d   1      -2.753  79.554 112.814  0.00  0.00    -0.241 OA
ATOM     24  O   LIG d   1      -2.044  77.900 111.619  0.00  0.00    -0.241 OA
ENDBRANCH   3  22
TORSDOF 7
ENDMDL
MODEL 4
REMARK VINA RESULT:      -4.7      2.227      4.778
REMARK  7 active torsions:
REMARK  status: ('A' for Active; 'I' for Inactive)
REMARK    1  A    between atoms: C_2  and  C_3 
REMARK    2  A    between atoms: C_3  and  O_6 
REMARK    3  A    between atoms: C_3  and  C_4 
REMARK    4  A    between atoms: C_7  and  O_6 
REMARK    5  A    between atoms: C_9  and  C_10 
REMARK    6  A    between atoms: N_15  and  C_14 
REMARK    7  A    between atoms: N_20  and  C_19 
REMARK       I    between atoms: C_22  and  N_20 
ROOT
ATOM      1  C   LIG d   1      -5.295  78.697 117.284  0.00  0.00     0.161 C 
ATOM      2  C   LIG d   1      -4.166  79.395 116.825  0.00  0.00     0.016 C 
ATOM      3  C   LIG d   1      -3.047  78.763 116.236  0.00  0.00     0.038 C 
ATOM      4  C   LIG d   1      -3.046  77.395 115.925  0.00  0.00     0.028 C 
ATOM      5  C   LIG d   1      -3.957  76.569 116.827  0.00  0.00    -0.047 C 
ATOM      6  C   LIG d   1      -5.360  77.217 116.853  0.00  0.00     0.091 C 
ENDROOT
BRANCH   1   7
ATOM      7  O   LIG d   1      -6.494  79.388 116.882  0.00  0.00    -0.368 OA
BRANCH   7   8
ATOM      8  C   LIG d   1      -7.158  80.164 117.910  0.00  0.00     0.119 C 
BRANCH   8   9
ATOM      9  C   LIG d   1      -8.606  79.648 118.018  0.00  0.00     0.028 C 
ATOM     10  C   LIG d   1      -8.897  78.998 119.381  0.00  0.00     0.006 C 
ENDBRANCH   8   9
BRANCH   8  11
ATOM     11  C   LIG d   1      -7.281  81.636 117.505  0.00  0.00     0.028 C 
ATOM     12  C   LIG d   1      -8.719  82.034 117.137  0.00  0.00     0.006 C 
ENDBRANCH   8  11
ENDBRANCH   7   8
ENDBRANCH   1   7
BRANCH   6  13
ATOM     13  N   LIG d   1      -6.289  76.518 117.779  0.00  0.00    -0.311 N 
ATOM     14  C   LIG d   1      -7.490  76.072 117.414  0.00  0.00     0.210 C 
ATOM     15  C   LIG d   1      -8.296  75.399 118.529  0.00  0.00     0.109 C 
ATOM     16  O   LIG d   1      -7.951  76.141 116.264  0.00  0.00    -0.276 OA
ATOM     17  H   LIG d   1      -5.983  76.392 118.723  0.00  0.00     0.149 HD
ENDBRANCH   6  13
BRANCH   5  18
ATOM     18  N   LIG d   1      -3.966  75.189 116.306  0.00  0.00     0.381 N 
ATOM     19  H   LIG d   1      -4.571  74.620 116.865  0.00  0.00    -0.090 HD
ATOM     20  H   LIG d   1      -3.036  74.813 116.365  0.00  0.00    -0.090 HD
ATOM     21  H   LIG d   1      -4.275  75.184 115.359  0.00  0.00    -0.090 HD
ENDBRANCH   5  18
BRANCH   3  22
ATOM     22  C   LIG d   1      -1.897  79.496 115.986  0.00  0.00     0.382 C 
ATOM     23  O   LIG d   1      -1.166  79.860 116.940  0.00  0.00    -0.241 OA
ATOM     24  O   LIG d   1      -1.603  79.836 114.825  0.00  0.00    -0.241 OA
ENDBRANCH   3  22
TORSDOF 7
ENDMDL
MODEL 5
REMARK VINA RESULT:      -4.6      3.320      4.743
REMARK  7 active torsions:
REMARK  status: ('A' for Active; 'I' for Inactive)
REMARK    1  A    between atoms: C_2  and  C_3 
REMARK    2  A    between atoms: C_3  and  O_6 
REMARK    3  A    between atoms: C_3  and  C_4 
REMARK    4  A    between atoms: C_7  and  O_6 
REMARK    5  A    between atoms: C_9  and  C_10 
REMARK    6  A    between atoms: N_15  and  C_14 
REMARK    7  A    between atoms: N_20  and  C_19 
REMARK       I    between atoms: C_22  and  N_20 
ROOT
ATOM      1  C   LIG d   1      -2.063  78.892 116.406  0.00  0.00     0.161 C 
ATOM      2  C   LIG d   1      -2.454  79.690 115.318  0.00  0.00     0.016 C 
ATOM      3  C   LIG d   1      -2.165  79.367 113.972  0.00  0.00     0.038 C 
ATOM      4  C   LIG d   1      -1.592  78.138 113.611  0.00  0.00     0.028 C 
ATOM      5  C   LIG d   1      -0.726  77.528 114.708  0.00  0.00    -0.047 C 
ATOM      6  C   LIG d   1      -1.535  77.493 116.025  0.00  0.00     0.091 C 
ENDROOT
BRANCH   1   7
ATOM      7  O   LIG d   1      -3.151  78.778 117.344  0.00  0.00    -0.368 OA
BRANCH   7   8
ATOM      8  C   LIG d   1      -4.196  77.836 116.997  0.00  0.00     0.119 C 
BRANCH   8   9
ATOM      9  C   LIG d   1      -5.540  78.588 117.069  0.00  0.00     0.028 C 
ATOM     10  C   LIG d   1      -5.368  80.059 117.485  0.00  0.00     0.006 C 
ENDBRANCH   8   9
BRANCH   8  11
ATOM     11  C   LIG d   1      -4.303  76.715 118.036  0.00  0.00     0.028 C 
ATOM     12  C   LIG d   1      -3.642  77.078 119.375  0.00  0.00     0.006 C 
ENDBRANCH   8  11
ENDBRANCH   7   8
ENDBRANCH   1   7
BRANCH   6  13
ATOM     13  N   LIG d   1      -0.733  76.988 117.170  0.00  0.00    -0.311 N 
ATOM     14  C   LIG d   1      -0.706  75.708 117.538  0.00  0.00     0.210 C 
ATOM     15  C   LIG d   1       0.170  75.405 118.757  0.00  0.00     0.109 C 
ATOM     16  O   LIG d   1      -1.298  74.790 116.951  0.00  0.00    -0.276 OA
ATOM     17  H   LIG d   1      -0.197  77.660 117.683  0.00  0.00     0.149 HD
ENDBRANCH   6  13
BRANCH   5  18
ATOM     18  N   LIG d   1      -0.305  76.190 114.252  0.00  0.00     0.381 N 
ATOM     19  H   LIG d   1      -0.276  75.561 115.029  0.00  0.00    -0.090 HD
ATOM     20  H   LIG d   1       0.619  76.255 113.864  0.00  0.00    -0.090 HD
ATOM     21  H   LIG d   1      -0.940  75.850 113.563  0.00  0.00    -0.090 HD
ENDBRANCH   5  18
BRANCH   3  22
ATOM     22  C   LIG d   1      -2.413  80.296 112.974  0.00  0.00     0.382 C 
ATOM     23  O   LIG d   1      -1.754  80.261 111.906  0.00  0.00    -0.241 OA
ATOM     24  O   LIG d   1      -3.257  81.196 113.144  0.00  0.00    -0.241 OA
ENDBRANCH   3  22
TORSDOF 7
ENDMDL
MODEL 6
REMARK VINA RESULT:      -4.5      3.315      4.828
REMARK  7 active torsions:
REMARK  status: ('A' for Active; 'I' for Inactive)
REMARK    1  A    between atoms: C_2  and  C_3 
REMARK    2  A    between atoms: C_3  and  O_6 
REMARK    3  A    between atoms: C_3  and  C_4 
REMARK    4  A    between atoms: C_7  and  O_6 
REMARK    5  A    between atoms: C_9  and  C_10 
REMARK    6  A    between atoms: N_15  and  C_14 
REMARK    7  A    between atoms: N_20  and  C_19 
REMARK       I    between atoms: C_22  and  N_20 
ROOT
ATOM      1  C   LIG d   1      -2.910  77.954 115.668  0.00  0.00     0.161 C 
ATOM      2  C   LIG d   1      -2.832  78.363 114.326  0.00  0.00     0.016 C 
ATOM      3  C   LIG d   1      -1.864  77.876 113.419  0.00  0.00     0.038 C 
ATOM      4  C   LIG d   1      -0.995  76.827 113.754  0.00  0.00     0.028 C 
ATOM      5  C   LIG d   1      -0.703  76.736 115.248  0.00  0.00    -0.047 C 
ATOM      6  C   LIG d   1      -2.041  76.729 116.022  0.00  0.00     0.091 C 
ENDROOT
BRANCH   1   7
ATOM      7  O   LIG d   1      -4.285  77.715 116.028  0.00  0.00    -0.368 OA
BRANCH   7   8
ATOM      8  C   LIG d   1      -4.693  76.326 116.094  0.00  0.00     0.119 C 
BRANCH   8   9
ATOM      9  C   LIG d   1      -5.614  76.056 114.889  0.00  0.00     0.028 C 
ATOM     10  C   LIG d   1      -7.105  76.109 115.265  0.00  0.00     0.006 C 
ENDBRANCH   8   9
BRANCH   8  11
ATOM     11  C   LIG d   1      -5.556  76.058 117.331  0.00  0.00     0.028 C 
ATOM     12  C   LIG d   1      -5.349  77.102 118.440  0.00  0.00     0.006 C 
ENDBRANCH   8  11
ENDBRANCH   7   8
ENDBRANCH   1   7
BRANCH   6  13
ATOM     13  N   LIG d   1      -1.845  76.727 117.495  0.00  0.00    -0.311 N 
ATOM     14  C   LIG d   1      -1.847  75.618 118.233  0.00  0.00     0.210 C 
ATOM     15  C   LIG d   1      -1.646  75.841 119.735  0.00  0.00     0.109 C 
ATOM     16  O   LIG d   1      -1.963  74.468 117.783  0.00  0.00    -0.276 OA
ATOM     17  H   LIG d   1      -1.711  77.614 117.938  0.00  0.00     0.149 HD
ENDBRANCH   6  13
BRANCH   5  18
ATOM     18  N   LIG d   1       0.101  75.520 115.472  0.00  0.00     0.381 N 
ATOM     19  H   LIG d   1      -0.206  75.059 116.305  0.00  0.00    -0.090 HD
ATOM     20  H   LIG d   1       1.063  75.784 115.593  0.00  0.00    -0.090 HD
ATOM     21  H   LIG d   1       0.013  74.905 114.693  0.00  0.00    -0.090 HD
ENDBRANCH   5  18
BRANCH   3  22
ATOM     22  C   LIG d   1      -1.731  78.468 112.172  0.00  0.00     0.382 C 
ATOM     23  O   LIG d   1      -1.620  77.753 111.147  0.00  0.00    -0.241 OA
ATOM     24  O   LIG d   1      -1.676  79.708 112.064  0.00  0.00    -0.241 OA
ENDBRANCH   3  22
TORSDOF 7
ENDMDL
MODEL 7
REMARK VINA RESULT:      -4.3      2.090      4.227
REMARK  7 active torsions:
REMARK  status: ('A' for Active; 'I' for Inactive)
REMARK    1  A    between atoms: C_2  and  C_3 
REMARK    2  A    between atoms: C_3  and  O_6 
REMARK    3  A    between atoms: C_3  and  C_4 
REMARK    4  A    between atoms: C_7  and  O_6 
REMARK    5  A    between atoms: C_9  and  C_10 
REMARK    6  A    between atoms: N_15  and  C_14 
REMARK    7  A    between atoms: N_20  and  C_19 
REMARK       I    between atoms: C_22  and  N_20 
ROOT
ATOM      1  C   LIG d   1      -5.807  78.374 117.557  0.00  0.00     0.161 C 
ATOM      2  C   LIG d   1      -6.229  79.713 117.605  0.00  0.00     0.016 C 
ATOM      3  C   LIG d   1      -7.578  80.099 117.779  0.00  0.00     0.038 C 
ATOM      4  C   LIG d   1      -8.584  79.165 118.070  0.00  0.00     0.028 C 
ATOM      5  C   LIG d   1      -8.290  77.770 117.531  0.00  0.00    -0.047 C 
ATOM      6  C   LIG d   1      -6.874  77.345 117.984  0.00  0.00     0.091 C 
ENDROOT
BRANCH   1   7
ATOM      7  O   LIG d   1      -4.610  78.210 118.343  0.00  0.00    -0.368 OA
BRANCH   7   8
ATOM      8  C   LIG d   1      -3.441  77.734 117.633  0.00  0.00     0.119 C 
BRANCH   8   9
ATOM      9  C   LIG d   1      -2.950  76.461 118.350  0.00  0.00     0.028 C 
ATOM     10  C   LIG d   1      -2.664  75.309 117.372  0.00  0.00     0.006 C 
ENDBRANCH   8   9
BRANCH   8  11
ATOM     11  C   LIG d   1      -2.282  78.729 117.735  0.00  0.00     0.028 C 
ATOM     12  C   LIG d   1      -2.569  79.879 118.713  0.00  0.00     0.006 C 
ENDBRANCH   8  11
ENDBRANCH   7   8
ENDBRANCH   1   7
BRANCH   6  13
ATOM     13  N   LIG d   1      -6.474  76.025 117.429  0.00  0.00    -0.311 N 
ATOM     14  C   LIG d   1      -6.283  75.804 116.130  0.00  0.00     0.210 C 
ATOM     15  C   LIG d   1      -5.893  74.367 115.769  0.00  0.00     0.109 C 
ATOM     16  O   LIG d   1      -6.368  76.669 115.245  0.00  0.00    -0.276 OA
ATOM     17  H   LIG d   1      -6.352  75.275 118.080  0.00  0.00     0.149 HD
ENDBRANCH   6  13
BRANCH   5  18
ATOM     18  N   LIG d   1      -9.349  76.869 118.024  0.00  0.00     0.381 N 
ATOM     19  H   LIG d   1      -9.357  76.028 117.482  0.00  0.00    -0.090 HD
ATOM     20  H   LIG d   1     -10.239  77.323 117.914  0.00  0.00    -0.090 HD
ATOM     21  H   LIG d   1      -9.194  76.654 118.984  0.00  0.00    -0.090 HD
ENDBRANCH   5  18
BRANCH   3  22
ATOM     22  C   LIG d   1      -7.939  81.429 117.623  0.00  0.00     0.382 C 
ATOM     23  O   LIG d   1      -8.327  82.093 118.613  0.00  0.00    -0.241 OA
ATOM     24  O   LIG d   1      -7.922  81.959 116.496  0.00  0.00    -0.241 OA
ENDBRANCH   3  22
TORSDOF 7
ENDMDL
MODEL 8
REMARK VINA RESULT:      -4.3      2.352      5.500
REMARK  7 active torsions:
REMARK  status: ('A' for Active; 'I' for Inactive)
REMARK    1  A    between atoms: C_2  and  C_3 
REMARK    2  A    between atoms: C_3  and  O_6 
REMARK    3  A    between atoms: C_3  and  C_4 
REMARK    4  A    between atoms: C_7  and  O_6 
REMARK    5  A    between atoms: C_9  and  C_10 
REMARK    6  A    between atoms: N_15  and  C_14 
REMARK    7  A    between atoms: N_20  and  C_19 
REMARK       I    between atoms: C_22  and  N_20 
ROOT
ATOM      1  C   LIG d   1      -4.620  77.989 116.918  0.00  0.00     0.161 C 
ATOM      2  C   LIG d   1      -3.472  78.248 116.151  0.00  0.00     0.016 C 
ATOM      3  C   LIG d   1      -3.010  77.389 115.127  0.00  0.00     0.038 C 
ATOM      4  C   LIG d   1      -3.754  76.281 114.697  0.00  0.00     0.028 C 
ATOM      5  C   LIG d   1      -4.659  75.701 115.780  0.00  0.00    -0.047 C 
ATOM      6  C   LIG d   1      -5.506  76.842 116.389  0.00  0.00     0.091 C 
ENDROOT
BRANCH   1   7
ATOM      7  O   LIG d   1      -5.395  79.196 117.061  0.00  0.00    -0.368 OA
BRANCH   7   8
ATOM      8  C   LIG d   1      -5.730  79.581 118.417  0.00  0.00     0.119 C 
BRANCH   8   9
ATOM      9  C   LIG d   1      -5.977  81.102 118.418  0.00  0.00     0.028 C 
ATOM     10  C   LIG d   1      -7.068  81.521 117.418  0.00  0.00     0.006 C 
ENDBRANCH   8   9
BRANCH   8  11
ATOM     11  C   LIG d   1      -4.549  79.361 119.367  0.00  0.00     0.028 C 
ATOM     12  C   LIG d   1      -3.617  80.579 119.451  0.00  0.00     0.006 C 
ENDBRANCH   8  11
ENDBRANCH   7   8
ENDBRANCH   1   7
BRANCH   6  13
ATOM     13  N   LIG d   1      -6.358  76.376 117.513  0.00  0.00    -0.311 N 
ATOM     14  C   LIG d   1      -7.637  76.033 117.371  0.00  0.00     0.210 C 
ATOM     15  C   LIG d   1      -8.339  75.601 118.663  0.00  0.00     0.109 C 
ATOM     16  O   LIG d   1      -8.249  76.016 116.292  0.00  0.00    -0.276 OA
ATOM     17  H   LIG d   1      -5.934  76.330 118.419  0.00  0.00     0.149 HD
ENDBRANCH   6  13
BRANCH   5  18
ATOM     18  N   LIG d   1      -5.476  74.642 115.158  0.00  0.00     0.381 N 
ATOM     19  H   LIG d   1      -6.332  74.534 115.664  0.00  0.00    -0.090 HD
ATOM     20  H   LIG d   1      -4.971  73.774 115.202  0.00  0.00    -0.090 HD
ATOM     21  H   LIG d   1      -5.670  74.874 114.209  0.00  0.00    -0.090 HD
ENDBRANCH   5  18
BRANCH   3  22
ATOM     22  C   LIG d   1      -1.770  77.614 114.549  0.00  0.00     0.382 C 
ATOM     23  O   LIG d   1      -1.560  77.271 113.361  0.00  0.00    -0.241 OA
ATOM     24  O   LIG d   1      -0.844  78.115 115.215  0.00  0.00    -0.241 OA
ENDBRANCH   3  22
TORSDOF 7
ENDMDL
MODEL 9
REMARK VINA RESULT:      -4.3      2.302      4.815
REMARK  7 active torsions:
REMARK  status: ('A' for Active; 'I' for Inactive)
REMARK    1  A    between atoms: C_2  and  C_3 
REMARK    2  A    between atoms: C_3  and  O_6 
REMARK    3  A    between atoms: C_3  and  C_4 
REMARK    4  A    between atoms: C_7  and  O_6 
REMARK    5  A    between atoms: C_9  and  C_10 
REMARK    6  A    between atoms: N_15  and  C_14 
REMARK    7  A    between atoms: N_20  and  C_19 
REMARK       I    between atoms: C_22  and  N_20 
ROOT
ATOM      1  C   LIG d   1      -5.188  77.449 117.024  0.00  0.00     0.161 C 
ATOM      2  C   LIG d   1      -6.374  76.926 117.565  0.00  0.00     0.016 C 
ATOM      3  C   LIG d   1      -6.986  75.740 117.098  0.00  0.00     0.038 C 
ATOM      4  C   LIG d   1      -6.367  74.910 116.151  0.00  0.00     0.028 C 
ATOM      5  C   LIG d   1      -5.420  75.656 115.218  0.00  0.00    -0.047 C 
ATOM      6  C   LIG d   1      -4.440  76.499 116.066  0.00  0.00     0.091 C 
ENDROOT
BRANCH   1   7
ATOM      7  O   LIG d   1      -4.315  77.880 118.086  0.00  0.00    -0.368 OA
BRANCH   7   8
ATOM      8  C   LIG d   1      -4.430  79.268 118.483  0.00  0.00     0.119 C 
BRANCH   8   9
ATOM      9  C   LIG d   1      -4.985  80.050 117.277  0.00  0.00     0.028 C 
ATOM     10  C   LIG d   1      -6.206  80.909 117.646  0.00  0.00     0.006 C 
ENDBRANCH   8   9
BRANCH   8  11
ATOM     11  C   LIG d   1      -3.056  79.882 118.767  0.00  0.00     0.028 C 
ATOM     12  C   LIG d   1      -1.971  79.389 117.798  0.00  0.00     0.006 C 
ENDBRANCH   8  11
ENDBRANCH   7   8
ENDBRANCH   1   7
BRANCH   6  13
ATOM     13  N   LIG d   1      -3.533  77.326 115.229  0.00  0.00    -0.311 N 
ATOM     14  C   LIG d   1      -2.343  76.907 114.802  0.00  0.00     0.210 C 
ATOM     15  C   LIG d   1      -1.559  77.925 113.968  0.00  0.00     0.109 C 
ATOM     16  O   LIG d   1      -1.876  75.776 115.007  0.00  0.00    -0.276 OA
ATOM     17  H   LIG d   1      -3.847  78.246 114.989  0.00  0.00     0.149 HD
ENDBRANCH   6  13
BRANCH   5  18
ATOM     18  N   LIG d   1      -4.742  74.653 114.376  0.00  0.00     0.381 N 
ATOM     19  H   LIG d   1      -3.892  75.036 114.011  0.00  0.00    -0.090 HD
ATOM     20  H   LIG d   1      -5.340  74.420 113.602  0.00  0.00    -0.090 HD
ATOM     21  H   LIG d   1      -4.544  73.836 114.911  0.00  0.00    -0.090 HD
ENDBRANCH   5  18
BRANCH   3  22
ATOM     22  C   LIG d   1      -8.250  75.394 117.550  0.00  0.00     0.382 C 
ATOM     23  O   LIG d   1      -8.378  74.557 118.475  0.00  0.00    -0.241 OA
ATOM     24  O   LIG d   1      -9.267  75.876 117.015  0.00  0.00    -0.241 OA
ENDBRANCH   3  22
TORSDOF 7
ENDMDL
