MODEL 1
REMARK VINA RESULT:      -5.2      0.000      0.000
REMARK  7 active torsions:
REMARK  status: ('A' for Active; 'I' for Inactive)
REMARK    1  A    between atoms: C_2  and  C_3 
REMARK    2  A    between atoms: C_3  and  O_6 
REMARK    3  A    between atoms: C_3  and  C_4 
REMARK    4  A    between atoms: C_7  and  O_6 
REMARK    5  A    between atoms: C_9  and  C_10 
REMARK    6  A    between atoms: N_15  and  C_14 
REMARK    7  A    between atoms: N_20  and  C_19 
REMARK       I    between atoms: C_22  and  N_20 
ROOT
ATOM      1  C   LIG d   1      -2.539  78.064 115.931  0.00  0.00     0.161 C 
ATOM      2  C   LIG d   1      -2.851  78.981 114.914  0.00  0.00     0.016 C 
ATOM      3  C   LIG d   1      -2.268  78.943 113.626  0.00  0.00     0.038 C 
ATOM      4  C   LIG d   1      -1.439  77.887 113.218  0.00  0.00     0.028 C 
ATOM      5  C   LIG d   1      -0.701  77.216 114.372  0.00  0.00    -0.047 C 
ATOM      6  C   LIG d   1      -1.722  76.839 115.470  0.00  0.00     0.091 C 
ENDROOT
BRANCH   1   7
ATOM      7  O   LIG d   1      -3.746  77.639 116.594  0.00  0.00    -0.368 OA
BRANCH   7   8
ATOM      8  C   LIG d   1      -4.890  77.393 115.739  0.00  0.00     0.119 C 
BRANCH   8   9
ATOM      9  C   LIG d   1      -6.109  78.076 116.388  0.00  0.00     0.028 C 
ATOM     10  C   LIG d   1      -7.262  77.092 116.649  0.00  0.00     0.006 C 
ENDBRANCH   8   9
BRANCH   8  11
ATOM     11  C   LIG d   1      -5.238  75.903 115.689  0.00  0.00     0.028 C 
ATOM     12  C   LIG d   1      -4.940  75.266 114.322  0.00  0.00     0.006 C 
ENDBRANCH   8  11
ENDBRANCH   7   8
ENDBRANCH   1   7
BRANCH   6  13
ATOM     13  N   LIG d   1      -1.071  76.253 116.671  0.00  0.00    -0.311 N 
ATOM     14  C   LIG d   1      -1.296  75.010 117.094  0.00  0.00     0.210 C 
ATOM     15  C   LIG d   1      -0.538  74.613 118.364  0.00  0.00     0.109 C 
ATOM     16  O   LIG d   1      -2.025  74.189 116.519  0.00  0.00    -0.276 OA
ATOM     17  H   LIG d   1      -0.440  76.841 117.180  0.00  0.00     0.149 HD
ENDBRANCH   6  13
BRANCH   5  18
ATOM     18  N   LIG d   1       0.016  76.049 113.823  0.00  0.00     0.381 N 
ATOM     19  H   LIG d   1      -0.450  75.207 114.096  0.00  0.00    -0.090 HD
ATOM     20  H   LIG d   1       0.946  76.031 114.203  0.00  0.00    -0.090 HD
ATOM     21  H   LIG d   1       0.055  76.109 112.830  0.00  0.00    -0.090 HD
ENDBRANCH   5  18
BRANCH   3  22
ATOM     22  C   LIG d   1      -2.480  79.991 112.745  0.00  0.00     0.382 C 
ATOM     23  O   LIG d   1      -3.073  81.027 113.133  0.00  0.00    -0.241 OA
ATOM     24  O   LIG d   1      -2.126  79.898 111.554  0.00  0.00    -0.241 OA
ENDBRANCH   3  22
TORSDOF 7
ENDMDL
MODEL 2
REMARK VINA RESULT:      -5.2      2.882      4.119
REMARK  7 active torsions:
REMARK  status: ('A' for Active; 'I' for Inactive)
REMARK    1  A    between atoms: C_2  and  C_3 
REMARK    2  A    between atoms: C_3  and  O_6 
REMARK    3  A    between atoms: C_3  and  C_4 
REMARK    4  A    between atoms: C_7  and  O_6 
REMARK    5  A    between atoms: C_9  and  C_10 
REMARK    6  A    between atoms: N_15  and  C_14 
REMARK    7  A    between atoms: N_20  and  C_19 
REMARK       I    between atoms: C_22  and  N_20 
ROOT
ATOM      1  C   LIG d   1      -5.528  77.026 117.325  0.00  0.00     0.161 C 
ATOM      2  C   LIG d   1      -6.365  78.135 117.530  0.00  0.00     0.016 C 
ATOM      3  C   LIG d   1      -5.989  79.462 117.218  0.00  0.00     0.038 C 
ATOM      4  C   LIG d   1      -4.799  79.755 116.536  0.00  0.00     0.028 C 
ATOM      5  C   LIG d   1      -3.701  78.722 116.764  0.00  0.00    -0.047 C 
ATOM      6  C   LIG d   1      -4.270  77.313 116.479  0.00  0.00     0.091 C 
ENDROOT
BRANCH   1   7
ATOM      7  O   LIG d   1      -6.284  75.943 116.747  0.00  0.00    -0.368 OA
BRANCH   7   8
ATOM      8  C   LIG d   1      -7.315  76.319 115.802  0.00  0.00     0.119 C 
BRANCH   8   9
ATOM      9  C   LIG d   1      -8.492  75.341 115.988  0.00  0.00     0.028 C 
ATOM     10  C   LIG d   1      -9.262  75.592 117.295  0.00  0.00     0.006 C 
ENDBRANCH   8   9
BRANCH   8  11
ATOM     11  C   LIG d   1      -6.846  76.120 114.358  0.00  0.00     0.028 C 
ATOM     12  C   LIG d   1      -5.815  74.989 114.217  0.00  0.00     0.006 C 
ENDBRANCH   8  11
ENDBRANCH   7   8
ENDBRANCH   1   7
BRANCH   6  13
ATOM     13  N   LIG d   1      -3.284  76.237 116.759  0.00  0.00    -0.311 N 
ATOM     14  C   LIG d   1      -2.513  75.687 115.823  0.00  0.00     0.210 C 
ATOM     15  C   LIG d   1      -1.580  74.579 116.322  0.00  0.00     0.109 C 
ATOM     16  O   LIG d   1      -2.489  76.034 114.632  0.00  0.00    -0.276 OA
ATOM     17  H   LIG d   1      -3.215  75.916 117.705  0.00  0.00     0.149 HD
ENDBRANCH   6  13
BRANCH   5  18
ATOM     18  N   LIG d   1      -2.568  79.076 115.888  0.00  0.00     0.381 N 
ATOM     19  H   LIG d   1      -2.898  79.595 115.099  0.00  0.00    -0.090 HD
ATOM     20  H   LIG d   1      -2.140  78.231 115.552  0.00  0.00    -0.090 HD
ATOM     21  H   LIG d   1      -1.901  79.616 116.394  0.00  0.00    -0.090 HD
ENDBRANCH   5  18
BRANCH   3  22
ATOM     22  C   LIG d   1      -6.791  80.517 117.626  0.00  0.00     0.382 C 
ATOM     23  O   LIG d   1      -7.265  80.532 118.788  0.00  0.00    -0.241 OA
ATOM     24  O   LIG d   1      -7.082  81.433 116.833  0.00  0.00    -0.241 OA
ENDBRANCH   3  22
TORSDOF 7
ENDMDL
MODEL 3
REMARK VINA RESULT:      -5.2      3.420      5.351
REMARK  7 active torsions:
REMARK  status: ('A' for Active; 'I' for Inactive)
REMARK    1  A    between atoms: C_2  and  C_3 
REMARK    2  A    between atoms: C_3  and  O_6 
REMARK    3  A    between atoms: C_3  and  C_4 
REMARK    4  A    between atoms: C_7  and  O_6 
REMARK    5  A    between atoms: C_9  and  C_10 
REMARK    6  A    between atoms: N_15  and  C_14 
REMARK    7  A    between atoms: N_20  and  C_19 
REMARK       I    between atoms: C_22  and  N_20 
ROOT
ATOM      1  C   LIG d   1      -6.789  77.641 116.928  0.00  0.00     0.161 C 
ATOM      2  C   LIG d   1      -6.514  76.898 115.768  0.00  0.00     0.016 C 
ATOM      3  C   LIG d   1      -5.228  76.812 115.187  0.00  0.00     0.038 C 
ATOM      4  C   LIG d   1      -4.092  77.344 115.816  0.00  0.00     0.028 C 
ATOM      5  C   LIG d   1      -4.402  78.530 116.723  0.00  0.00    -0.047 C 
ATOM      6  C   LIG d   1      -5.543  78.137 117.690  0.00  0.00     0.091 C 
ENDROOT
BRANCH   1   7
ATOM      7  O   LIG d   1      -7.643  76.880 117.805  0.00  0.00    -0.368 OA
BRANCH   7   8
ATOM      8  C   LIG d   1      -8.902  76.436 117.242  0.00  0.00     0.119 C 
BRANCH   8   9
ATOM      9  C   LIG d   1     -10.031  77.086 118.064  0.00  0.00     0.028 C 
ATOM     10  C   LIG d   1      -9.689  78.521 118.499  0.00  0.00     0.006 C 
ENDBRANCH   8   9
BRANCH   8  11
ATOM     11  C   LIG d   1      -9.089  74.926 117.419  0.00  0.00     0.028 C 
ATOM     12  C   LIG d   1      -9.215  74.181 116.081  0.00  0.00     0.006 C 
ENDBRANCH   8  11
ENDBRANCH   7   8
ENDBRANCH   1   7
BRANCH   6  13
ATOM     13  N   LIG d   1      -5.965  79.268 118.557  0.00  0.00    -0.311 N 
ATOM     14  C   LIG d   1      -6.431  80.422 118.081  0.00  0.00     0.210 C 
ATOM     15  C   LIG d   1      -6.791  81.462 119.147  0.00  0.00     0.109 C 
ATOM     16  O   LIG d   1      -6.611  80.670 116.880  0.00  0.00    -0.276 OA
ATOM     17  H   LIG d   1      -5.882  79.140 119.546  0.00  0.00     0.149 HD
ENDBRANCH   6  13
BRANCH   5  18
ATOM     18  N   LIG d   1      -3.154  78.896 117.419  0.00  0.00     0.381 N 
ATOM     19  H   LIG d   1      -2.569  78.090 117.513  0.00  0.00    -0.090 HD
ATOM     20  H   LIG d   1      -3.381  79.230 118.339  0.00  0.00    -0.090 HD
ATOM     21  H   LIG d   1      -2.676  79.606 116.909  0.00  0.00    -0.090 HD
ENDBRANCH   5  18
BRANCH   3  22
ATOM     22  C   LIG d   1      -5.075  76.221 113.942  0.00  0.00     0.382 C 
ATOM     23  O   LIG d   1      -5.287  76.889 112.901  0.00  0.00    -0.241 OA
ATOM     24  O   LIG d   1      -4.771  75.017 113.847  0.00  0.00    -0.241 OA
ENDBRANCH   3  22
TORSDOF 7
ENDMDL
MODEL 4
REMARK VINA RESULT:      -5.2      3.077      4.937
REMARK  7 active torsions:
REMARK  status: ('A' for Active; 'I' for Inactive)
REMARK    1  A    between atoms: C_2  and  C_3 
REMARK    2  A    between atoms: C_3  and  O_6 
REMARK    3  A    between atoms: C_3  and  C_4 
REMARK    4  A    between atoms: C_7  and  O_6 
REMARK    5  A    between atoms: C_9  and  C_10 
REMARK    6  A    between atoms: N_15  and  C_14 
REMARK    7  A    between atoms: N_20  and  C_19 
REMARK       I    between atoms: C_22  and  N_20 
ROOT
ATOM      1  C   LIG d   1      -6.026  77.590 116.570  0.00  0.00     0.161 C 
ATOM      2  C   LIG d   1      -4.941  78.396 116.187  0.00  0.00     0.016 C 
ATOM      3  C   LIG d   1      -4.004  78.020 115.197  0.00  0.00     0.038 C 
ATOM      4  C   LIG d   1      -4.176  76.870 114.411  0.00  0.00     0.028 C 
ATOM      5  C   LIG d   1      -4.978  75.776 115.107  0.00  0.00    -0.047 C 
ATOM      6  C   LIG d   1      -6.293  76.383 115.646  0.00  0.00     0.091 C 
ENDROOT
BRANCH   1   7
ATOM      7  O   LIG d   1      -7.213  78.397 116.696  0.00  0.00    -0.368 OA
BRANCH   7   8
ATOM      8  C   LIG d   1      -7.419  79.032 117.982  0.00  0.00     0.119 C 
BRANCH   8   9
ATOM      9  C   LIG d   1      -8.290  78.086 118.831  0.00  0.00     0.028 C 
ATOM     10  C   LIG d   1      -9.720  77.953 118.281  0.00  0.00     0.006 C 
ENDBRANCH   8   9
BRANCH   8  11
ATOM     11  C   LIG d   1      -8.236  80.320 117.844  0.00  0.00     0.028 C 
ATOM     12  C   LIG d   1      -7.369  81.540 117.494  0.00  0.00     0.006 C 
ENDBRANCH   8  11
ENDBRANCH   7   8
ENDBRANCH   1   7
BRANCH   6  13
ATOM     13  N   LIG d   1      -7.099  75.399 116.414  0.00  0.00    -0.311 N 
ATOM     14  C   LIG d   1      -8.410  75.234 116.246  0.00  0.00     0.210 C 
ATOM     15  C   LIG d   1      -9.051  74.180 117.154  0.00  0.00     0.109 C 
ATOM     16  O   LIG d   1      -9.097  75.839 115.409  0.00  0.00    -0.276 OA
ATOM     17  H   LIG d   1      -6.616  74.844 117.093  0.00  0.00     0.149 HD
ENDBRANCH   6  13
BRANCH   5  18
ATOM     18  N   LIG d   1      -5.199  74.695 114.128  0.00  0.00     0.381 N 
ATOM     19  H   LIG d   1      -5.479  73.860 114.603  0.00  0.00    -0.090 HD
ATOM     20  H   LIG d   1      -4.336  74.510 113.647  0.00  0.00    -0.090 HD
ATOM     21  H   LIG d   1      -5.901  74.965 113.474  0.00  0.00    -0.090 HD
ENDBRANCH   5  18
BRANCH   3  22
ATOM     22  C   LIG d   1      -2.857  78.778 115.013  0.00  0.00     0.382 C 
ATOM     23  O   LIG d   1      -1.805  78.484 115.630  0.00  0.00    -0.241 OA
ATOM     24  O   LIG d   1      -2.874  79.778 114.271  0.00  0.00    -0.241 OA
ENDBRANCH   3  22
TORSDOF 7
ENDMDL
MODEL 5
REMARK VINA RESULT:      -5.1      1.498      2.265
REMARK  7 active torsions:
REMARK  status: ('A' for Active; 'I' for Inactive)
REMARK    1  A    between atoms: C_2  and  C_3 
REMARK    2  A    between atoms: C_3  and  O_6 
REMARK    3  A    between atoms: C_3  and  C_4 
REMARK    4  A    between atoms: C_7  and  O_6 
REMARK    5  A    between atoms: C_9  and  C_10 
REMARK    6  A    between atoms: N_15  and  C_14 
REMARK    7  A    between atoms: N_20  and  C_19 
REMARK       I    between atoms: C_22  and  N_20 
ROOT
ATOM      1  C   LIG d   1      -2.953  78.527 115.119  0.00  0.00     0.161 C 
ATOM      2  C   LIG d   1      -3.049  79.595 114.212  0.00  0.00     0.016 C 
ATOM      3  C   LIG d   1      -2.263  79.694 113.040  0.00  0.00     0.038 C 
ATOM      4  C   LIG d   1      -1.430  78.648 112.616  0.00  0.00     0.028 C 
ATOM      5  C   LIG d   1      -0.925  77.774 113.759  0.00  0.00    -0.047 C 
ATOM      6  C   LIG d   1      -2.131  77.322 114.615  0.00  0.00     0.091 C 
ENDROOT
BRANCH   1   7
ATOM      7  O   LIG d   1      -4.273  78.102 115.513  0.00  0.00    -0.368 OA
BRANCH   7   8
ATOM      8  C   LIG d   1      -4.859  78.804 116.637  0.00  0.00     0.119 C 
BRANCH   8   9
ATOM      9  C   LIG d   1      -4.231  78.228 117.921  0.00  0.00     0.028 C 
ATOM     10  C   LIG d   1      -3.539  79.306 118.771  0.00  0.00     0.006 C 
ENDBRANCH   8   9
BRANCH   8  11
ATOM     11  C   LIG d   1      -6.359  78.515 116.754  0.00  0.00     0.028 C 
ATOM     12  C   LIG d   1      -7.126  79.632 117.479  0.00  0.00     0.006 C 
ENDBRANCH   8  11
ENDBRANCH   7   8
ENDBRANCH   1   7
BRANCH   6  13
ATOM     13  N   LIG d   1      -1.717  76.532 115.804  0.00  0.00    -0.311 N 
ATOM     14  C   LIG d   1      -1.589  75.206 115.794  0.00  0.00     0.210 C 
ATOM     15  C   LIG d   1      -1.172  74.587 117.132  0.00  0.00     0.109 C 
ATOM     16  O   LIG d   1      -1.750  74.487 114.797  0.00  0.00    -0.276 OA
ATOM     17  H   LIG d   1      -1.536  77.039 116.648  0.00  0.00     0.149 HD
ENDBRANCH   6  13
BRANCH   5  18
ATOM     18  N   LIG d   1      -0.184  76.646 113.164  0.00  0.00     0.381 N 
ATOM     19  H   LIG d   1      -0.822  75.918 112.909  0.00  0.00    -0.090 HD
ATOM     20  H   LIG d   1       0.455  76.280 113.847  0.00  0.00    -0.090 HD
ATOM     21  H   LIG d   1       0.317  76.954 112.360  0.00  0.00    -0.090 HD
ENDBRANCH   5  18
BRANCH   3  22
ATOM     22  C   LIG d   1      -2.276  80.867 112.301  0.00  0.00     0.382 C 
ATOM     23  O   LIG d   1      -1.258  81.212 111.655  0.00  0.00    -0.241 OA
ATOM     24  O   LIG d   1      -3.278  81.606 112.307  0.00  0.00    -0.241 OA
ENDBRANCH   3  22
TORSDOF 7
ENDMDL
MODEL 6
REMARK VINA RESULT:      -4.9      4.083      7.349
REMARK  7 active torsions:
REMARK  status: ('A' for Active; 'I' for Inactive)
REMARK    1  A    between atoms: C_2  and  C_3 
REMARK    2  A    between atoms: C_3  and  O_6 
REMARK    3  A    between atoms: C_3  and  C_4 
REMARK    4  A    between atoms: C_7  and  O_6 
REMARK    5  A    between atoms: C_9  and  C_10 
REMARK    6  A    between atoms: N_15  and  C_14 
REMARK    7  A    between atoms: N_20  and  C_19 
REMARK       I    between atoms: C_22  and  N_20 
ROOT
ATOM      1  C   LIG d   1      -6.517  77.992 117.101  0.00  0.00     0.161 C 
ATOM      2  C   LIG d   1      -6.839  76.715 116.613  0.00  0.00     0.016 C 
ATOM      3  C   LIG d   1      -8.107  76.113 116.782  0.00  0.00     0.038 C 
ATOM      4  C   LIG d   1      -9.194  76.815 117.324  0.00  0.00     0.028 C 
ATOM      5  C   LIG d   1      -8.781  77.924 118.285  0.00  0.00    -0.047 C 
ATOM      6  C   LIG d   1      -7.724  78.817 117.597  0.00  0.00     0.091 C 
ENDROOT
BRANCH   1   7
ATOM      7  O   LIG d   1      -5.785  78.727 116.101  0.00  0.00    -0.368 OA
BRANCH   7   8
ATOM      8  C   LIG d   1      -4.390  78.988 116.396  0.00  0.00     0.119 C 
BRANCH   8   9
ATOM      9  C   LIG d   1      -3.547  78.216 115.362  0.00  0.00     0.028 C 
ATOM     10  C   LIG d   1      -3.006  76.888 115.919  0.00  0.00     0.006 C 
ENDBRANCH   8   9
BRANCH   8  11
ATOM     11  C   LIG d   1      -3.991  78.410 117.757  0.00  0.00     0.028 C 
ATOM     12  C   LIG d   1      -3.576  79.493 118.766  0.00  0.00     0.006 C 
ENDBRANCH   8  11
ENDBRANCH   7   8
ENDBRANCH   1   7
BRANCH   6  13
ATOM     13  N   LIG d   1      -7.203  79.877 118.499  0.00  0.00    -0.311 N 
ATOM     14  C   LIG d   1      -7.155  81.166 118.164  0.00  0.00     0.210 C 
ATOM     15  C   LIG d   1      -6.564  82.090 119.233  0.00  0.00     0.109 C 
ATOM     16  O   LIG d   1      -7.576  81.635 117.096  0.00  0.00    -0.276 OA
ATOM     17  H   LIG d   1      -6.870  79.589 119.398  0.00  0.00     0.149 HD
ENDBRANCH   6  13
BRANCH   5  18
ATOM     18  N   LIG d   1     -10.000  78.661 118.667  0.00  0.00     0.381 N 
ATOM     19  H   LIG d   1     -10.770  78.026 118.743  0.00  0.00    -0.090 HD
ATOM     20  H   LIG d   1     -10.214  79.330 117.948  0.00  0.00    -0.090 HD
ATOM     21  H   LIG d   1      -9.859  79.128 119.535  0.00  0.00    -0.090 HD
ENDBRANCH   5  18
BRANCH   3  22
ATOM     22  C   LIG d   1      -8.286  74.780 116.444  0.00  0.00     0.382 C 
ATOM     23  O   LIG d   1      -7.411  74.181 115.774  0.00  0.00    -0.241 OA
ATOM     24  O   LIG d   1      -9.331  74.183 116.762  0.00  0.00    -0.241 OA
ENDBRANCH   3  22
TORSDOF 7
ENDMDL
MODEL 7
REMARK VINA RESULT:      -4.9      3.267      5.884
REMARK  7 active torsions:
REMARK  status: ('A' for Active; 'I' for Inactive)
REMARK    1  A    between atoms: C_2  and  C_3 
REMARK    2  A    between atoms: C_3  and  O_6 
REMARK    3  A    between atoms: C_3  and  C_4 
REMARK    4  A    between atoms: C_7  and  O_6 
REMARK    5  A    between atoms: C_9  and  C_10 
REMARK    6  A    between atoms: N_15  and  C_14 
REMARK    7  A    between atoms: N_20  and  C_19 
REMARK       I    between atoms: C_22  and  N_20 
ROOT
ATOM      1  C   LIG d   1      -6.236  77.627 116.168  0.00  0.00     0.161 C 
ATOM      2  C   LIG d   1      -7.435  77.069 116.640  0.00  0.00     0.016 C 
ATOM      3  C   LIG d   1      -7.878  75.771 116.296  0.00  0.00     0.038 C 
ATOM      4  C   LIG d   1      -7.072  74.880 115.572  0.00  0.00     0.028 C 
ATOM      5  C   LIG d   1      -6.075  75.576 114.652  0.00  0.00    -0.047 C 
ATOM      6  C   LIG d   1      -5.290  76.629 115.468  0.00  0.00     0.091 C 
ENDROOT
BRANCH   1   7
ATOM      7  O   LIG d   1      -5.550  78.295 117.246  0.00  0.00    -0.368 OA
BRANCH   7   8
ATOM      8  C   LIG d   1      -6.378  79.083 118.136  0.00  0.00     0.119 C 
BRANCH   8   9
ATOM      9  C   LIG d   1      -6.498  80.494 117.529  0.00  0.00     0.028 C 
ATOM     10  C   LIG d   1      -7.935  81.038 117.587  0.00  0.00     0.006 C 
ENDBRANCH   8   9
BRANCH   8  11
ATOM     11  C   LIG d   1      -5.701  79.282 119.496  0.00  0.00     0.028 C 
ATOM     12  C   LIG d   1      -4.646  80.400 119.478  0.00  0.00     0.006 C 
ENDBRANCH   8  11
ENDBRANCH   7   8
ENDBRANCH   1   7
BRANCH   6  13
ATOM     13  N   LIG d   1      -4.352  77.415 114.625  0.00  0.00    -0.311 N 
ATOM     14  C   LIG d   1      -3.117  77.011 114.330  0.00  0.00     0.210 C 
ATOM     15  C   LIG d   1      -2.309  77.982 113.463  0.00  0.00     0.109 C 
ATOM     16  O   LIG d   1      -2.625  75.927 114.678  0.00  0.00    -0.276 OA
ATOM     17  H   LIG d   1      -4.680  78.293 114.274  0.00  0.00     0.149 HD
ENDBRANCH   6  13
BRANCH   5  18
ATOM     18  N   LIG d   1      -5.209  74.536 114.065  0.00  0.00     0.381 N 
ATOM     19  H   LIG d   1      -5.516  73.632 114.363  0.00  0.00    -0.090 HD
ATOM     20  H   LIG d   1      -4.269  74.673 114.392  0.00  0.00    -0.090 HD
ATOM     21  H   LIG d   1      -5.234  74.593 113.071  0.00  0.00    -0.090 HD
ENDBRANCH   5  18
BRANCH   3  22
ATOM     22  C   LIG d   1      -9.158  75.367 116.644  0.00  0.00     0.382 C 
ATOM     23  O   LIG d   1      -9.608  74.275 116.219  0.00  0.00    -0.241 OA
ATOM     24  O   LIG d   1      -9.885  76.101 117.340  0.00  0.00    -0.241 OA
ENDBRANCH   3  22
TORSDOF 7
ENDMDL
MODEL 8
REMARK VINA RESULT:      -4.7      3.499      5.659
REMARK  7 active torsions:
REMARK  status: ('A' for Active; 'I' for Inactive)
REMARK    1  A    between atoms: C_2  and  C_3 
REMARK    2  A    between atoms: C_3  and  O_6 
REMARK    3  A    between atoms: C_3  and  C_4 
REMARK    4  A    between atoms: C_7  and  O_6 
REMARK    5  A    between atoms: C_9  and  C_10 
REMARK    6  A    between atoms: N_15  and  C_14 
REMARK    7  A    between atoms: N_20  and  C_19 
REMARK       I    between atoms: C_22  and  N_20 
ROOT
ATOM      1  C   LIG d   1      -5.974  77.987 116.175  0.00  0.00     0.161 C 
ATOM      2  C   LIG d   1      -4.618  77.767 115.885  0.00  0.00     0.016 C 
ATOM      3  C   LIG d   1      -3.561  78.235 116.700  0.00  0.00     0.038 C 
ATOM      4  C   LIG d   1      -3.796  78.830 117.949  0.00  0.00     0.028 C 
ATOM      5  C   LIG d   1      -5.151  79.523 118.045  0.00  0.00    -0.047 C 
ATOM      6  C   LIG d   1      -6.252  78.537 117.590  0.00  0.00     0.091 C 
ENDROOT
BRANCH   1   7
ATOM      7  O   LIG d   1      -6.725  76.777 115.952  0.00  0.00    -0.368 OA
BRANCH   7   8
ATOM      8  C   LIG d   1      -6.588  75.747 116.961  0.00  0.00     0.119 C 
BRANCH   8   9
ATOM      9  C   LIG d   1      -6.044  74.485 116.264  0.00  0.00     0.028 C 
ATOM     10  C   LIG d   1      -6.097  74.593 114.731  0.00  0.00     0.006 C 
ENDBRANCH   8   9
BRANCH   8  11
ATOM     11  C   LIG d   1      -7.950  75.341 117.531  0.00  0.00     0.028 C 
ATOM     12  C   LIG d   1      -9.127  75.888 116.708  0.00  0.00     0.006 C 
ENDBRANCH   8  11
ENDBRANCH   7   8
ENDBRANCH   1   7
BRANCH   6  13
ATOM     13  N   LIG d   1      -7.600  79.162 117.573  0.00  0.00    -0.311 N 
ATOM     14  C   LIG d   1      -8.454  79.093 118.593  0.00  0.00     0.210 C 
ATOM     15  C   LIG d   1      -9.798  79.789 118.361  0.00  0.00     0.109 C 
ATOM     16  O   LIG d   1      -8.212  78.548 119.681  0.00  0.00    -0.276 OA
ATOM     17  H   LIG d   1      -7.866  79.651 116.741  0.00  0.00     0.149 HD
ENDBRANCH   6  13
BRANCH   5  18
ATOM     18  N   LIG d   1      -5.322  79.978 119.438  0.00  0.00     0.381 N 
ATOM     19  H   LIG d   1      -5.588  79.206 120.016  0.00  0.00    -0.090 HD
ATOM     20  H   LIG d   1      -6.056  80.663 119.468  0.00  0.00    -0.090 HD
ATOM     21  H   LIG d   1      -4.472  80.375 119.773  0.00  0.00    -0.090 HD
ENDBRANCH   5  18
BRANCH   3  22
ATOM     22  C   LIG d   1      -2.253  78.146 116.249  0.00  0.00     0.382 C 
ATOM     23  O   LIG d   1      -1.650  77.047 116.289  0.00  0.00    -0.241 OA
ATOM     24  O   LIG d   1      -1.655  79.160 115.843  0.00  0.00    -0.241 OA
ENDBRANCH   3  22
TORSDOF 7
ENDMDL
MODEL 9
REMARK VINA RESULT:      -4.7      3.614      5.598
REMARK  7 active torsions:
REMARK  status: ('A' for Active; 'I' for Inactive)
REMARK    1  A    between atoms: C_2  and  C_3 
REMARK    2  A    between atoms: C_3  and  O_6 
REMARK    3  A    between atoms: C_3  and  C_4 
REMARK    4  A    between atoms: C_7  and  O_6 
REMARK    5  A    between atoms: C_9  and  C_10 
REMARK    6  A    between atoms: N_15  and  C_14 
REMARK    7  A    between atoms: N_20  and  C_19 
REMARK       I    between atoms: C_22  and  N_20 
ROOT
ATOM      1  C   LIG d   1      -6.483  77.651 116.868  0.00  0.00     0.161 C 
ATOM      2  C   LIG d   1      -5.322  77.782 116.087  0.00  0.00     0.016 C 
ATOM      3  C   LIG d   1      -4.260  78.656 116.413  0.00  0.00     0.038 C 
ATOM      4  C   LIG d   1      -4.219  79.352 117.631  0.00  0.00     0.028 C 
ATOM      5  C   LIG d   1      -5.599  79.636 118.213  0.00  0.00    -0.047 C 
ATOM      6  C   LIG d   1      -6.407  78.318 118.257  0.00  0.00     0.091 C 
ENDROOT
BRANCH   1   7
ATOM      7  O   LIG d   1      -6.828  76.258 116.999  0.00  0.00    -0.368 OA
BRANCH   7   8
ATOM      8  C   LIG d   1      -7.392  75.627 115.823  0.00  0.00     0.119 C 
BRANCH   8   9
ATOM      9  C   LIG d   1      -8.742  75.006 116.234  0.00  0.00     0.028 C 
ATOM     10  C   LIG d   1      -9.559  75.933 117.150  0.00  0.00     0.006 C 
ENDBRANCH   8   9
BRANCH   8  11
ATOM     11  C   LIG d   1      -6.531  74.451 115.354  0.00  0.00     0.028 C 
ATOM     12  C   LIG d   1      -5.547  74.841 114.240  0.00  0.00     0.006 C 
ENDBRANCH   8  11
ENDBRANCH   7   8
ENDBRANCH   1   7
BRANCH   6  13
ATOM     13  N   LIG d   1      -7.799  78.522 118.735  0.00  0.00    -0.311 N 
ATOM     14  C   LIG d   1      -8.602  79.478 118.269  0.00  0.00     0.210 C 
ATOM     15  C   LIG d   1      -9.991  79.526 118.912  0.00  0.00     0.109 C 
ATOM     16  O   LIG d   1      -8.306  80.269 117.361  0.00  0.00    -0.276 OA
ATOM     17  H   LIG d   1      -8.131  77.904 119.449  0.00  0.00     0.149 HD
ENDBRANCH   6  13
BRANCH   5  18
ATOM     18  N   LIG d   1      -5.406  80.240 119.544  0.00  0.00     0.381 N 
ATOM     19  H   LIG d   1      -5.083  79.546 120.188  0.00  0.00    -0.090 HD
ATOM     20  H   LIG d   1      -6.289  80.589 119.874  0.00  0.00    -0.090 HD
ATOM     21  H   LIG d   1      -4.746  80.985 119.488  0.00  0.00    -0.090 HD
ENDBRANCH   5  18
BRANCH   3  22
ATOM     22  C   LIG d   1      -3.241  78.872 115.497  0.00  0.00     0.382 C 
ATOM     23  O   LIG d   1      -2.168  78.228 115.589  0.00  0.00    -0.241 OA
ATOM     24  O   LIG d   1      -3.365  79.734 114.606  0.00  0.00    -0.241 OA
ENDBRANCH   3  22
TORSDOF 7
ENDMDL
