MODEL 1
REMARK VINA RESULT:      -4.8      0.000      0.000
REMARK  7 active torsions:
REMARK  status: ('A' for Active; 'I' for Inactive)
REMARK    1  A    between atoms: C_2  and  C_3 
REMARK    2  A    between atoms: C_3  and  O_6 
REMARK    3  A    between atoms: C_3  and  C_4 
REMARK    4  A    between atoms: C_7  and  O_6 
REMARK    5  A    between atoms: C_9  and  C_10 
REMARK    6  A    between atoms: N_15  and  C_14 
REMARK    7  A    between atoms: N_20  and  C_19 
REMARK       I    between atoms: C_22  and  N_20 
ROOT
ATOM      1  C   LIG d   1      -2.319  75.941 115.655  0.00  0.00     0.161 C 
ATOM      2  C   LIG d   1      -2.226  75.235 116.866  0.00  0.00     0.016 C 
ATOM      3  C   LIG d   1      -1.384  75.625 117.932  0.00  0.00     0.038 C 
ATOM      4  C   LIG d   1      -0.685  76.842 117.917  0.00  0.00     0.028 C 
ATOM      5  C   LIG d   1      -0.357  77.335 116.512  0.00  0.00    -0.047 C 
ATOM      6  C   LIG d   1      -1.649  77.331 115.664  0.00  0.00     0.091 C 
ENDROOT
BRANCH   1   7
ATOM      7  O   LIG d   1      -3.701  76.054 115.260  0.00  0.00    -0.368 OA
BRANCH   7   8
ATOM      8  C   LIG d   1      -4.677  75.979 116.328  0.00  0.00     0.119 C 
BRANCH   8   9
ATOM      9  C   LIG d   1      -5.918  75.254 115.771  0.00  0.00     0.028 C 
ATOM     10  C   LIG d   1      -5.553  74.181 114.731  0.00  0.00     0.006 C 
ENDBRANCH   8   9
BRANCH   8  11
ATOM     11  C   LIG d   1      -5.169  77.372 116.732  0.00  0.00     0.028 C 
ATOM     12  C   LIG d   1      -4.570  77.853 118.063  0.00  0.00     0.006 C 
ENDBRANCH   8  11
ENDBRANCH   7   8
ENDBRANCH   1   7
BRANCH   6  13
ATOM     13  N   LIG d   1      -1.401  77.720 114.251  0.00  0.00    -0.311 N 
ATOM     14  C   LIG d   1      -2.105  78.654 113.614  0.00  0.00     0.210 C 
ATOM     15  C   LIG d   1      -1.698  78.886 112.155  0.00  0.00     0.109 C 
ATOM     16  O   LIG d   1      -3.006  79.334 114.127  0.00  0.00    -0.276 OA
ATOM     17  H   LIG d   1      -0.667  77.240 113.768  0.00  0.00     0.149 HD
ENDBRANCH   6  13
BRANCH   5  18
ATOM     18  N   LIG d   1       0.247  78.675 116.640  0.00  0.00     0.381 N 
ATOM     19  H   LIG d   1       0.039  79.219 115.826  0.00  0.00    -0.090 HD
ATOM     20  H   LIG d   1       1.245  78.577 116.707  0.00  0.00    -0.090 HD
ATOM     21  H   LIG d   1      -0.105  79.131 117.452  0.00  0.00    -0.090 HD
ENDBRANCH   5  18
BRANCH   3  22
ATOM     22  C   LIG d   1      -1.203  74.775 119.012  0.00  0.00     0.382 C 
ATOM     23  O   LIG d   1      -0.065  74.307 119.258  0.00  0.00    -0.241 OA
ATOM     24  O   LIG d   1      -2.171  74.434 119.717  0.00  0.00    -0.241 OA
ENDBRANCH   3  22
TORSDOF 7
ENDMDL
MODEL 2
REMARK VINA RESULT:      -4.6      1.903      4.915
REMARK  7 active torsions:
REMARK  status: ('A' for Active; 'I' for Inactive)
REMARK    1  A    between atoms: C_2  and  C_3 
REMARK    2  A    between atoms: C_3  and  O_6 
REMARK    3  A    between atoms: C_3  and  C_4 
REMARK    4  A    between atoms: C_7  and  O_6 
REMARK    5  A    between atoms: C_9  and  C_10 
REMARK    6  A    between atoms: N_15  and  C_14 
REMARK    7  A    between atoms: N_20  and  C_19 
REMARK       I    between atoms: C_22  and  N_20 
ROOT
ATOM      1  C   LIG d   1      -2.762  76.431 116.821  0.00  0.00     0.161 C 
ATOM      2  C   LIG d   1      -2.818  77.403 115.809  0.00  0.00     0.016 C 
ATOM      3  C   LIG d   1      -1.994  77.379 114.660  0.00  0.00     0.038 C 
ATOM      4  C   LIG d   1      -1.157  76.291 114.371  0.00  0.00     0.028 C 
ATOM      5  C   LIG d   1      -0.697  75.533 115.612  0.00  0.00    -0.047 C 
ATOM      6  C   LIG d   1      -1.933  75.177 116.469  0.00  0.00     0.091 C 
ENDROOT
BRANCH   1   7
ATOM      7  O   LIG d   1      -4.097  76.055 117.213  0.00  0.00    -0.368 OA
BRANCH   7   8
ATOM      8  C   LIG d   1      -5.169  76.540 116.368  0.00  0.00     0.119 C 
BRANCH   8   9
ATOM      9  C   LIG d   1      -6.199  77.235 117.279  0.00  0.00     0.028 C 
ATOM     10  C   LIG d   1      -5.741  78.635 117.722  0.00  0.00     0.006 C 
ENDBRANCH   8   9
BRANCH   8  11
ATOM     11  C   LIG d   1      -5.926  75.383 115.709  0.00  0.00     0.028 C 
ATOM     12  C   LIG d   1      -5.152  74.754 114.539  0.00  0.00     0.006 C 
ENDBRANCH   8  11
ENDBRANCH   7   8
ENDBRANCH   1   7
BRANCH   6  13
ATOM     13  N   LIG d   1      -1.566  74.508 117.744  0.00  0.00    -0.311 N 
ATOM     14  C   LIG d   1      -0.786  75.068 118.667  0.00  0.00     0.210 C 
ATOM     15  C   LIG d   1      -0.515  74.198 119.899  0.00  0.00     0.109 C 
ATOM     16  O   LIG d   1      -0.319  76.215 118.598  0.00  0.00    -0.276 OA
ATOM     17  H   LIG d   1      -1.927  73.587 117.897  0.00  0.00     0.149 HD
ENDBRANCH   6  13
BRANCH   5  18
ATOM     18  N   LIG d   1       0.053  74.347 115.158  0.00  0.00     0.381 N 
ATOM     19  H   LIG d   1       0.837  74.633 114.607  0.00  0.00    -0.090 HD
ATOM     20  H   LIG d   1      -0.548  73.783 114.582  0.00  0.00    -0.090 HD
ATOM     21  H   LIG d   1       0.364  73.819 115.943  0.00  0.00    -0.090 HD
ENDBRANCH   5  18
BRANCH   3  22
ATOM     22  C   LIG d   1      -1.973  78.471 113.806  0.00  0.00     0.382 C 
ATOM     23  O   LIG d   1      -2.889  78.625 112.963  0.00  0.00    -0.241 OA
ATOM     24  O   LIG d   1      -1.027  79.281 113.839  0.00  0.00    -0.241 OA
ENDBRANCH   3  22
TORSDOF 7
ENDMDL
MODEL 3
REMARK VINA RESULT:      -4.3      2.628      5.417
REMARK  7 active torsions:
REMARK  status: ('A' for Active; 'I' for Inactive)
REMARK    1  A    between atoms: C_2  and  C_3 
REMARK    2  A    between atoms: C_3  and  O_6 
REMARK    3  A    between atoms: C_3  and  C_4 
REMARK    4  A    between atoms: C_7  and  O_6 
REMARK    5  A    between atoms: C_9  and  C_10 
REMARK    6  A    between atoms: N_15  and  C_14 
REMARK    7  A    between atoms: N_20  and  C_19 
REMARK       I    between atoms: C_22  and  N_20 
ROOT
ATOM      1  C   LIG d   1      -3.858  76.921 117.274  0.00  0.00     0.161 C 
ATOM      2  C   LIG d   1      -5.068  77.388 117.812  0.00  0.00     0.016 C 
ATOM      3  C   LIG d   1      -6.334  77.089 117.257  0.00  0.00     0.038 C 
ATOM      4  C   LIG d   1      -6.484  76.172 116.206  0.00  0.00     0.028 C 
ATOM      5  C   LIG d   1      -5.254  76.071 115.310  0.00  0.00    -0.047 C 
ATOM      6  C   LIG d   1      -4.009  75.830 116.194  0.00  0.00     0.091 C 
ENDROOT
BRANCH   1   7
ATOM      7  O   LIG d   1      -2.997  76.461 118.334  0.00  0.00    -0.368 OA
BRANCH   7   8
ATOM      8  C   LIG d   1      -2.013  77.411 118.814  0.00  0.00     0.119 C 
BRANCH   8   9
ATOM      9  C   LIG d   1      -1.617  78.307 117.625  0.00  0.00     0.028 C 
ATOM     10  C   LIG d   1      -0.132  78.162 117.250  0.00  0.00     0.006 C 
ENDBRANCH   8   9
BRANCH   8  11
ATOM     11  C   LIG d   1      -0.721  76.707 119.240  0.00  0.00     0.028 C 
ATOM     12  C   LIG d   1      -0.972  75.325 119.862  0.00  0.00     0.006 C 
ENDBRANCH   8  11
ENDBRANCH   7   8
ENDBRANCH   1   7
BRANCH   6  13
ATOM     13  N   LIG d   1      -2.750  75.802 115.404  0.00  0.00    -0.311 N 
ATOM     14  C   LIG d   1      -1.719  75.012 115.695  0.00  0.00     0.210 C 
ATOM     15  C   LIG d   1      -0.510  75.155 114.765  0.00  0.00     0.109 C 
ATOM     16  O   LIG d   1      -1.702  74.182 116.618  0.00  0.00    -0.276 OA
ATOM     17  H   LIG d   1      -2.690  76.421 114.619  0.00  0.00     0.149 HD
ENDBRANCH   6  13
BRANCH   5  18
ATOM     18  N   LIG d   1      -5.495  74.984 114.343  0.00  0.00     0.381 N 
ATOM     19  H   LIG d   1      -5.270  74.103 114.760  0.00  0.00    -0.090 HD
ATOM     20  H   LIG d   1      -4.897  75.118 113.546  0.00  0.00    -0.090 HD
ATOM     21  H   LIG d   1      -6.449  74.989 114.055  0.00  0.00    -0.090 HD
ENDBRANCH   5  18
BRANCH   3  22
ATOM     22  C   LIG d   1      -7.463  77.741 117.728  0.00  0.00     0.382 C 
ATOM     23  O   LIG d   1      -7.435  78.980 117.925  0.00  0.00    -0.241 OA
ATOM     24  O   LIG d   1      -8.495  77.100 118.002  0.00  0.00    -0.241 OA
ENDBRANCH   3  22
TORSDOF 7
ENDMDL
MODEL 4
REMARK VINA RESULT:      -4.3      2.811      4.860
REMARK  7 active torsions:
REMARK  status: ('A' for Active; 'I' for Inactive)
REMARK    1  A    between atoms: C_2  and  C_3 
REMARK    2  A    between atoms: C_3  and  O_6 
REMARK    3  A    between atoms: C_3  and  C_4 
REMARK    4  A    between atoms: C_7  and  O_6 
REMARK    5  A    between atoms: C_9  and  C_10 
REMARK    6  A    between atoms: N_15  and  C_14 
REMARK    7  A    between atoms: N_20  and  C_19 
REMARK       I    between atoms: C_22  and  N_20 
ROOT
ATOM      1  C   LIG d   1      -4.507  77.311 117.070  0.00  0.00     0.161 C 
ATOM      2  C   LIG d   1      -5.878  77.600 117.175  0.00  0.00     0.016 C 
ATOM      3  C   LIG d   1      -6.410  78.511 118.115  0.00  0.00     0.038 C 
ATOM      4  C   LIG d   1      -5.587  79.314 118.919  0.00  0.00     0.028 C 
ATOM      5  C   LIG d   1      -4.224  78.692 119.201  0.00  0.00    -0.047 C 
ATOM      6  C   LIG d   1      -3.583  78.259 117.862  0.00  0.00     0.091 C 
ENDROOT
BRANCH   1   7
ATOM      7  O   LIG d   1      -4.120  77.278 115.681  0.00  0.00    -0.368 OA
BRANCH   7   8
ATOM      8  C   LIG d   1      -3.864  75.966 115.122  0.00  0.00     0.119 C 
BRANCH   8   9
ATOM      9  C   LIG d   1      -5.186  75.453 114.520  0.00  0.00     0.028 C 
ATOM     10  C   LIG d   1      -5.735  74.227 115.270  0.00  0.00     0.006 C 
ENDBRANCH   8   9
BRANCH   8  11
ATOM     11  C   LIG d   1      -3.496  74.957 116.213  0.00  0.00     0.028 C 
ATOM     12  C   LIG d   1      -2.039  74.479 116.116  0.00  0.00     0.006 C 
ENDBRANCH   8  11
ENDBRANCH   7   8
ENDBRANCH   1   7
BRANCH   6  13
ATOM     13  N   LIG d   1      -2.283  77.564 118.054  0.00  0.00    -0.311 N 
ATOM     14  C   LIG d   1      -1.216  77.782 117.288  0.00  0.00     0.210 C 
ATOM     15  C   LIG d   1       0.017  76.945 117.645  0.00  0.00     0.109 C 
ATOM     16  O   LIG d   1      -1.162  78.612 116.369  0.00  0.00    -0.276 OA
ATOM     17  H   LIG d   1      -2.229  76.896 118.798  0.00  0.00     0.149 HD
ENDBRANCH   6  13
BRANCH   5  18
ATOM     18  N   LIG d   1      -3.420  79.691 119.930  0.00  0.00     0.381 N 
ATOM     19  H   LIG d   1      -2.534  79.807 119.479  0.00  0.00    -0.090 HD
ATOM     20  H   LIG d   1      -3.257  79.358 120.864  0.00  0.00    -0.090 HD
ATOM     21  H   LIG d   1      -3.903  80.561 119.959  0.00  0.00    -0.090 HD
ENDBRANCH   5  18
BRANCH   3  22
ATOM     22  C   LIG d   1      -7.784  78.598 118.287  0.00  0.00     0.382 C 
ATOM     23  O   LIG d   1      -8.377  79.679 118.059  0.00  0.00    -0.241 OA
ATOM     24  O   LIG d   1      -8.430  77.620 118.709  0.00  0.00    -0.241 OA
ENDBRANCH   3  22
TORSDOF 7
ENDMDL
MODEL 5
REMARK VINA RESULT:      -4.3      2.181      5.269
REMARK  7 active torsions:
REMARK  status: ('A' for Active; 'I' for Inactive)
REMARK    1  A    between atoms: C_2  and  C_3 
REMARK    2  A    between atoms: C_3  and  O_6 
REMARK    3  A    between atoms: C_3  and  C_4 
REMARK    4  A    between atoms: C_7  and  O_6 
REMARK    5  A    between atoms: C_9  and  C_10 
REMARK    6  A    between atoms: N_15  and  C_14 
REMARK    7  A    between atoms: N_20  and  C_19 
REMARK       I    between atoms: C_22  and  N_20 
ROOT
ATOM      1  C   LIG d   1      -2.975  77.914 116.155  0.00  0.00     0.161 C 
ATOM      2  C   LIG d   1      -3.156  78.660 114.979  0.00  0.00     0.016 C 
ATOM      3  C   LIG d   1      -2.424  78.431 113.791  0.00  0.00     0.038 C 
ATOM      4  C   LIG d   1      -1.562  77.333 113.652  0.00  0.00     0.028 C 
ATOM      5  C   LIG d   1      -0.972  76.855 114.974  0.00  0.00    -0.047 C 
ATOM      6  C   LIG d   1      -2.119  76.641 115.988  0.00  0.00     0.091 C 
ENDROOT
BRANCH   1   7
ATOM      7  O   LIG d   1      -4.256  77.584 116.727  0.00  0.00    -0.368 OA
BRANCH   7   8
ATOM      8  C   LIG d   1      -4.751  78.488 117.746  0.00  0.00     0.119 C 
BRANCH   8   9
ATOM      9  C   LIG d   1      -4.401  77.877 119.116  0.00  0.00     0.028 C 
ATOM     10  C   LIG d   1      -3.109  78.466 119.709  0.00  0.00     0.006 C 
ENDBRANCH   8   9
BRANCH   8  11
ATOM     11  C   LIG d   1      -6.280  78.574 117.719  0.00  0.00     0.028 C 
ATOM     12  C   LIG d   1      -6.810  79.923 118.230  0.00  0.00     0.006 C 
ENDBRANCH   8  11
ENDBRANCH   7   8
ENDBRANCH   1   7
BRANCH   6  13
ATOM     13  N   LIG d   1      -1.621  76.254 117.334  0.00  0.00    -0.311 N 
ATOM     14  C   LIG d   1      -1.904  75.088 117.913  0.00  0.00     0.210 C 
ATOM     15  C   LIG d   1      -1.307  74.898 119.311  0.00  0.00     0.109 C 
ATOM     16  O   LIG d   1      -2.567  74.180 117.388  0.00  0.00    -0.276 OA
ATOM     17  H   LIG d   1      -1.050  76.919 117.818  0.00  0.00     0.149 HD
ENDBRANCH   6  13
BRANCH   5  18
ATOM     18  N   LIG d   1      -0.205  75.625 114.701  0.00  0.00     0.381 N 
ATOM     19  H   LIG d   1       0.396  75.421 115.475  0.00  0.00    -0.090 HD
ATOM     20  H   LIG d   1       0.367  75.772 113.888  0.00  0.00    -0.090 HD
ATOM     21  H   LIG d   1      -0.827  74.863 114.545  0.00  0.00    -0.090 HD
ENDBRANCH   5  18
BRANCH   3  22
ATOM     22  C   LIG d   1      -2.522  79.329 112.740  0.00  0.00     0.382 C 
ATOM     23  O   LIG d   1      -1.859  79.141 111.691  0.00  0.00    -0.241 OA
ATOM     24  O   LIG d   1      -3.230  80.349 112.844  0.00  0.00    -0.241 OA
ENDBRANCH   3  22
TORSDOF 7
ENDMDL
MODEL 6
REMARK VINA RESULT:      -4.2      2.577      4.662
REMARK  7 active torsions:
REMARK  status: ('A' for Active; 'I' for Inactive)
REMARK    1  A    between atoms: C_2  and  C_3 
REMARK    2  A    between atoms: C_3  and  O_6 
REMARK    3  A    between atoms: C_3  and  C_4 
REMARK    4  A    between atoms: C_7  and  O_6 
REMARK    5  A    between atoms: C_9  and  C_10 
REMARK    6  A    between atoms: N_15  and  C_14 
REMARK    7  A    between atoms: N_20  and  C_19 
REMARK       I    between atoms: C_22  and  N_20 
ROOT
ATOM      1  C   LIG d   1      -2.057  77.646 115.335  0.00  0.00     0.161 C 
ATOM      2  C   LIG d   1      -3.215  78.194 115.911  0.00  0.00     0.016 C 
ATOM      3  C   LIG d   1      -3.586  77.988 117.259  0.00  0.00     0.038 C 
ATOM      4  C   LIG d   1      -2.739  77.340 118.170  0.00  0.00     0.028 C 
ATOM      5  C   LIG d   1      -1.797  76.337 117.514  0.00  0.00    -0.047 C 
ATOM      6  C   LIG d   1      -1.064  77.029 116.342  0.00  0.00     0.091 C 
ENDROOT
BRANCH   1   7
ATOM      7  O   LIG d   1      -1.397  78.639 114.525  0.00  0.00    -0.368 OA
BRANCH   7   8
ATOM      8  C   LIG d   1      -2.052  78.983 113.279  0.00  0.00     0.119 C 
BRANCH   8   9
ATOM      9  C   LIG d   1      -2.270  77.675 112.494  0.00  0.00     0.028 C 
ATOM     10  C   LIG d   1      -1.943  77.827 110.999  0.00  0.00     0.006 C 
ENDBRANCH   8   9
BRANCH   8  11
ATOM     11  C   LIG d   1      -1.147  79.843 112.392  0.00  0.00     0.028 C 
ATOM     12  C   LIG d   1      -1.269  81.345 112.694  0.00  0.00     0.006 C 
ENDBRANCH   8  11
ENDBRANCH   7   8
ENDBRANCH   1   7
BRANCH   6  13
ATOM     13  N   LIG d   1      -0.185  76.094 115.591  0.00  0.00    -0.311 N 
ATOM     14  C   LIG d   1      -0.646  75.064 114.883  0.00  0.00     0.210 C 
ATOM     15  C   LIG d   1       0.432  74.214 114.203  0.00  0.00     0.109 C 
ATOM     16  O   LIG d   1      -1.846  74.793 114.727  0.00  0.00    -0.276 OA
ATOM     17  H   LIG d   1       0.801  76.259 115.638  0.00  0.00     0.149 HD
ENDBRANCH   6  13
BRANCH   5  18
ATOM     18  N   LIG d   1      -0.879  75.838 118.555  0.00  0.00     0.381 N 
ATOM     19  H   LIG d   1      -1.207  74.959 118.903  0.00  0.00    -0.090 HD
ATOM     20  H   LIG d   1      -0.866  76.493 119.317  0.00  0.00    -0.090 HD
ATOM     21  H   LIG d   1       0.038  75.734 118.181  0.00  0.00    -0.090 HD
ENDBRANCH   5  18
BRANCH   3  22
ATOM     22  C   LIG d   1      -4.835  78.399 117.699  0.00  0.00     0.382 C 
ATOM     23  O   LIG d   1      -5.828  78.314 116.937  0.00  0.00    -0.241 OA
ATOM     24  O   LIG d   1      -4.974  78.895 118.834  0.00  0.00    -0.241 OA
ENDBRANCH   3  22
TORSDOF 7
ENDMDL
MODEL 7
REMARK VINA RESULT:      -4.2      3.036      5.656
REMARK  7 active torsions:
REMARK  status: ('A' for Active; 'I' for Inactive)
REMARK    1  A    between atoms: C_2  and  C_3 
REMARK    2  A    between atoms: C_3  and  O_6 
REMARK    3  A    between atoms: C_3  and  C_4 
REMARK    4  A    between atoms: C_7  and  O_6 
REMARK    5  A    between atoms: C_9  and  C_10 
REMARK    6  A    between atoms: N_15  and  C_14 
REMARK    7  A    between atoms: N_20  and  C_19 
REMARK       I    between atoms: C_22  and  N_20 
ROOT
ATOM      1  C   LIG d   1      -3.868  77.807 117.446  0.00  0.00     0.161 C 
ATOM      2  C   LIG d   1      -5.014  78.446 117.949  0.00  0.00     0.016 C 
ATOM      3  C   LIG d   1      -6.330  78.006 117.683  0.00  0.00     0.038 C 
ATOM      4  C   LIG d   1      -6.588  76.799 117.015  0.00  0.00     0.028 C 
ATOM      5  C   LIG d   1      -5.476  76.388 116.057  0.00  0.00    -0.047 C 
ATOM      6  C   LIG d   1      -4.126  76.425 116.809  0.00  0.00     0.091 C 
ENDROOT
BRANCH   1   7
ATOM      7  O   LIG d   1      -2.872  77.702 118.483  0.00  0.00    -0.368 OA
BRANCH   7   8
ATOM      8  C   LIG d   1      -1.751  78.615 118.385  0.00  0.00     0.119 C 
BRANCH   8   9
ATOM      9  C   LIG d   1      -0.489  77.771 118.124  0.00  0.00     0.028 C 
ATOM     10  C   LIG d   1      -0.429  76.515 119.009  0.00  0.00     0.006 C 
ENDBRANCH   8   9
BRANCH   8  11
ATOM     11  C   LIG d   1      -1.494  79.328 119.716  0.00  0.00     0.028 C 
ATOM     12  C   LIG d   1      -1.074  80.795 119.534  0.00  0.00     0.006 C 
ENDBRANCH   8  11
ENDBRANCH   7   8
ENDBRANCH   1   7
BRANCH   6  13
ATOM     13  N   LIG d   1      -2.974  76.118 115.922  0.00  0.00    -0.311 N 
ATOM     14  C   LIG d   1      -2.189  75.054 116.083  0.00  0.00     0.210 C 
ATOM     15  C   LIG d   1      -1.046  74.935 115.069  0.00  0.00     0.109 C 
ATOM     16  O   LIG d   1      -2.350  74.180 116.948  0.00  0.00    -0.276 OA
ATOM     17  H   LIG d   1      -2.790  76.758 115.174  0.00  0.00     0.149 HD
ENDBRANCH   6  13
BRANCH   5  18
ATOM     18  N   LIG d   1      -5.809  75.049 115.535  0.00  0.00     0.381 N 
ATOM     19  H   LIG d   1      -6.707  75.072 115.093  0.00  0.00    -0.090 HD
ATOM     20  H   LIG d   1      -5.852  74.402 116.303  0.00  0.00    -0.090 HD
ATOM     21  H   LIG d   1      -5.117  74.755 114.882  0.00  0.00    -0.090 HD
ENDBRANCH   5  18
BRANCH   3  22
ATOM     22  C   LIG d   1      -7.407  78.797 118.052  0.00  0.00     0.382 C 
ATOM     23  O   LIG d   1      -7.300  80.047 118.041  0.00  0.00    -0.241 OA
ATOM     24  O   LIG d   1      -8.471  78.277 118.437  0.00  0.00    -0.241 OA
ENDBRANCH   3  22
TORSDOF 7
ENDMDL
MODEL 8
REMARK VINA RESULT:      -4.1      1.843      4.946
REMARK  7 active torsions:
REMARK  status: ('A' for Active; 'I' for Inactive)
REMARK    1  A    between atoms: C_2  and  C_3 
REMARK    2  A    between atoms: C_3  and  O_6 
REMARK    3  A    between atoms: C_3  and  C_4 
REMARK    4  A    between atoms: C_7  and  O_6 
REMARK    5  A    between atoms: C_9  and  C_10 
REMARK    6  A    between atoms: N_15  and  C_14 
REMARK    7  A    between atoms: N_20  and  C_19 
REMARK       I    between atoms: C_22  and  N_20 
ROOT
ATOM      1  C   LIG d   1      -3.498  77.745 116.189  0.00  0.00     0.161 C 
ATOM      2  C   LIG d   1      -3.438  78.410 114.953  0.00  0.00     0.016 C 
ATOM      3  C   LIG d   1      -2.335  78.319 114.073  0.00  0.00     0.038 C 
ATOM      4  C   LIG d   1      -1.274  77.430 114.303  0.00  0.00     0.028 C 
ATOM      5  C   LIG d   1      -1.054  77.118 115.779  0.00  0.00    -0.047 C 
ATOM      6  C   LIG d   1      -2.399  76.683 116.406  0.00  0.00     0.091 C 
ENDROOT
BRANCH   1   7
ATOM      7  O   LIG d   1      -4.802  77.158 116.365  0.00  0.00    -0.368 OA
BRANCH   7   8
ATOM      8  C   LIG d   1      -5.454  77.423 117.632  0.00  0.00     0.119 C 
BRANCH   8   9
ATOM      9  C   LIG d   1      -6.974  77.320 117.402  0.00  0.00     0.028 C 
ATOM     10  C   LIG d   1      -7.390  75.952 116.834  0.00  0.00     0.006 C 
ENDBRANCH   8   9
BRANCH   8  11
ATOM     11  C   LIG d   1      -5.210  78.862 118.094  0.00  0.00     0.028 C 
ATOM     12  C   LIG d   1      -6.508  79.676 118.217  0.00  0.00     0.006 C 
ENDBRANCH   8  11
ENDBRANCH   7   8
ENDBRANCH   1   7
BRANCH   6  13
ATOM     13  N   LIG d   1      -2.290  76.441 117.868  0.00  0.00    -0.311 N 
ATOM     14  C   LIG d   1      -2.115  75.232 118.400  0.00  0.00     0.210 C 
ATOM     15  C   LIG d   1      -2.049  75.202 119.930  0.00  0.00     0.109 C 
ATOM     16  O   LIG d   1      -1.975  74.186 117.748  0.00  0.00    -0.276 OA
ATOM     17  H   LIG d   1      -2.362  77.238 118.469  0.00  0.00     0.149 HD
ENDBRANCH   6  13
BRANCH   5  18
ATOM     18  N   LIG d   1      -0.013  76.077 115.865  0.00  0.00     0.381 N 
ATOM     19  H   LIG d   1       0.340  75.876 114.951  0.00  0.00    -0.090 HD
ATOM     20  H   LIG d   1      -0.421  75.238 116.237  0.00  0.00    -0.090 HD
ATOM     21  H   LIG d   1       0.729  76.385 116.455  0.00  0.00    -0.090 HD
ENDBRANCH   5  18
BRANCH   3  22
ATOM     22  C   LIG d   1      -2.267  79.153 112.967  0.00  0.00     0.382 C 
ATOM     23  O   LIG d   1      -2.849  80.264 112.984  0.00  0.00    -0.241 OA
ATOM     24  O   LIG d   1      -1.670  78.789 111.937  0.00  0.00    -0.241 OA
ENDBRANCH   3  22
TORSDOF 7
ENDMDL
MODEL 9
REMARK VINA RESULT:      -4.0      2.495      5.478
REMARK  7 active torsions:
REMARK  status: ('A' for Active; 'I' for Inactive)
REMARK    1  A    between atoms: C_2  and  C_3 
REMARK    2  A    between atoms: C_3  and  O_6 
REMARK    3  A    between atoms: C_3  and  C_4 
REMARK    4  A    between atoms: C_7  and  O_6 
REMARK    5  A    between atoms: C_9  and  C_10 
REMARK    6  A    between atoms: N_15  and  C_14 
REMARK    7  A    between atoms: N_20  and  C_19 
REMARK       I    between atoms: C_22  and  N_20 
ROOT
ATOM      1  C   LIG d   1      -1.882  77.780 114.939  0.00  0.00     0.161 C 
ATOM      2  C   LIG d   1      -1.105  78.816 114.394  0.00  0.00     0.016 C 
ATOM      3  C   LIG d   1      -1.376  79.416 113.143  0.00  0.00     0.038 C 
ATOM      4  C   LIG d   1      -2.540  79.123 112.416  0.00  0.00     0.028 C 
ATOM      5  C   LIG d   1      -3.086  77.725 112.686  0.00  0.00    -0.047 C 
ATOM      6  C   LIG d   1      -3.219  77.523 114.213  0.00  0.00     0.091 C 
ENDROOT
BRANCH   1   7
ATOM      7  O   LIG d   1      -2.112  78.028 116.340  0.00  0.00    -0.368 OA
BRANCH   7   8
ATOM      8  C   LIG d   1      -1.446  77.132 117.264  0.00  0.00     0.119 C 
BRANCH   8   9
ATOM      9  C   LIG d   1      -0.686  76.085 116.426  0.00  0.00     0.028 C 
ATOM     10  C   LIG d   1      -1.080  74.644 116.790  0.00  0.00     0.006 C 
ENDBRANCH   8   9
BRANCH   8  11
ATOM     11  C   LIG d   1      -2.457  76.333 118.091  0.00  0.00     0.028 C 
ATOM     12  C   LIG d   1      -3.853  76.975 118.110  0.00  0.00     0.006 C 
ENDBRANCH   8  11
ENDBRANCH   7   8
ENDBRANCH   1   7
BRANCH   6  13
ATOM     13  N   LIG d   1      -3.667  76.151 114.566  0.00  0.00    -0.311 N 
ATOM     14  C   LIG d   1      -4.944  75.822 114.750  0.00  0.00     0.210 C 
ATOM     15  C   LIG d   1      -5.186  74.357 115.129  0.00  0.00     0.109 C 
ATOM     16  O   LIG d   1      -5.902  76.595 114.603  0.00  0.00    -0.276 OA
ATOM     17  H   LIG d   1      -2.957  75.453 114.675  0.00  0.00     0.149 HD
ENDBRANCH   6  13
BRANCH   5  18
ATOM     18  N   LIG d   1      -4.371  77.603 111.972  0.00  0.00     0.381 N 
ATOM     19  H   LIG d   1      -4.905  78.440 112.091  0.00  0.00    -0.090 HD
ATOM     20  H   LIG d   1      -4.891  76.839 112.367  0.00  0.00    -0.090 HD
ATOM     21  H   LIG d   1      -4.209  77.439 111.003  0.00  0.00    -0.090 HD
ENDBRANCH   5  18
BRANCH   3  22
ATOM     22  C   LIG d   1      -0.457  80.293 112.588  0.00  0.00     0.382 C 
ATOM     23  O   LIG d   1       0.304  80.958 113.332  0.00  0.00    -0.241 OA
ATOM     24  O   LIG d   1      -0.409  80.461 111.354  0.00  0.00    -0.241 OA
ENDBRANCH   3  22
TORSDOF 7
ENDMDL
