MODEL 1
REMARK VINA RESULT:      -4.8      0.000      0.000
REMARK  7 active torsions:
REMARK  status: ('A' for Active; 'I' for Inactive)
REMARK    1  A    between atoms: C_2  and  C_3 
REMARK    2  A    between atoms: C_3  and  O_6 
REMARK    3  A    between atoms: C_3  and  C_4 
REMARK    4  A    between atoms: C_7  and  O_6 
REMARK    5  A    between atoms: C_9  and  C_10 
REMARK    6  A    between atoms: N_15  and  C_14 
REMARK    7  A    between atoms: N_20  and  C_19 
REMARK       I    between atoms: C_22  and  N_20 
ROOT
ATOM      1  C   LIG d   1      -3.022  78.536 115.603  0.00  0.00     0.161 C 
ATOM      2  C   LIG d   1      -3.188  79.665 114.783  0.00  0.00     0.016 C 
ATOM      3  C   LIG d   1      -2.784  79.710 113.429  0.00  0.00     0.038 C 
ATOM      4  C   LIG d   1      -2.321  78.569 112.755  0.00  0.00     0.028 C 
ATOM      5  C   LIG d   1      -1.666  77.546 113.677  0.00  0.00    -0.047 C 
ATOM      6  C   LIG d   1      -2.621  77.248 114.855  0.00  0.00     0.091 C 
ENDROOT
BRANCH   1   7
ATOM      7  O   LIG d   1      -4.218  78.315 116.377  0.00  0.00    -0.368 OA
BRANCH   7   8
ATOM      8  C   LIG d   1      -4.041  78.233 117.813  0.00  0.00     0.119 C 
BRANCH   8   9
ATOM      9  C   LIG d   1      -4.664  76.903 118.280  0.00  0.00     0.028 C 
ATOM     10  C   LIG d   1      -5.566  76.268 117.208  0.00  0.00     0.006 C 
ENDBRANCH   8   9
BRANCH   8  11
ATOM     11  C   LIG d   1      -4.832  79.327 118.535  0.00  0.00     0.028 C 
ATOM     12  C   LIG d   1      -5.667  80.190 117.576  0.00  0.00     0.006 C 
ENDBRANCH   8  11
ENDBRANCH   7   8
ENDBRANCH   1   7
BRANCH   6  13
ATOM     13  N   LIG d   1      -2.022  76.319 115.849  0.00  0.00    -0.311 N 
ATOM     14  C   LIG d   1      -2.249  75.006 115.855  0.00  0.00     0.210 C 
ATOM     15  C   LIG d   1      -1.549  74.235 116.979  0.00  0.00     0.109 C 
ATOM     16  O   LIG d   1      -2.937  74.403 115.018  0.00  0.00    -0.276 OA
ATOM     17  H   LIG d   1      -1.426  76.719 116.546  0.00  0.00     0.149 HD
ENDBRANCH   6  13
BRANCH   5  18
ATOM     18  N   LIG d   1      -1.356  76.352 112.868  0.00  0.00     0.381 N 
ATOM     19  H   LIG d   1      -1.863  75.564 113.218  0.00  0.00    -0.090 HD
ATOM     20  H   LIG d   1      -0.373  76.154 112.944  0.00  0.00    -0.090 HD
ATOM     21  H   LIG d   1      -1.596  76.514 111.915  0.00  0.00    -0.090 HD
ENDBRANCH   5  18
BRANCH   3  22
ATOM     22  C   LIG d   1      -2.804  80.916 112.745  0.00  0.00     0.382 C 
ATOM     23  O   LIG d   1      -3.864  81.584 112.683  0.00  0.00    -0.241 OA
ATOM     24  O   LIG d   1      -1.787  81.322 112.151  0.00  0.00    -0.241 OA
ENDBRANCH   3  22
TORSDOF 7
ENDMDL
MODEL 2
REMARK VINA RESULT:      -4.5      2.551      3.252
REMARK  7 active torsions:
REMARK  status: ('A' for Active; 'I' for Inactive)
REMARK    1  A    between atoms: C_2  and  C_3 
REMARK    2  A    between atoms: C_3  and  O_6 
REMARK    3  A    between atoms: C_3  and  C_4 
REMARK    4  A    between atoms: C_7  and  O_6 
REMARK    5  A    between atoms: C_9  and  C_10 
REMARK    6  A    between atoms: N_15  and  C_14 
REMARK    7  A    between atoms: N_20  and  C_19 
REMARK       I    between atoms: C_22  and  N_20 
ROOT
ATOM      1  C   LIG d   1      -3.876  75.997 115.861  0.00  0.00     0.161 C 
ATOM      2  C   LIG d   1      -4.158  76.440 114.558  0.00  0.00     0.016 C 
ATOM      3  C   LIG d   1      -3.185  76.999 113.698  0.00  0.00     0.038 C 
ATOM      4  C   LIG d   1      -1.822  77.013 114.031  0.00  0.00     0.028 C 
ATOM      5  C   LIG d   1      -1.566  77.040 115.534  0.00  0.00    -0.047 C 
ATOM      6  C   LIG d   1      -2.373  75.903 116.201  0.00  0.00     0.091 C 
ENDROOT
BRANCH   1   7
ATOM      7  O   LIG d   1      -4.523  74.731 116.098  0.00  0.00    -0.368 OA
BRANCH   7   8
ATOM      8  C   LIG d   1      -5.604  74.739 117.063  0.00  0.00     0.119 C 
BRANCH   8   9
ATOM      9  C   LIG d   1      -6.907  74.428 116.302  0.00  0.00     0.028 C 
ATOM     10  C   LIG d   1      -7.644  75.702 115.856  0.00  0.00     0.006 C 
ENDBRANCH   8   9
BRANCH   8  11
ATOM     11  C   LIG d   1      -5.807  76.134 117.662  0.00  0.00     0.028 C 
ATOM     12  C   LIG d   1      -5.959  76.110 119.191  0.00  0.00     0.006 C 
ENDBRANCH   8  11
ENDBRANCH   7   8
ENDBRANCH   1   7
BRANCH   6  13
ATOM     13  N   LIG d   1      -2.245  75.909 117.681  0.00  0.00    -0.311 N 
ATOM     14  C   LIG d   1      -1.309  75.229 118.339  0.00  0.00     0.210 C 
ATOM     15  C   LIG d   1      -1.367  75.358 119.865  0.00  0.00     0.109 C 
ATOM     16  O   LIG d   1      -0.415  74.556 117.803  0.00  0.00    -0.276 OA
ATOM     17  H   LIG d   1      -2.911  76.455 118.194  0.00  0.00     0.149 HD
ENDBRANCH   6  13
BRANCH   5  18
ATOM     18  N   LIG d   1      -0.111  76.913 115.740  0.00  0.00     0.381 N 
ATOM     19  H   LIG d   1       0.352  77.730 115.395  0.00  0.00    -0.090 HD
ATOM     20  H   LIG d   1       0.223  76.119 115.223  0.00  0.00    -0.090 HD
ATOM     21  H   LIG d   1       0.087  76.795 116.709  0.00  0.00    -0.090 HD
ENDBRANCH   5  18
BRANCH   3  22
ATOM     22  C   LIG d   1      -3.578  77.587 112.506  0.00  0.00     0.382 C 
ATOM     23  O   LIG d   1      -2.781  78.324 111.877  0.00  0.00    -0.241 OA
ATOM     24  O   LIG d   1      -4.736  77.427 112.074  0.00  0.00    -0.241 OA
ENDBRANCH   3  22
TORSDOF 7
ENDMDL
MODEL 3
REMARK VINA RESULT:      -4.5      2.600      3.827
REMARK  7 active torsions:
REMARK  status: ('A' for Active; 'I' for Inactive)
REMARK    1  A    between atoms: C_2  and  C_3 
REMARK    2  A    between atoms: C_3  and  O_6 
REMARK    3  A    between atoms: C_3  and  C_4 
REMARK    4  A    between atoms: C_7  and  O_6 
REMARK    5  A    between atoms: C_9  and  C_10 
REMARK    6  A    between atoms: N_15  and  C_14 
REMARK    7  A    between atoms: N_20  and  C_19 
REMARK       I    between atoms: C_22  and  N_20 
ROOT
ATOM      1  C   LIG d   1      -3.283  76.326 117.041  0.00  0.00     0.161 C 
ATOM      2  C   LIG d   1      -4.118  77.375 117.460  0.00  0.00     0.016 C 
ATOM      3  C   LIG d   1      -3.998  78.702 116.986  0.00  0.00     0.038 C 
ATOM      4  C   LIG d   1      -3.126  79.040 115.940  0.00  0.00     0.028 C 
ATOM      5  C   LIG d   1      -1.915  78.119 115.840  0.00  0.00    -0.047 C 
ATOM      6  C   LIG d   1      -2.400  76.652 115.818  0.00  0.00     0.091 C 
ENDROOT
BRANCH   1   7
ATOM      7  O   LIG d   1      -4.071  75.146 116.789  0.00  0.00    -0.368 OA
BRANCH   7   8
ATOM      8  C   LIG d   1      -5.336  75.356 116.115  0.00  0.00     0.119 C 
BRANCH   8   9
ATOM      9  C   LIG d   1      -6.416  74.598 116.910  0.00  0.00     0.028 C 
ATOM     10  C   LIG d   1      -6.410  74.964 118.404  0.00  0.00     0.006 C 
ENDBRANCH   8   9
BRANCH   8  11
ATOM     11  C   LIG d   1      -5.337  74.719 114.722  0.00  0.00     0.028 C 
ATOM     12  C   LIG d   1      -5.944  75.635 113.648  0.00  0.00     0.006 C 
ENDBRANCH   8  11
ENDBRANCH   7   8
ENDBRANCH   1   7
BRANCH   6  13
ATOM     13  N   LIG d   1      -1.273  75.682 115.806  0.00  0.00    -0.311 N 
ATOM     14  C   LIG d   1      -0.750  75.180 114.689  0.00  0.00     0.210 C 
ATOM     15  C   LIG d   1       0.392  74.181 114.902  0.00  0.00     0.109 C 
ATOM     16  O   LIG d   1      -1.101  75.492 113.541  0.00  0.00    -0.276 OA
ATOM     17  H   LIG d   1      -0.906  75.398 116.693  0.00  0.00     0.149 HD
ENDBRANCH   6  13
BRANCH   5  18
ATOM     18  N   LIG d   1      -1.166  78.498 114.627  0.00  0.00     0.381 N 
ATOM     19  H   LIG d   1      -0.815  77.678 114.175  0.00  0.00    -0.090 HD
ATOM     20  H   LIG d   1      -0.383  79.070 114.894  0.00  0.00    -0.090 HD
ATOM     21  H   LIG d   1      -1.758  79.002 114.004  0.00  0.00    -0.090 HD
ENDBRANCH   5  18
BRANCH   3  22
ATOM     22  C   LIG d   1      -4.727  79.716 117.588  0.00  0.00     0.382 C 
ATOM     23  O   LIG d   1      -5.719  80.209 116.999  0.00  0.00    -0.241 OA
ATOM     24  O   LIG d   1      -4.380  80.173 118.693  0.00  0.00    -0.241 OA
ENDBRANCH   3  22
TORSDOF 7
ENDMDL
MODEL 4
REMARK VINA RESULT:      -4.3      2.285      2.999
REMARK  7 active torsions:
REMARK  status: ('A' for Active; 'I' for Inactive)
REMARK    1  A    between atoms: C_2  and  C_3 
REMARK    2  A    between atoms: C_3  and  O_6 
REMARK    3  A    between atoms: C_3  and  C_4 
REMARK    4  A    between atoms: C_7  and  O_6 
REMARK    5  A    between atoms: C_9  and  C_10 
REMARK    6  A    between atoms: N_15  and  C_14 
REMARK    7  A    between atoms: N_20  and  C_19 
REMARK       I    between atoms: C_22  and  N_20 
ROOT
ATOM      1  C   LIG d   1      -2.943  76.925 115.334  0.00  0.00     0.161 C 
ATOM      2  C   LIG d   1      -3.214  77.792 114.262  0.00  0.00     0.016 C 
ATOM      3  C   LIG d   1      -2.380  78.877 113.909  0.00  0.00     0.038 C 
ATOM      4  C   LIG d   1      -1.131  79.080 114.514  0.00  0.00     0.028 C 
ATOM      5  C   LIG d   1      -1.051  78.534 115.936  0.00  0.00    -0.047 C 
ATOM      6  C   LIG d   1      -1.529  77.064 115.936  0.00  0.00     0.091 C 
ENDROOT
BRANCH   1   7
ATOM      7  O   LIG d   1      -3.187  75.562 114.934  0.00  0.00    -0.368 OA
BRANCH   7   8
ATOM      8  C   LIG d   1      -4.162  74.832 115.718  0.00  0.00     0.119 C 
BRANCH   8   9
ATOM      9  C   LIG d   1      -5.224  74.286 114.744  0.00  0.00     0.028 C 
ATOM     10  C   LIG d   1      -5.908  75.402 113.935  0.00  0.00     0.006 C 
ENDBRANCH   8   9
BRANCH   8  11
ATOM     11  C   LIG d   1      -4.923  75.763 116.667  0.00  0.00     0.028 C 
ATOM     12  C   LIG d   1      -5.898  75.009 117.586  0.00  0.00     0.006 C 
ENDBRANCH   8  11
ENDBRANCH   7   8
ENDBRANCH   1   7
BRANCH   6  13
ATOM     13  N   LIG d   1      -1.563  76.479 117.302  0.00  0.00    -0.311 N 
ATOM     14  C   LIG d   1      -0.903  75.373 117.642  0.00  0.00     0.210 C 
ATOM     15  C   LIG d   1      -1.089  74.930 119.096  0.00  0.00     0.109 C 
ATOM     16  O   LIG d   1      -0.155  74.735 116.886  0.00  0.00    -0.276 OA
ATOM     17  H   LIG d   1      -2.120  76.950 117.986  0.00  0.00     0.149 HD
ENDBRANCH   6  13
BRANCH   5  18
ATOM     18  N   LIG d   1       0.342  78.688 116.395  0.00  0.00     0.381 N 
ATOM     19  H   LIG d   1       0.591  77.921 116.986  0.00  0.00    -0.090 HD
ATOM     20  H   LIG d   1       0.416  79.536 116.930  0.00  0.00    -0.090 HD
ATOM     21  H   LIG d   1       0.957  78.727 115.612  0.00  0.00    -0.090 HD
ENDBRANCH   5  18
BRANCH   3  22
ATOM     22  C   LIG d   1      -2.812  79.798 112.966  0.00  0.00     0.382 C 
ATOM     23  O   LIG d   1      -2.308  79.802 111.817  0.00  0.00    -0.241 OA
ATOM     24  O   LIG d   1      -3.668  80.653 113.264  0.00  0.00    -0.241 OA
ENDBRANCH   3  22
TORSDOF 7
ENDMDL
MODEL 5
REMARK VINA RESULT:      -4.3      2.509      5.414
REMARK  7 active torsions:
REMARK  status: ('A' for Active; 'I' for Inactive)
REMARK    1  A    between atoms: C_2  and  C_3 
REMARK    2  A    between atoms: C_3  and  O_6 
REMARK    3  A    between atoms: C_3  and  C_4 
REMARK    4  A    between atoms: C_7  and  O_6 
REMARK    5  A    between atoms: C_9  and  C_10 
REMARK    6  A    between atoms: N_15  and  C_14 
REMARK    7  A    between atoms: N_20  and  C_19 
REMARK       I    between atoms: C_22  and  N_20 
ROOT
ATOM      1  C   LIG d   1      -2.358  75.218 115.321  0.00  0.00     0.161 C 
ATOM      2  C   LIG d   1      -1.899  74.731 116.556  0.00  0.00     0.016 C 
ATOM      3  C   LIG d   1      -1.184  75.520 117.486  0.00  0.00     0.038 C 
ATOM      4  C   LIG d   1      -1.010  76.900 117.308  0.00  0.00     0.028 C 
ATOM      5  C   LIG d   1      -1.015  77.328 115.844  0.00  0.00    -0.047 C 
ATOM      6  C   LIG d   1      -2.274  76.750 115.158  0.00  0.00     0.091 C 
ENDROOT
BRANCH   1   7
ATOM      7  O   LIG d   1      -3.705  74.762 115.086  0.00  0.00    -0.368 OA
BRANCH   7   8
ATOM      8  C   LIG d   1      -4.729  75.338 115.933  0.00  0.00     0.119 C 
BRANCH   8   9
ATOM      9  C   LIG d   1      -5.394  74.183 116.706  0.00  0.00     0.028 C 
ATOM     10  C   LIG d   1      -6.617  74.646 117.517  0.00  0.00     0.006 C 
ENDBRANCH   8   9
BRANCH   8  11
ATOM     11  C   LIG d   1      -5.851  75.968 115.102  0.00  0.00     0.028 C 
ATOM     12  C   LIG d   1      -5.766  75.601 113.612  0.00  0.00     0.006 C 
ENDBRANCH   8  11
ENDBRANCH   7   8
ENDBRANCH   1   7
BRANCH   6  13
ATOM     13  N   LIG d   1      -2.314  77.050 113.703  0.00  0.00    -0.311 N 
ATOM     14  C   LIG d   1      -2.871  78.148 113.196  0.00  0.00     0.210 C 
ATOM     15  C   LIG d   1      -2.822  78.253 111.668  0.00  0.00     0.109 C 
ATOM     16  O   LIG d   1      -3.374  79.061 113.868  0.00  0.00    -0.276 OA
ATOM     17  H   LIG d   1      -1.901  76.377 113.087  0.00  0.00     0.149 HD
ENDBRANCH   6  13
BRANCH   5  18
ATOM     18  N   LIG d   1      -0.963  78.801 115.810  0.00  0.00     0.381 N 
ATOM     19  H   LIG d   1      -0.632  79.149 116.688  0.00  0.00    -0.090 HD
ATOM     20  H   LIG d   1      -1.891  79.156 115.660  0.00  0.00    -0.090 HD
ATOM     21  H   LIG d   1      -0.361  79.104 115.076  0.00  0.00    -0.090 HD
ENDBRANCH   5  18
BRANCH   3  22
ATOM     22  C   LIG d   1      -0.601  74.919 118.592  0.00  0.00     0.382 C 
ATOM     23  O   LIG d   1      -1.068  75.126 119.737  0.00  0.00    -0.241 OA
ATOM     24  O   LIG d   1       0.415  74.209 118.462  0.00  0.00    -0.241 OA
ENDBRANCH   3  22
TORSDOF 7
ENDMDL
MODEL 6
REMARK VINA RESULT:      -4.3      2.773      3.286
REMARK  7 active torsions:
REMARK  status: ('A' for Active; 'I' for Inactive)
REMARK    1  A    between atoms: C_2  and  C_3 
REMARK    2  A    between atoms: C_3  and  O_6 
REMARK    3  A    between atoms: C_3  and  C_4 
REMARK    4  A    between atoms: C_7  and  O_6 
REMARK    5  A    between atoms: C_9  and  C_10 
REMARK    6  A    between atoms: N_15  and  C_14 
REMARK    7  A    between atoms: N_20  and  C_19 
REMARK       I    between atoms: C_22  and  N_20 
ROOT
ATOM      1  C   LIG d   1      -3.728  78.159 117.004  0.00  0.00     0.161 C 
ATOM      2  C   LIG d   1      -2.883  79.171 117.487  0.00  0.00     0.016 C 
ATOM      3  C   LIG d   1      -1.535  79.317 117.086  0.00  0.00     0.038 C 
ATOM      4  C   LIG d   1      -0.981  78.547 116.053  0.00  0.00     0.028 C 
ATOM      5  C   LIG d   1      -1.644  77.183 115.892  0.00  0.00    -0.047 C 
ATOM      6  C   LIG d   1      -3.175  77.377 115.794  0.00  0.00     0.091 C 
ENDROOT
BRANCH   1   7
ATOM      7  O   LIG d   1      -5.023  78.710 116.694  0.00  0.00    -0.368 OA
BRANCH   7   8
ATOM      8  C   LIG d   1      -6.056  78.508 117.690  0.00  0.00     0.119 C 
BRANCH   8   9
ATOM      9  C   LIG d   1      -7.010  77.423 117.155  0.00  0.00     0.028 C 
ATOM     10  C   LIG d   1      -6.810  76.068 117.855  0.00  0.00     0.006 C 
ENDBRANCH   8   9
BRANCH   8  11
ATOM     11  C   LIG d   1      -6.921  79.761 117.858  0.00  0.00     0.028 C 
ATOM     12  C   LIG d   1      -6.143  80.946 118.452  0.00  0.00     0.006 C 
ENDBRANCH   8  11
ENDBRANCH   7   8
ENDBRANCH   1   7
BRANCH   6  13
ATOM     13  N   LIG d   1      -3.906  76.086 115.719  0.00  0.00    -0.311 N 
ATOM     14  C   LIG d   1      -4.648  75.723 114.674  0.00  0.00     0.210 C 
ATOM     15  C   LIG d   1      -5.333  74.360 114.810  0.00  0.00     0.109 C 
ATOM     16  O   LIG d   1      -4.777  76.385 113.634  0.00  0.00    -0.276 OA
ATOM     17  H   LIG d   1      -3.831  75.473 116.507  0.00  0.00     0.149 HD
ENDBRANCH   6  13
BRANCH   5  18
ATOM     18  N   LIG d   1      -1.064  76.544 114.696  0.00  0.00     0.381 N 
ATOM     19  H   LIG d   1      -1.630  76.746 113.896  0.00  0.00    -0.090 HD
ATOM     20  H   LIG d   1      -1.054  75.548 114.832  0.00  0.00    -0.090 HD
ATOM     21  H   LIG d   1      -0.136  76.875 114.548  0.00  0.00    -0.090 HD
ENDBRANCH   5  18
BRANCH   3  22
ATOM     22  C   LIG d   1      -0.714  80.217 117.749  0.00  0.00     0.382 C 
ATOM     23  O   LIG d   1      -0.966  80.539 118.935  0.00  0.00    -0.241 OA
ATOM     24  O   LIG d   1       0.249  80.745 117.162  0.00  0.00    -0.241 OA
ENDBRANCH   3  22
TORSDOF 7
ENDMDL
MODEL 7
REMARK VINA RESULT:      -4.3      3.003      5.188
REMARK  7 active torsions:
REMARK  status: ('A' for Active; 'I' for Inactive)
REMARK    1  A    between atoms: C_2  and  C_3 
REMARK    2  A    between atoms: C_3  and  O_6 
REMARK    3  A    between atoms: C_3  and  C_4 
REMARK    4  A    between atoms: C_7  and  O_6 
REMARK    5  A    between atoms: C_9  and  C_10 
REMARK    6  A    between atoms: N_15  and  C_14 
REMARK    7  A    between atoms: N_20  and  C_19 
REMARK       I    between atoms: C_22  and  N_20 
ROOT
ATOM      1  C   LIG d   1      -3.522  75.226 115.425  0.00  0.00     0.161 C 
ATOM      2  C   LIG d   1      -4.811  75.446 114.911  0.00  0.00     0.016 C 
ATOM      3  C   LIG d   1      -5.890  75.918 115.693  0.00  0.00     0.038 C 
ATOM      4  C   LIG d   1      -5.714  76.348 117.017  0.00  0.00     0.028 C 
ATOM      5  C   LIG d   1      -4.545  75.671 117.724  0.00  0.00    -0.047 C 
ATOM      6  C   LIG d   1      -3.284  75.795 116.840  0.00  0.00     0.091 C 
ENDROOT
BRANCH   1   7
ATOM      7  O   LIG d   1      -2.536  75.737 114.507  0.00  0.00    -0.368 OA
BRANCH   7   8
ATOM      8  C   LIG d   1      -2.644  77.143 114.173  0.00  0.00     0.119 C 
BRANCH   8   9
ATOM      9  C   LIG d   1      -2.305  77.291 112.677  0.00  0.00     0.028 C 
ATOM     10  C   LIG d   1      -3.343  78.137 111.921  0.00  0.00     0.006 C 
ENDBRANCH   8   9
BRANCH   8  11
ATOM     11  C   LIG d   1      -1.590  77.974 114.911  0.00  0.00     0.028 C 
ATOM     12  C   LIG d   1      -2.205  79.100 115.757  0.00  0.00     0.006 C 
ENDBRANCH   8  11
ENDBRANCH   7   8
ENDBRANCH   1   7
BRANCH   6  13
ATOM     13  N   LIG d   1      -2.113  75.086 117.419  0.00  0.00    -0.311 N 
ATOM     14  C   LIG d   1      -1.187  75.686 118.164  0.00  0.00     0.210 C 
ATOM     15  C   LIG d   1      -0.053  74.775 118.645  0.00  0.00     0.109 C 
ATOM     16  O   LIG d   1      -1.213  76.880 118.498  0.00  0.00    -0.276 OA
ATOM     17  H   LIG d   1      -2.030  74.107 117.223  0.00  0.00     0.149 HD
ENDBRANCH   6  13
BRANCH   5  18
ATOM     18  N   LIG d   1      -4.391  76.311 119.044  0.00  0.00     0.381 N 
ATOM     19  H   LIG d   1      -4.831  75.750 119.746  0.00  0.00    -0.090 HD
ATOM     20  H   LIG d   1      -4.846  77.207 119.026  0.00  0.00    -0.090 HD
ATOM     21  H   LIG d   1      -3.425  76.425 119.257  0.00  0.00    -0.090 HD
ENDBRANCH   5  18
BRANCH   3  22
ATOM     22  C   LIG d   1      -7.171  75.925 115.163  0.00  0.00     0.382 C 
ATOM     23  O   LIG d   1      -7.354  76.267 113.970  0.00  0.00    -0.241 OA
ATOM     24  O   LIG d   1      -8.151  75.636 115.875  0.00  0.00    -0.241 OA
ENDBRANCH   3  22
TORSDOF 7
ENDMDL
MODEL 8
REMARK VINA RESULT:      -4.1      3.116      5.661
REMARK  7 active torsions:
REMARK  status: ('A' for Active; 'I' for Inactive)
REMARK    1  A    between atoms: C_2  and  C_3 
REMARK    2  A    between atoms: C_3  and  O_6 
REMARK    3  A    between atoms: C_3  and  C_4 
REMARK    4  A    between atoms: C_7  and  O_6 
REMARK    5  A    between atoms: C_9  and  C_10 
REMARK    6  A    between atoms: N_15  and  C_14 
REMARK    7  A    between atoms: N_20  and  C_19 
REMARK       I    between atoms: C_22  and  N_20 
ROOT
ATOM      1  C   LIG d   1      -5.376  77.318 117.177  0.00  0.00     0.161 C 
ATOM      2  C   LIG d   1      -6.744  77.615 117.288  0.00  0.00     0.016 C 
ATOM      3  C   LIG d   1      -7.239  78.790 117.901  0.00  0.00     0.038 C 
ATOM      4  C   LIG d   1      -6.387  79.826 118.313  0.00  0.00     0.028 C 
ATOM      5  C   LIG d   1      -4.986  79.349 118.679  0.00  0.00    -0.047 C 
ATOM      6  C   LIG d   1      -4.430  78.488 117.521  0.00  0.00     0.091 C 
ENDROOT
BRANCH   1   7
ATOM      7  O   LIG d   1      -5.091  76.815 115.857  0.00  0.00    -0.368 OA
BRANCH   7   8
ATOM      8  C   LIG d   1      -4.780  75.402 115.767  0.00  0.00     0.119 C 
BRANCH   8   9
ATOM      9  C   LIG d   1      -3.303  75.279 115.349  0.00  0.00     0.028 C 
ATOM     10  C   LIG d   1      -2.518  74.306 116.245  0.00  0.00     0.006 C 
ENDBRANCH   8   9
BRANCH   8  11
ATOM     11  C   LIG d   1      -5.577  74.727 114.647  0.00  0.00     0.028 C 
ATOM     12  C   LIG d   1      -6.013  75.711 113.550  0.00  0.00     0.006 C 
ENDBRANCH   8  11
ENDBRANCH   7   8
ENDBRANCH   1   7
BRANCH   6  13
ATOM     13  N   LIG d   1      -3.097  77.912 117.833  0.00  0.00    -0.311 N 
ATOM     14  C   LIG d   1      -1.991  78.211 117.153  0.00  0.00     0.210 C 
ATOM     15  C   LIG d   1      -0.725  77.490 117.627  0.00  0.00     0.109 C 
ATOM     16  O   LIG d   1      -1.933  79.030 116.224  0.00  0.00    -0.276 OA
ATOM     17  H   LIG d   1      -3.047  77.261 118.593  0.00  0.00     0.149 HD
ENDBRANCH   6  13
BRANCH   5  18
ATOM     18  N   LIG d   1      -4.167  80.544 118.956  0.00  0.00     0.381 N 
ATOM     19  H   LIG d   1      -3.227  80.389 118.649  0.00  0.00    -0.090 HD
ATOM     20  H   LIG d   1      -4.152  80.705 119.948  0.00  0.00    -0.090 HD
ATOM     21  H   LIG d   1      -4.550  81.336 118.489  0.00  0.00    -0.090 HD
ENDBRANCH   5  18
BRANCH   3  22
ATOM     22  C   LIG d   1      -8.598  78.919 118.143  0.00  0.00     0.382 C 
ATOM     23  O   LIG d   1      -9.314  77.895 118.258  0.00  0.00    -0.241 OA
ATOM     24  O   LIG d   1      -9.125  80.046 118.204  0.00  0.00    -0.241 OA
ENDBRANCH   3  22
TORSDOF 7
ENDMDL
MODEL 9
REMARK VINA RESULT:      -4.0      2.743      3.913
REMARK  7 active torsions:
REMARK  status: ('A' for Active; 'I' for Inactive)
REMARK    1  A    between atoms: C_2  and  C_3 
REMARK    2  A    between atoms: C_3  and  O_6 
REMARK    3  A    between atoms: C_3  and  C_4 
REMARK    4  A    between atoms: C_7  and  O_6 
REMARK    5  A    between atoms: C_9  and  C_10 
REMARK    6  A    between atoms: N_15  and  C_14 
REMARK    7  A    between atoms: N_20  and  C_19 
REMARK       I    between atoms: C_22  and  N_20 
ROOT
ATOM      1  C   LIG d   1      -4.171  77.805 117.990  0.00  0.00     0.161 C 
ATOM      2  C   LIG d   1      -3.069  78.677 117.992  0.00  0.00     0.016 C 
ATOM      3  C   LIG d   1      -2.217  78.856 116.878  0.00  0.00     0.038 C 
ATOM      4  C   LIG d   1      -2.500  78.286 115.628  0.00  0.00     0.028 C 
ATOM      5  C   LIG d   1      -3.317  77.001 115.720  0.00  0.00    -0.047 C 
ATOM      6  C   LIG d   1      -4.561  77.258 116.600  0.00  0.00     0.091 C 
ENDROOT
BRANCH   1   7
ATOM      7  O   LIG d   1      -5.302  78.446 118.611  0.00  0.00    -0.368 OA
BRANCH   7   8
ATOM      8  C   LIG d   1      -6.141  79.243 117.740  0.00  0.00     0.119 C 
BRANCH   8   9
ATOM      9  C   LIG d   1      -6.079  80.699 118.242  0.00  0.00     0.028 C 
ATOM     10  C   LIG d   1      -7.225  81.561 117.686  0.00  0.00     0.006 C 
ENDBRANCH   8   9
BRANCH   8  11
ATOM     11  C   LIG d   1      -7.613  78.836 117.858  0.00  0.00     0.028 C 
ATOM     12  C   LIG d   1      -7.841  77.720 118.890  0.00  0.00     0.006 C 
ENDBRANCH   8  11
ENDBRANCH   7   8
ENDBRANCH   1   7
BRANCH   6  13
ATOM     13  N   LIG d   1      -5.370  76.030 116.811  0.00  0.00    -0.311 N 
ATOM     14  C   LIG d   1      -6.419  75.705 116.059  0.00  0.00     0.210 C 
ATOM     15  C   LIG d   1      -7.126  74.406 116.459  0.00  0.00     0.109 C 
ATOM     16  O   LIG d   1      -6.813  76.353 115.077  0.00  0.00    -0.276 OA
ATOM     17  H   LIG d   1      -5.101  75.431 117.567  0.00  0.00     0.149 HD
ENDBRANCH   6  13
BRANCH   5  18
ATOM     18  N   LIG d   1      -3.657  76.589 114.345  0.00  0.00     0.381 N 
ATOM     19  H   LIG d   1      -2.819  76.437 113.820  0.00  0.00    -0.090 HD
ATOM     20  H   LIG d   1      -4.175  77.328 113.903  0.00  0.00    -0.090 HD
ATOM     21  H   LIG d   1      -4.202  75.756 114.363  0.00  0.00    -0.090 HD
ENDBRANCH   5  18
BRANCH   3  22
ATOM     22  C   LIG d   1      -1.045  79.583 117.019  0.00  0.00     0.382 C 
ATOM     23  O   LIG d   1      -0.789  80.155 118.106  0.00  0.00    -0.241 OA
ATOM     24  O   LIG d   1      -0.261  79.711 116.060  0.00  0.00    -0.241 OA
ENDBRANCH   3  22
TORSDOF 7
ENDMDL
