MODEL 1
REMARK VINA RESULT:      -5.6      0.000      0.000
REMARK  7 active torsions:
REMARK  status: ('A' for Active; 'I' for Inactive)
REMARK    1  A    between atoms: C_2  and  C_3 
REMARK    2  A    between atoms: C_3  and  O_6 
REMARK    3  A    between atoms: C_3  and  C_4 
REMARK    4  A    between atoms: C_7  and  O_6 
REMARK    5  A    between atoms: C_9  and  C_10 
REMARK    6  A    between atoms: N_15  and  C_14 
REMARK    7  A    between atoms: N_20  and  C_19 
REMARK       I    between atoms: C_22  and  N_20 
ROOT
ATOM      1  C   LIG d   1      -2.962  76.484 115.256  0.00  0.00     0.161 C 
ATOM      2  C   LIG d   1      -2.879  76.043 116.587  0.00  0.00     0.016 C 
ATOM      3  C   LIG d   1      -1.841  76.422 117.469  0.00  0.00     0.038 C 
ATOM      4  C   LIG d   1      -0.891  77.394 117.122  0.00  0.00     0.028 C 
ATOM      5  C   LIG d   1      -0.640  77.486 115.621  0.00  0.00    -0.047 C 
ATOM      6  C   LIG d   1      -1.996  77.632 114.893  0.00  0.00     0.091 C 
ENDROOT
BRANCH   1   7
ATOM      7  O   LIG d   1      -4.320  76.855 114.948  0.00  0.00    -0.368 OA
BRANCH   7   8
ATOM      8  C   LIG d   1      -5.322  76.474 115.922  0.00  0.00     0.119 C 
BRANCH   8   9
ATOM      9  C   LIG d   1      -6.409  75.673 115.179  0.00  0.00     0.028 C 
ATOM     10  C   LIG d   1      -7.771  75.731 115.892  0.00  0.00     0.006 C 
ENDBRANCH   8   9
BRANCH   8  11
ATOM     11  C   LIG d   1      -6.041  77.701 116.492  0.00  0.00     0.028 C 
ATOM     12  C   LIG d   1      -5.071  78.746 117.065  0.00  0.00     0.006 C 
ENDBRANCH   8  11
ENDBRANCH   7   8
ENDBRANCH   1   7
BRANCH   6  13
ATOM     13  N   LIG d   1      -1.848  77.644 113.415  0.00  0.00    -0.311 N 
ATOM     14  C   LIG d   1      -2.276  78.643 112.644  0.00  0.00     0.210 C 
ATOM     15  C   LIG d   1      -2.042  78.446 111.143  0.00  0.00     0.109 C 
ATOM     16  O   LIG d   1      -2.798  79.687 113.063  0.00  0.00    -0.276 OA
ATOM     17  H   LIG d   1      -1.407  76.850 112.994  0.00  0.00     0.149 HD
ENDBRANCH   6  13
BRANCH   5  18
ATOM     18  N   LIG d   1       0.265  78.628 115.390  0.00  0.00     0.381 N 
ATOM     19  H   LIG d   1       0.982  78.638 116.087  0.00  0.00    -0.090 HD
ATOM     20  H   LIG d   1      -0.261  79.481 115.466  0.00  0.00    -0.090 HD
ATOM     21  H   LIG d   1       0.674  78.561 114.483  0.00  0.00    -0.090 HD
ENDBRANCH   5  18
BRANCH   3  22
ATOM     22  C   LIG d   1      -1.723  75.796 118.701  0.00  0.00     0.382 C 
ATOM     23  O   LIG d   1      -2.367  76.227 119.687  0.00  0.00    -0.241 OA
ATOM     24  O   LIG d   1      -0.947  74.833 118.848  0.00  0.00    -0.241 OA
ENDBRANCH   3  22
TORSDOF 7
ENDMDL
MODEL 2
REMARK VINA RESULT:      -5.6      4.035      6.549
REMARK  7 active torsions:
REMARK  status: ('A' for Active; 'I' for Inactive)
REMARK    1  A    between atoms: C_2  and  C_3 
REMARK    2  A    between atoms: C_3  and  O_6 
REMARK    3  A    between atoms: C_3  and  C_4 
REMARK    4  A    between atoms: C_7  and  O_6 
REMARK    5  A    between atoms: C_9  and  C_10 
REMARK    6  A    between atoms: N_15  and  C_14 
REMARK    7  A    between atoms: N_20  and  C_19 
REMARK       I    between atoms: C_22  and  N_20 
ROOT
ATOM      1  C   LIG d   1      -6.016  78.047 117.516  0.00  0.00     0.161 C 
ATOM      2  C   LIG d   1      -5.058  77.571 116.605  0.00  0.00     0.016 C 
ATOM      3  C   LIG d   1      -5.344  76.617 115.602  0.00  0.00     0.038 C 
ATOM      4  C   LIG d   1      -6.653  76.183 115.343  0.00  0.00     0.028 C 
ATOM      5  C   LIG d   1      -7.566  76.253 116.563  0.00  0.00    -0.047 C 
ATOM      6  C   LIG d   1      -7.473  77.668 117.178  0.00  0.00     0.091 C 
ENDROOT
BRANCH   1   7
ATOM      7  O   LIG d   1      -5.889  79.476 117.657  0.00  0.00    -0.368 OA
BRANCH   7   8
ATOM      8  C   LIG d   1      -5.620  79.963 118.994  0.00  0.00     0.119 C 
BRANCH   8   9
ATOM      9  C   LIG d   1      -6.281  81.349 119.124  0.00  0.00     0.028 C 
ATOM     10  C   LIG d   1      -7.199  81.675 117.934  0.00  0.00     0.006 C 
ENDBRANCH   8   9
BRANCH   8  11
ATOM     11  C   LIG d   1      -4.123  80.206 119.208  0.00  0.00     0.028 C 
ATOM     12  C   LIG d   1      -3.827  81.564 119.865  0.00  0.00     0.006 C 
ENDBRANCH   8  11
ENDBRANCH   7   8
ENDBRANCH   1   7
BRANCH   6  13
ATOM     13  N   LIG d   1      -8.271  77.797 118.425  0.00  0.00    -0.311 N 
ATOM     14  C   LIG d   1      -9.299  78.635 118.554  0.00  0.00     0.210 C 
ATOM     15  C   LIG d   1      -9.973  78.625 119.930  0.00  0.00     0.109 C 
ATOM     16  O   LIG d   1      -9.737  79.361 117.649  0.00  0.00    -0.276 OA
ATOM     17  H   LIG d   1      -8.004  77.222 119.200  0.00  0.00     0.149 HD
ENDBRANCH   6  13
BRANCH   5  18
ATOM     18  N   LIG d   1      -8.929  75.904 116.119  0.00  0.00     0.381 N 
ATOM     19  H   LIG d   1      -9.403  76.727 115.803  0.00  0.00    -0.090 HD
ATOM     20  H   LIG d   1      -9.438  75.527 116.899  0.00  0.00    -0.090 HD
ATOM     21  H   LIG d   1      -8.887  75.233 115.384  0.00  0.00    -0.090 HD
ENDBRANCH   5  18
BRANCH   3  22
ATOM     22  C   LIG d   1      -4.308  76.057 114.870  0.00  0.00     0.382 C 
ATOM     23  O   LIG d   1      -3.862  74.925 115.180  0.00  0.00    -0.241 OA
ATOM     24  O   LIG d   1      -3.783  76.687 113.933  0.00  0.00    -0.241 OA
ENDBRANCH   3  22
TORSDOF 7
ENDMDL
MODEL 3
REMARK VINA RESULT:      -5.4      3.539      5.893
REMARK  7 active torsions:
REMARK  status: ('A' for Active; 'I' for Inactive)
REMARK    1  A    between atoms: C_2  and  C_3 
REMARK    2  A    between atoms: C_3  and  O_6 
REMARK    3  A    between atoms: C_3  and  C_4 
REMARK    4  A    between atoms: C_7  and  O_6 
REMARK    5  A    between atoms: C_9  and  C_10 
REMARK    6  A    between atoms: N_15  and  C_14 
REMARK    7  A    between atoms: N_20  and  C_19 
REMARK       I    between atoms: C_22  and  N_20 
ROOT
ATOM      1  C   LIG d   1      -6.095  78.318 117.360  0.00  0.00     0.161 C 
ATOM      2  C   LIG d   1      -7.318  79.003 117.267  0.00  0.00     0.016 C 
ATOM      3  C   LIG d   1      -7.561  80.250 117.887  0.00  0.00     0.038 C 
ATOM      4  C   LIG d   1      -6.540  80.974 118.522  0.00  0.00     0.028 C 
ATOM      5  C   LIG d   1      -5.425  80.092 119.073  0.00  0.00    -0.047 C 
ATOM      6  C   LIG d   1      -4.935  79.144 117.955  0.00  0.00     0.091 C 
ENDROOT
BRANCH   1   7
ATOM      7  O   LIG d   1      -5.727  77.797 116.068  0.00  0.00    -0.368 OA
BRANCH   7   8
ATOM      8  C   LIG d   1      -5.746  76.354 115.934  0.00  0.00     0.119 C 
BRANCH   8   9
ATOM      9  C   LIG d   1      -4.602  75.963 114.977  0.00  0.00     0.028 C 
ATOM     10  C   LIG d   1      -3.545  75.078 115.657  0.00  0.00     0.006 C 
ENDBRANCH   8   9
BRANCH   8  11
ATOM     11  C   LIG d   1      -7.029  75.874 115.249  0.00  0.00     0.028 C 
ATOM     12  C   LIG d   1      -8.139  75.515 116.249  0.00  0.00     0.006 C 
ENDBRANCH   8  11
ENDBRANCH   7   8
ENDBRANCH   1   7
BRANCH   6  13
ATOM     13  N   LIG d   1      -3.902  78.189 118.433  0.00  0.00    -0.311 N 
ATOM     14  C   LIG d   1      -2.756  77.966 117.792  0.00  0.00     0.210 C 
ATOM     15  C   LIG d   1      -1.840  76.927 118.446  0.00  0.00     0.109 C 
ATOM     16  O   LIG d   1      -2.397  78.554 116.760  0.00  0.00    -0.276 OA
ATOM     17  H   LIG d   1      -4.097  77.692 119.280  0.00  0.00     0.149 HD
ENDBRANCH   6  13
BRANCH   5  18
ATOM     18  N   LIG d   1      -4.365  80.981 119.584  0.00  0.00     0.381 N 
ATOM     19  H   LIG d   1      -4.498  81.906 119.227  0.00  0.00    -0.090 HD
ATOM     20  H   LIG d   1      -3.475  80.644 119.261  0.00  0.00    -0.090 HD
ATOM     21  H   LIG d   1      -4.381  80.995 120.580  0.00  0.00    -0.090 HD
ENDBRANCH   5  18
BRANCH   3  22
ATOM     22  C   LIG d   1      -8.847  80.767 117.911  0.00  0.00     0.382 C 
ATOM     23  O   LIG d   1      -9.826  80.023 117.659  0.00  0.00    -0.241 OA
ATOM     24  O   LIG d   1      -9.038  81.977 118.136  0.00  0.00    -0.241 OA
ENDBRANCH   3  22
TORSDOF 7
ENDMDL
MODEL 4
REMARK VINA RESULT:      -5.4      1.859      4.767
REMARK  7 active torsions:
REMARK  status: ('A' for Active; 'I' for Inactive)
REMARK    1  A    between atoms: C_2  and  C_3 
REMARK    2  A    between atoms: C_3  and  O_6 
REMARK    3  A    between atoms: C_3  and  C_4 
REMARK    4  A    between atoms: C_7  and  O_6 
REMARK    5  A    between atoms: C_9  and  C_10 
REMARK    6  A    between atoms: N_15  and  C_14 
REMARK    7  A    between atoms: N_20  and  C_19 
REMARK       I    between atoms: C_22  and  N_20 
ROOT
ATOM      1  C   LIG d   1      -2.981  77.758 115.314  0.00  0.00     0.161 C 
ATOM      2  C   LIG d   1      -3.095  78.599 114.194  0.00  0.00     0.016 C 
ATOM      3  C   LIG d   1      -2.122  78.669 113.171  0.00  0.00     0.038 C 
ATOM      4  C   LIG d   1      -1.033  77.787 113.121  0.00  0.00     0.028 C 
ATOM      5  C   LIG d   1      -0.612  77.267 114.491  0.00  0.00    -0.047 C 
ATOM      6  C   LIG d   1      -1.854  76.707 115.220  0.00  0.00     0.091 C 
ENDROOT
BRANCH   1   7
ATOM      7  O   LIG d   1      -4.245  77.116 115.574  0.00  0.00    -0.368 OA
BRANCH   7   8
ATOM      8  C   LIG d   1      -4.877  77.440 116.836  0.00  0.00     0.119 C 
BRANCH   8   9
ATOM      9  C   LIG d   1      -6.401  77.409 116.612  0.00  0.00     0.028 C 
ATOM     10  C   LIG d   1      -6.835  76.260 115.688  0.00  0.00     0.006 C 
ENDBRANCH   8   9
BRANCH   8  11
ATOM     11  C   LIG d   1      -4.559  78.875 117.266  0.00  0.00     0.028 C 
ATOM     12  C   LIG d   1      -5.770  79.596 117.880  0.00  0.00     0.006 C 
ENDBRANCH   8  11
ENDBRANCH   7   8
ENDBRANCH   1   7
BRANCH   6  13
ATOM     13  N   LIG d   1      -1.546  76.255 116.602  0.00  0.00    -0.311 N 
ATOM     14  C   LIG d   1      -1.068  75.045 116.888  0.00  0.00     0.210 C 
ATOM     15  C   LIG d   1      -0.838  74.776 118.378  0.00  0.00     0.109 C 
ATOM     16  O   LIG d   1      -0.783  74.180 116.046  0.00  0.00    -0.276 OA
ATOM     17  H   LIG d   1      -1.718  76.905 117.344  0.00  0.00     0.149 HD
ENDBRANCH   6  13
BRANCH   5  18
ATOM     18  N   LIG d   1       0.440  76.254 114.280  0.00  0.00     0.381 N 
ATOM     19  H   LIG d   1       0.181  75.650 113.526  0.00  0.00    -0.090 HD
ATOM     20  H   LIG d   1       0.529  75.699 115.113  0.00  0.00    -0.090 HD
ATOM     21  H   LIG d   1       1.307  76.700 114.075  0.00  0.00    -0.090 HD
ENDBRANCH   5  18
BRANCH   3  22
ATOM     22  C   LIG d   1      -2.213  79.659 112.204  0.00  0.00     0.382 C 
ATOM     23  O   LIG d   1      -1.547  79.563 111.145  0.00  0.00    -0.241 OA
ATOM     24  O   LIG d   1      -2.918  80.668 112.396  0.00  0.00    -0.241 OA
ENDBRANCH   3  22
TORSDOF 7
ENDMDL
MODEL 5
REMARK VINA RESULT:      -5.3      1.835      4.896
REMARK  7 active torsions:
REMARK  status: ('A' for Active; 'I' for Inactive)
REMARK    1  A    between atoms: C_2  and  C_3 
REMARK    2  A    between atoms: C_3  and  O_6 
REMARK    3  A    between atoms: C_3  and  C_4 
REMARK    4  A    between atoms: C_7  and  O_6 
REMARK    5  A    between atoms: C_9  and  C_10 
REMARK    6  A    between atoms: N_15  and  C_14 
REMARK    7  A    between atoms: N_20  and  C_19 
REMARK       I    between atoms: C_22  and  N_20 
ROOT
ATOM      1  C   LIG d   1      -2.132  77.550 115.837  0.00  0.00     0.161 C 
ATOM      2  C   LIG d   1      -2.581  78.317 114.748  0.00  0.00     0.016 C 
ATOM      3  C   LIG d   1      -2.079  78.172 113.435  0.00  0.00     0.038 C 
ATOM      4  C   LIG d   1      -1.195  77.139 113.089  0.00  0.00     0.028 C 
ATOM      5  C   LIG d   1      -0.333  76.664 114.254  0.00  0.00    -0.047 C 
ATOM      6  C   LIG d   1      -1.249  76.343 115.457  0.00  0.00     0.091 C 
ENDROOT
BRANCH   1   7
ATOM      7  O   LIG d   1      -3.258  77.119 116.627  0.00  0.00    -0.368 OA
BRANCH   7   8
ATOM      8  C   LIG d   1      -4.559  77.586 116.192  0.00  0.00     0.119 C 
BRANCH   8   9
ATOM      9  C   LIG d   1      -5.223  78.289 117.392  0.00  0.00     0.028 C 
ATOM     10  C   LIG d   1      -6.742  78.448 117.212  0.00  0.00     0.006 C 
ENDBRANCH   8   9
BRANCH   8  11
ATOM     11  C   LIG d   1      -5.483  76.415 115.846  0.00  0.00     0.028 C 
ATOM     12  C   LIG d   1      -4.909  75.507 114.746  0.00  0.00     0.006 C 
ENDBRANCH   8  11
ENDBRANCH   7   8
ENDBRANCH   1   7
BRANCH   6  13
ATOM     13  N   LIG d   1      -0.479  75.951 116.666  0.00  0.00    -0.311 N 
ATOM     14  C   LIG d   1      -0.827  74.940 117.461  0.00  0.00     0.210 C 
ATOM     15  C   LIG d   1       0.093  74.718 118.665  0.00  0.00     0.109 C 
ATOM     16  O   LIG d   1      -1.791  74.186 117.264  0.00  0.00    -0.276 OA
ATOM     17  H   LIG d   1       0.336  76.491 116.883  0.00  0.00     0.149 HD
ENDBRANCH   6  13
BRANCH   5  18
ATOM     18  N   LIG d   1       0.440  75.496 113.789  0.00  0.00     0.381 N 
ATOM     19  H   LIG d   1       0.230  74.702 114.359  0.00  0.00    -0.090 HD
ATOM     20  H   LIG d   1       1.420  75.699 113.879  0.00  0.00    -0.090 HD
ATOM     21  H   LIG d   1       0.220  75.299 112.837  0.00  0.00    -0.090 HD
ENDBRANCH   5  18
BRANCH   3  22
ATOM     22  C   LIG d   1      -2.431  79.092 112.459  0.00  0.00     0.382 C 
ATOM     23  O   LIG d   1      -2.974  80.175 112.785  0.00  0.00    -0.241 OA
ATOM     24  O   LIG d   1      -2.252  78.834 111.253  0.00  0.00    -0.241 OA
ENDBRANCH   3  22
TORSDOF 7
ENDMDL
MODEL 6
REMARK VINA RESULT:      -5.0      2.681      4.810
REMARK  7 active torsions:
REMARK  status: ('A' for Active; 'I' for Inactive)
REMARK    1  A    between atoms: C_2  and  C_3 
REMARK    2  A    between atoms: C_3  and  O_6 
REMARK    3  A    between atoms: C_3  and  C_4 
REMARK    4  A    between atoms: C_7  and  O_6 
REMARK    5  A    between atoms: C_9  and  C_10 
REMARK    6  A    between atoms: N_15  and  C_14 
REMARK    7  A    between atoms: N_20  and  C_19 
REMARK       I    between atoms: C_22  and  N_20 
ROOT
ATOM      1  C   LIG d   1      -3.803  77.719 117.007  0.00  0.00     0.161 C 
ATOM      2  C   LIG d   1      -4.914  77.301 116.256  0.00  0.00     0.016 C 
ATOM      3  C   LIG d   1      -4.930  76.116 115.485  0.00  0.00     0.038 C 
ATOM      4  C   LIG d   1      -3.882  75.185 115.534  0.00  0.00     0.028 C 
ATOM      5  C   LIG d   1      -2.534  75.808 115.882  0.00  0.00    -0.047 C 
ATOM      6  C   LIG d   1      -2.691  76.660 117.162  0.00  0.00     0.091 C 
ENDROOT
BRANCH   1   7
ATOM      7  O   LIG d   1      -4.236  78.184 118.301  0.00  0.00    -0.368 OA
BRANCH   7   8
ATOM      8  C   LIG d   1      -4.416  79.615 118.437  0.00  0.00     0.119 C 
BRANCH   8   9
ATOM      9  C   LIG d   1      -3.557  80.078 119.630  0.00  0.00     0.028 C 
ATOM     10  C   LIG d   1      -2.269  80.789 119.185  0.00  0.00     0.006 C 
ENDBRANCH   8   9
BRANCH   8  11
ATOM     11  C   LIG d   1      -5.858  79.962 118.817  0.00  0.00     0.028 C 
ATOM     12  C   LIG d   1      -6.688  80.453 117.620  0.00  0.00     0.006 C 
ENDBRANCH   8  11
ENDBRANCH   7   8
ENDBRANCH   1   7
BRANCH   6  13
ATOM     13  N   LIG d   1      -1.439  77.373 117.526  0.00  0.00    -0.311 N 
ATOM     14  C   LIG d   1      -0.857  78.279 116.742  0.00  0.00     0.210 C 
ATOM     15  C   LIG d   1       0.438  78.880 117.298  0.00  0.00     0.109 C 
ATOM     16  O   LIG d   1      -1.308  78.667 115.653  0.00  0.00    -0.276 OA
ATOM     17  H   LIG d   1      -1.022  77.143 118.406  0.00  0.00     0.149 HD
ENDBRANCH   6  13
BRANCH   5  18
ATOM     18  N   LIG d   1      -1.562  74.709 116.035  0.00  0.00     0.381 N 
ATOM     19  H   LIG d   1      -1.766  74.189 116.865  0.00  0.00    -0.090 HD
ATOM     20  H   LIG d   1      -0.641  75.101 116.127  0.00  0.00    -0.090 HD
ATOM     21  H   LIG d   1      -1.598  74.109 115.241  0.00  0.00    -0.090 HD
ENDBRANCH   5  18
BRANCH   3  22
ATOM     22  C   LIG d   1      -5.987  75.872 114.621  0.00  0.00     0.382 C 
ATOM     23  O   LIG d   1      -5.885  76.166 113.406  0.00  0.00    -0.241 OA
ATOM     24  O   LIG d   1      -7.058  75.403 115.051  0.00  0.00    -0.241 OA
ENDBRANCH   3  22
TORSDOF 7
ENDMDL
MODEL 7
REMARK VINA RESULT:      -4.9      2.954      4.342
REMARK  7 active torsions:
REMARK  status: ('A' for Active; 'I' for Inactive)
REMARK    1  A    between atoms: C_2  and  C_3 
REMARK    2  A    between atoms: C_3  and  O_6 
REMARK    3  A    between atoms: C_3  and  C_4 
REMARK    4  A    between atoms: C_7  and  O_6 
REMARK    5  A    between atoms: C_9  and  C_10 
REMARK    6  A    between atoms: N_15  and  C_14 
REMARK    7  A    between atoms: N_20  and  C_19 
REMARK       I    between atoms: C_22  and  N_20 
ROOT
ATOM      1  C   LIG d   1      -4.249  78.095 116.401  0.00  0.00     0.161 C 
ATOM      2  C   LIG d   1      -3.525  77.016 115.866  0.00  0.00     0.016 C 
ATOM      3  C   LIG d   1      -2.568  76.281 116.602  0.00  0.00     0.038 C 
ATOM      4  C   LIG d   1      -2.377  76.481 117.978  0.00  0.00     0.028 C 
ATOM      5  C   LIG d   1      -2.721  77.893 118.438  0.00  0.00    -0.047 C 
ATOM      6  C   LIG d   1      -4.135  78.256 117.931  0.00  0.00     0.091 C 
ENDROOT
BRANCH   1   7
ATOM      7  O   LIG d   1      -5.633  77.997 116.009  0.00  0.00    -0.368 OA
BRANCH   7   8
ATOM      8  C   LIG d   1      -6.373  76.880 116.559  0.00  0.00     0.119 C 
BRANCH   8   9
ATOM      9  C   LIG d   1      -6.838  76.006 115.378  0.00  0.00     0.028 C 
ATOM     10  C   LIG d   1      -5.960  74.757 115.191  0.00  0.00     0.006 C 
ENDBRANCH   8   9
BRANCH   8  11
ATOM     11  C   LIG d   1      -7.659  77.349 117.248  0.00  0.00     0.028 C 
ATOM     12  C   LIG d   1      -8.859  76.434 116.956  0.00  0.00     0.006 C 
ENDBRANCH   8  11
ENDBRANCH   7   8
ENDBRANCH   1   7
BRANCH   6  13
ATOM     13  N   LIG d   1      -4.517  79.653 118.266  0.00  0.00    -0.311 N 
ATOM     14  C   LIG d   1      -5.481  79.962 119.132  0.00  0.00     0.210 C 
ATOM     15  C   LIG d   1      -5.727  81.463 119.317  0.00  0.00     0.109 C 
ATOM     16  O   LIG d   1      -6.134  79.136 119.788  0.00  0.00    -0.276 OA
ATOM     17  H   LIG d   1      -4.016  80.386 117.803  0.00  0.00     0.149 HD
ENDBRANCH   6  13
BRANCH   5  18
ATOM     18  N   LIG d   1      -2.609  77.922 119.909  0.00  0.00     0.381 N 
ATOM     19  H   LIG d   1      -1.742  77.510 120.191  0.00  0.00    -0.090 HD
ATOM     20  H   LIG d   1      -3.358  77.381 120.303  0.00  0.00    -0.090 HD
ATOM     21  H   LIG d   1      -2.660  78.861 120.237  0.00  0.00    -0.090 HD
ENDBRANCH   5  18
BRANCH   3  22
ATOM     22  C   LIG d   1      -1.760  75.361 115.952  0.00  0.00     0.382 C 
ATOM     23  O   LIG d   1      -0.529  75.326 116.193  0.00  0.00    -0.241 OA
ATOM     24  O   LIG d   1      -2.239  74.595 115.095  0.00  0.00    -0.241 OA
ENDBRANCH   3  22
TORSDOF 7
ENDMDL
MODEL 8
REMARK VINA RESULT:      -4.8      3.159      5.776
REMARK  7 active torsions:
REMARK  status: ('A' for Active; 'I' for Inactive)
REMARK    1  A    between atoms: C_2  and  C_3 
REMARK    2  A    between atoms: C_3  and  O_6 
REMARK    3  A    between atoms: C_3  and  C_4 
REMARK    4  A    between atoms: C_7  and  O_6 
REMARK    5  A    between atoms: C_9  and  C_10 
REMARK    6  A    between atoms: N_15  and  C_14 
REMARK    7  A    between atoms: N_20  and  C_19 
REMARK       I    between atoms: C_22  and  N_20 
ROOT
ATOM      1  C   LIG d   1      -5.217  78.365 117.298  0.00  0.00     0.161 C 
ATOM      2  C   LIG d   1      -6.529  78.620 117.729  0.00  0.00     0.016 C 
ATOM      3  C   LIG d   1      -7.646  77.855 117.321  0.00  0.00     0.038 C 
ATOM      4  C   LIG d   1      -7.504  76.681 116.567  0.00  0.00     0.028 C 
ATOM      5  C   LIG d   1      -6.255  76.670 115.691  0.00  0.00    -0.047 C 
ATOM      6  C   LIG d   1      -5.028  77.021 116.564  0.00  0.00     0.091 C 
ENDROOT
BRANCH   1   7
ATOM      7  O   LIG d   1      -4.309  78.458 118.413  0.00  0.00    -0.368 OA
BRANCH   7   8
ATOM      8  C   LIG d   1      -3.280  79.473 118.314  0.00  0.00     0.119 C 
BRANCH   8   9
ATOM      9  C   LIG d   1      -1.922  78.778 118.527  0.00  0.00     0.028 C 
ATOM     10  C   LIG d   1      -2.039  77.517 119.400  0.00  0.00     0.006 C 
ENDBRANCH   8   9
BRANCH   8  11
ATOM     11  C   LIG d   1      -3.395  80.496 119.448  0.00  0.00     0.028 C 
ATOM     12  C   LIG d   1      -2.229  81.497 119.468  0.00  0.00     0.006 C 
ENDBRANCH   8  11
ENDBRANCH   7   8
ENDBRANCH   1   7
BRANCH   6  13
ATOM     13  N   LIG d   1      -3.776  77.115 115.769  0.00  0.00    -0.311 N 
ATOM     14  C   LIG d   1      -2.754  76.272 115.908  0.00  0.00     0.210 C 
ATOM     15  C   LIG d   1      -1.551  76.560 115.004  0.00  0.00     0.109 C 
ATOM     16  O   LIG d   1      -2.743  75.294 116.671  0.00  0.00    -0.276 OA
ATOM     17  H   LIG d   1      -3.713  77.861 115.104  0.00  0.00     0.149 HD
ENDBRANCH   6  13
BRANCH   5  18
ATOM     18  N   LIG d   1      -6.159  75.337 115.068  0.00  0.00     0.381 N 
ATOM     19  H   LIG d   1      -6.539  75.367 114.143  0.00  0.00    -0.090 HD
ATOM     20  H   LIG d   1      -6.699  74.685 115.609  0.00  0.00    -0.090 HD
ATOM     21  H   LIG d   1      -5.208  75.044 115.034  0.00  0.00    -0.090 HD
ENDBRANCH   5  18
BRANCH   3  22
ATOM     22  C   LIG d   1      -8.926  78.286 117.634  0.00  0.00     0.382 C 
ATOM     23  O   LIG d   1      -9.852  77.450 117.773  0.00  0.00    -0.241 OA
ATOM     24  O   LIG d   1      -9.176  79.501 117.736  0.00  0.00    -0.241 OA
ENDBRANCH   3  22
TORSDOF 7
ENDMDL
MODEL 9
REMARK VINA RESULT:      -4.8      2.873      5.582
REMARK  7 active torsions:
REMARK  status: ('A' for Active; 'I' for Inactive)
REMARK    1  A    between atoms: C_2  and  C_3 
REMARK    2  A    between atoms: C_3  and  O_6 
REMARK    3  A    between atoms: C_3  and  C_4 
REMARK    4  A    between atoms: C_7  and  O_6 
REMARK    5  A    between atoms: C_9  and  C_10 
REMARK    6  A    between atoms: N_15  and  C_14 
REMARK    7  A    between atoms: N_20  and  C_19 
REMARK       I    between atoms: C_22  and  N_20 
ROOT
ATOM      1  C   LIG d   1      -3.782  77.716 117.269  0.00  0.00     0.161 C 
ATOM      2  C   LIG d   1      -4.930  78.442 117.625  0.00  0.00     0.016 C 
ATOM      3  C   LIG d   1      -6.217  78.164 117.110  0.00  0.00     0.038 C 
ATOM      4  C   LIG d   1      -6.470  77.037 116.314  0.00  0.00     0.028 C 
ATOM      5  C   LIG d   1      -5.253  76.570 115.522  0.00  0.00    -0.047 C 
ATOM      6  C   LIG d   1      -4.056  76.414 116.488  0.00  0.00     0.091 C 
ENDROOT
BRANCH   1   7
ATOM      7  O   LIG d   1      -2.995  77.439 118.444  0.00  0.00    -0.368 OA
BRANCH   7   8
ATOM      8  C   LIG d   1      -1.729  78.138 118.543  0.00  0.00     0.119 C 
BRANCH   8   9
ATOM      9  C   LIG d   1      -1.879  79.215 119.635  0.00  0.00     0.028 C 
ATOM     10  C   LIG d   1      -2.107  80.618 119.048  0.00  0.00     0.006 C 
ENDBRANCH   8   9
BRANCH   8  11
ATOM     11  C   LIG d   1      -1.415  78.906 117.256  0.00  0.00     0.028 C 
ATOM     12  C   LIG d   1      -0.112  78.440 116.587  0.00  0.00     0.006 C 
ENDBRANCH   8  11
ENDBRANCH   7   8
ENDBRANCH   1   7
BRANCH   6  13
ATOM     13  N   LIG d   1      -2.803  76.041 115.781  0.00  0.00    -0.311 N 
ATOM     14  C   LIG d   1      -1.968  75.099 116.218  0.00  0.00     0.210 C 
ATOM     15  C   LIG d   1      -0.724  74.886 115.350  0.00  0.00     0.109 C 
ATOM     16  O   LIG d   1      -2.155  74.398 117.224  0.00  0.00    -0.276 OA
ATOM     17  H   LIG d   1      -2.588  76.538 114.939  0.00  0.00     0.149 HD
ENDBRANCH   6  13
BRANCH   5  18
ATOM     18  N   LIG d   1      -5.618  75.311 114.846  0.00  0.00     0.381 N 
ATOM     19  H   LIG d   1      -4.799  74.754 114.702  0.00  0.00    -0.090 HD
ATOM     20  H   LIG d   1      -6.013  75.527 113.948  0.00  0.00    -0.090 HD
ATOM     21  H   LIG d   1      -6.279  74.807 115.395  0.00  0.00    -0.090 HD
ENDBRANCH   5  18
BRANCH   3  22
ATOM     22  C   LIG d   1      -7.261  79.042 117.358  0.00  0.00     0.382 C 
ATOM     23  O   LIG d   1      -8.394  78.598 117.666  0.00  0.00    -0.241 OA
ATOM     24  O   LIG d   1      -7.097  80.270 117.235  0.00  0.00    -0.241 OA
ENDBRANCH   3  22
TORSDOF 7
ENDMDL
