MODEL 1
REMARK VINA RESULT:      -5.0      0.000      0.000
REMARK  7 active torsions:
REMARK  status: ('A' for Active; 'I' for Inactive)
REMARK    1  A    between atoms: C_2  and  C_3 
REMARK    2  A    between atoms: C_3  and  O_6 
REMARK    3  A    between atoms: C_3  and  C_4 
REMARK    4  A    between atoms: C_7  and  O_6 
REMARK    5  A    between atoms: C_9  and  C_10 
REMARK    6  A    between atoms: N_15  and  C_14 
REMARK    7  A    between atoms: N_20  and  C_19 
REMARK       I    between atoms: C_22  and  N_20 
ROOT
ATOM      1  C   LIG d   1      -1.864  79.306 115.891  0.00  0.00     0.161 C 
ATOM      2  C   LIG d   1      -2.389  80.372 115.143  0.00  0.00     0.016 C 
ATOM      3  C   LIG d   1      -2.466  80.370 113.732  0.00  0.00     0.038 C 
ATOM      4  C   LIG d   1      -2.158  79.229 112.975  0.00  0.00     0.028 C 
ATOM      5  C   LIG d   1      -1.148  78.308 113.650  0.00  0.00    -0.047 C 
ATOM      6  C   LIG d   1      -1.626  78.009 115.090  0.00  0.00     0.091 C 
ENDROOT
BRANCH   1   7
ATOM      7  O   LIG d   1      -2.709  79.044 117.029  0.00  0.00    -0.368 OA
BRANCH   7   8
ATOM      8  C   LIG d   1      -4.134  79.023 116.773  0.00  0.00     0.119 C 
BRANCH   8   9
ATOM      9  C   LIG d   1      -4.806  79.930 117.822  0.00  0.00     0.028 C 
ATOM     10  C   LIG d   1      -6.251  79.502 118.128  0.00  0.00     0.006 C 
ENDBRANCH   8   9
BRANCH   8  11
ATOM     11  C   LIG d   1      -4.722  77.628 117.007  0.00  0.00     0.028 C 
ATOM     12  C   LIG d   1      -5.049  76.892 115.698  0.00  0.00     0.006 C 
ENDBRANCH   8  11
ENDBRANCH   7   8
ENDBRANCH   1   7
BRANCH   6  13
ATOM     13  N   LIG d   1      -0.653  77.182 115.850  0.00  0.00    -0.311 N 
ATOM     14  C   LIG d   1      -0.723  75.854 115.928  0.00  0.00     0.210 C 
ATOM     15  C   LIG d   1       0.369  75.198 116.780  0.00  0.00     0.109 C 
ATOM     16  O   LIG d   1      -1.567  75.155 115.348  0.00  0.00    -0.276 OA
ATOM     17  H   LIG d   1       0.083  77.666 116.326  0.00  0.00     0.149 HD
ENDBRANCH   6  13
BRANCH   5  18
ATOM     18  N   LIG d   1      -1.024  77.096 112.818  0.00  0.00     0.381 N 
ATOM     19  H   LIG d   1      -1.370  76.303 113.321  0.00  0.00    -0.090 HD
ATOM     20  H   LIG d   1      -0.053  76.941 112.613  0.00  0.00    -0.090 HD
ATOM     21  H   LIG d   1      -1.536  77.210 111.971  0.00  0.00    -0.090 HD
ENDBRANCH   5  18
BRANCH   3  22
ATOM     22  C   LIG d   1      -2.816  81.531 113.060  0.00  0.00     0.382 C 
ATOM     23  O   LIG d   1      -4.024  81.850 112.948  0.00  0.00    -0.241 OA
ATOM     24  O   LIG d   1      -1.942  82.240 112.527  0.00  0.00    -0.241 OA
ENDBRANCH   3  22
TORSDOF 7
ENDMDL
MODEL 2
REMARK VINA RESULT:      -4.8      1.704      2.489
REMARK  7 active torsions:
REMARK  status: ('A' for Active; 'I' for Inactive)
REMARK    1  A    between atoms: C_2  and  C_3 
REMARK    2  A    between atoms: C_3  and  O_6 
REMARK    3  A    between atoms: C_3  and  C_4 
REMARK    4  A    between atoms: C_7  and  O_6 
REMARK    5  A    between atoms: C_9  and  C_10 
REMARK    6  A    between atoms: N_15  and  C_14 
REMARK    7  A    between atoms: N_20  and  C_19 
REMARK       I    between atoms: C_22  and  N_20 
ROOT
ATOM      1  C   LIG d   1      -2.566  80.108 115.416  0.00  0.00     0.161 C 
ATOM      2  C   LIG d   1      -2.182  81.268 114.723  0.00  0.00     0.016 C 
ATOM      3  C   LIG d   1      -1.516  81.244 113.476  0.00  0.00     0.038 C 
ATOM      4  C   LIG d   1      -1.322  80.053 112.761  0.00  0.00     0.028 C 
ATOM      5  C   LIG d   1      -1.241  78.818 113.653  0.00  0.00    -0.047 C 
ATOM      6  C   LIG d   1      -2.462  78.802 114.600  0.00  0.00     0.091 C 
ENDROOT
BRANCH   1   7
ATOM      7  O   LIG d   1      -3.901  80.269 115.936  0.00  0.00    -0.368 OA
BRANCH   7   8
ATOM      8  C   LIG d   1      -4.010  80.431 117.371  0.00  0.00     0.119 C 
BRANCH   8   9
ATOM      9  C   LIG d   1      -5.363  79.833 117.803  0.00  0.00     0.028 C 
ATOM     10  C   LIG d   1      -5.592  78.425 117.228  0.00  0.00     0.006 C 
ENDBRANCH   8   9
BRANCH   8  11
ATOM     11  C   LIG d   1      -4.078  81.910 117.762  0.00  0.00     0.028 C 
ATOM     12  C   LIG d   1      -2.768  82.424 118.380  0.00  0.00     0.006 C 
ENDBRANCH   8  11
ENDBRANCH   7   8
ENDBRANCH   1   7
BRANCH   6  13
ATOM     13  N   LIG d   1      -2.417  77.672 115.564  0.00  0.00    -0.311 N 
ATOM     14  C   LIG d   1      -3.013  76.500 115.348  0.00  0.00     0.210 C 
ATOM     15  C   LIG d   1      -2.859  75.479 116.479  0.00  0.00     0.109 C 
ATOM     16  O   LIG d   1      -3.626  76.199 114.313  0.00  0.00    -0.276 OA
ATOM     17  H   LIG d   1      -1.915  77.820 116.417  0.00  0.00     0.149 HD
ENDBRANCH   6  13
BRANCH   5  18
ATOM     18  N   LIG d   1      -1.177  77.636 112.772  0.00  0.00     0.381 N 
ATOM     19  H   LIG d   1      -2.095  77.263 112.639  0.00  0.00    -0.090 HD
ATOM     20  H   LIG d   1      -0.611  76.932 113.213  0.00  0.00    -0.090 HD
ATOM     21  H   LIG d   1      -0.782  77.887 111.893  0.00  0.00    -0.090 HD
ENDBRANCH   5  18
BRANCH   3  22
ATOM     22  C   LIG d   1      -1.000  82.419 112.950  0.00  0.00     0.382 C 
ATOM     23  O   LIG d   1      -1.403  82.838 111.838  0.00  0.00    -0.241 OA
ATOM     24  O   LIG d   1      -0.105  83.041 113.552  0.00  0.00    -0.241 OA
ENDBRANCH   3  22
TORSDOF 7
ENDMDL
MODEL 3
REMARK VINA RESULT:      -4.5      3.021      5.927
REMARK  7 active torsions:
REMARK  status: ('A' for Active; 'I' for Inactive)
REMARK    1  A    between atoms: C_2  and  C_3 
REMARK    2  A    between atoms: C_3  and  O_6 
REMARK    3  A    between atoms: C_3  and  C_4 
REMARK    4  A    between atoms: C_7  and  O_6 
REMARK    5  A    between atoms: C_9  and  C_10 
REMARK    6  A    between atoms: N_15  and  C_14 
REMARK    7  A    between atoms: N_20  and  C_19 
REMARK       I    between atoms: C_22  and  N_20 
ROOT
ATOM      1  C   LIG d   1      -3.638  79.661 116.469  0.00  0.00     0.161 C 
ATOM      2  C   LIG d   1      -3.389  78.516 115.694  0.00  0.00     0.016 C 
ATOM      3  C   LIG d   1      -4.136  77.321 115.808  0.00  0.00     0.038 C 
ATOM      4  C   LIG d   1      -5.288  77.240 116.604  0.00  0.00     0.028 C 
ATOM      5  C   LIG d   1      -5.279  78.208 117.782  0.00  0.00    -0.047 C 
ATOM      6  C   LIG d   1      -4.961  79.628 117.263  0.00  0.00     0.091 C 
ENDROOT
BRANCH   1   7
ATOM      7  O   LIG d   1      -3.582  80.836 115.636  0.00  0.00    -0.368 OA
BRANCH   7   8
ATOM      8  C   LIG d   1      -2.317  81.542 115.615  0.00  0.00     0.119 C 
BRANCH   8   9
ATOM      9  C   LIG d   1      -2.485  82.818 116.462  0.00  0.00     0.028 C 
ATOM     10  C   LIG d   1      -1.756  82.726 117.813  0.00  0.00     0.006 C 
ENDBRANCH   8   9
BRANCH   8  11
ATOM     11  C   LIG d   1      -1.977  82.034 114.205  0.00  0.00     0.028 C 
ATOM     12  C   LIG d   1      -2.788  81.318 113.113  0.00  0.00     0.006 C 
ENDBRANCH   8  11
ENDBRANCH   7   8
ENDBRANCH   1   7
BRANCH   6  13
ATOM     13  N   LIG d   1      -4.850  80.622 118.362  0.00  0.00    -0.311 N 
ATOM     14  C   LIG d   1      -5.576  81.738 118.417  0.00  0.00     0.210 C 
ATOM     15  C   LIG d   1      -5.291  82.635 119.626  0.00  0.00     0.109 C 
ATOM     16  O   LIG d   1      -6.450  82.055 117.597  0.00  0.00    -0.276 OA
ATOM     17  H   LIG d   1      -4.187  80.429 119.086  0.00  0.00     0.149 HD
ENDBRANCH   6  13
BRANCH   5  18
ATOM     18  N   LIG d   1      -6.594  78.115 118.444  0.00  0.00     0.381 N 
ATOM     19  H   LIG d   1      -7.318  78.347 117.794  0.00  0.00    -0.090 HD
ATOM     20  H   LIG d   1      -6.625  78.777 119.200  0.00  0.00    -0.090 HD
ATOM     21  H   LIG d   1      -6.735  77.194 118.795  0.00  0.00    -0.090 HD
ENDBRANCH   5  18
BRANCH   3  22
ATOM     22  C   LIG d   1      -3.707  76.178 115.150  0.00  0.00     0.382 C 
ATOM     23  O   LIG d   1      -2.499  75.842 115.199  0.00  0.00    -0.241 OA
ATOM     24  O   LIG d   1      -4.505  75.502 114.473  0.00  0.00    -0.241 OA
ENDBRANCH   3  22
TORSDOF 7
ENDMDL
MODEL 4
REMARK VINA RESULT:      -4.5      2.774      5.329
REMARK  7 active torsions:
REMARK  status: ('A' for Active; 'I' for Inactive)
REMARK    1  A    between atoms: C_2  and  C_3 
REMARK    2  A    between atoms: C_3  and  O_6 
REMARK    3  A    between atoms: C_3  and  C_4 
REMARK    4  A    between atoms: C_7  and  O_6 
REMARK    5  A    between atoms: C_9  and  C_10 
REMARK    6  A    between atoms: N_15  and  C_14 
REMARK    7  A    between atoms: N_20  and  C_19 
REMARK       I    between atoms: C_22  and  N_20 
ROOT
ATOM      1  C   LIG d   1      -1.521  80.560 114.948  0.00  0.00     0.161 C 
ATOM      2  C   LIG d   1      -2.376  79.490 115.259  0.00  0.00     0.016 C 
ATOM      3  C   LIG d   1      -2.546  78.362 114.423  0.00  0.00     0.038 C 
ATOM      4  C   LIG d   1      -1.754  78.157 113.284  0.00  0.00     0.028 C 
ATOM      5  C   LIG d   1      -1.238  79.450 112.663  0.00  0.00    -0.047 C 
ATOM      6  C   LIG d   1      -0.565  80.302 113.764  0.00  0.00     0.091 C 
ENDROOT
BRANCH   1   7
ATOM      7  O   LIG d   1      -0.775  80.946 116.119  0.00  0.00    -0.368 OA
BRANCH   7   8
ATOM      8  C   LIG d   1      -1.354  82.003 116.924  0.00  0.00     0.119 C 
BRANCH   8   9
ATOM      9  C   LIG d   1      -1.289  83.302 116.097  0.00  0.00     0.028 C 
ATOM     10  C   LIG d   1       0.124  83.908 116.065  0.00  0.00     0.006 C 
ENDBRANCH   8   9
BRANCH   8  11
ATOM     11  C   LIG d   1      -0.513  82.276 118.174  0.00  0.00     0.028 C 
ATOM     12  C   LIG d   1      -1.357  82.742 119.370  0.00  0.00     0.006 C 
ENDBRANCH   8  11
ENDBRANCH   7   8
ENDBRANCH   1   7
BRANCH   6  13
ATOM     13  N   LIG d   1      -0.107  81.622 113.259  0.00  0.00    -0.311 N 
ATOM     14  C   LIG d   1      -0.901  82.477 112.616  0.00  0.00     0.210 C 
ATOM     15  C   LIG d   1      -0.223  83.773 112.162  0.00  0.00     0.109 C 
ATOM     16  O   LIG d   1      -2.110  82.297 112.406  0.00  0.00    -0.276 OA
ATOM     17  H   LIG d   1       0.852  81.862 113.414  0.00  0.00     0.149 HD
ENDBRANCH   6  13
BRANCH   5  18
ATOM     18  N   LIG d   1      -0.317  79.085 111.571  0.00  0.00     0.381 N 
ATOM     19  H   LIG d   1      -0.658  78.272 111.098  0.00  0.00    -0.090 HD
ATOM     20  H   LIG d   1       0.583  78.867 111.963  0.00  0.00    -0.090 HD
ATOM     21  H   LIG d   1      -0.233  79.841 110.928  0.00  0.00    -0.090 HD
ENDBRANCH   5  18
BRANCH   3  22
ATOM     22  C   LIG d   1      -3.547  77.444 114.703  0.00  0.00     0.382 C 
ATOM     23  O   LIG d   1      -3.520  76.306 114.176  0.00  0.00    -0.241 OA
ATOM     24  O   LIG d   1      -4.501  77.755 115.442  0.00  0.00    -0.241 OA
ENDBRANCH   3  22
TORSDOF 7
ENDMDL
MODEL 5
REMARK VINA RESULT:      -4.4      1.582      2.459
REMARK  7 active torsions:
REMARK  status: ('A' for Active; 'I' for Inactive)
REMARK    1  A    between atoms: C_2  and  C_3 
REMARK    2  A    between atoms: C_3  and  O_6 
REMARK    3  A    between atoms: C_3  and  C_4 
REMARK    4  A    between atoms: C_7  and  O_6 
REMARK    5  A    between atoms: C_9  and  C_10 
REMARK    6  A    between atoms: N_15  and  C_14 
REMARK    7  A    between atoms: N_20  and  C_19 
REMARK       I    between atoms: C_22  and  N_20 
ROOT
ATOM      1  C   LIG d   1      -1.704  79.281 116.068  0.00  0.00     0.161 C 
ATOM      2  C   LIG d   1      -2.242  80.396 115.404  0.00  0.00     0.016 C 
ATOM      3  C   LIG d   1      -2.431  80.451 114.004  0.00  0.00     0.038 C 
ATOM      4  C   LIG d   1      -2.233  79.330 113.184  0.00  0.00     0.028 C 
ATOM      5  C   LIG d   1      -1.212  78.345 113.741  0.00  0.00    -0.047 C 
ATOM      6  C   LIG d   1      -1.586  78.008 115.203  0.00  0.00     0.091 C 
ENDROOT
BRANCH   1   7
ATOM      7  O   LIG d   1      -2.466  79.007 117.260  0.00  0.00    -0.368 OA
BRANCH   7   8
ATOM      8  C   LIG d   1      -2.158  79.826 118.415  0.00  0.00     0.119 C 
BRANCH   8   9
ATOM      9  C   LIG d   1      -1.915  78.877 119.604  0.00  0.00     0.028 C 
ATOM     10  C   LIG d   1      -0.693  77.968 119.390  0.00  0.00     0.006 C 
ENDBRANCH   8   9
BRANCH   8  11
ATOM     11  C   LIG d   1      -3.357  80.688 118.822  0.00  0.00     0.028 C 
ATOM     12  C   LIG d   1      -3.019  82.186 118.888  0.00  0.00     0.006 C 
ENDBRANCH   8  11
ENDBRANCH   7   8
ENDBRANCH   1   7
BRANCH   6  13
ATOM     13  N   LIG d   1      -0.590  77.115 115.851  0.00  0.00    -0.311 N 
ATOM     14  C   LIG d   1      -0.681  75.786 115.840  0.00  0.00     0.210 C 
ATOM     15  C   LIG d   1       0.440  75.055 116.586  0.00  0.00     0.109 C 
ATOM     16  O   LIG d   1      -1.567  75.142 115.257  0.00  0.00    -0.276 OA
ATOM     17  H   LIG d   1       0.178  77.552 116.321  0.00  0.00     0.149 HD
ENDBRANCH   6  13
BRANCH   5  18
ATOM     18  N   LIG d   1      -1.205  77.163 112.859  0.00  0.00     0.381 N 
ATOM     19  H   LIG d   1      -0.940  77.432 111.933  0.00  0.00    -0.090 HD
ATOM     20  H   LIG d   1      -2.134  76.779 112.822  0.00  0.00    -0.090 HD
ATOM     21  H   LIG d   1      -0.570  76.479 113.209  0.00  0.00    -0.090 HD
ENDBRANCH   5  18
BRANCH   3  22
ATOM     22  C   LIG d   1      -2.785  81.651 113.405  0.00  0.00     0.382 C 
ATOM     23  O   LIG d   1      -2.086  82.676 113.594  0.00  0.00    -0.241 OA
ATOM     24  O   LIG d   1      -3.818  81.732 112.715  0.00  0.00    -0.241 OA
ENDBRANCH   3  22
TORSDOF 7
ENDMDL
MODEL 6
REMARK VINA RESULT:      -4.4      1.670      2.107
REMARK  7 active torsions:
REMARK  status: ('A' for Active; 'I' for Inactive)
REMARK    1  A    between atoms: C_2  and  C_3 
REMARK    2  A    between atoms: C_3  and  O_6 
REMARK    3  A    between atoms: C_3  and  C_4 
REMARK    4  A    between atoms: C_7  and  O_6 
REMARK    5  A    between atoms: C_9  and  C_10 
REMARK    6  A    between atoms: N_15  and  C_14 
REMARK    7  A    between atoms: N_20  and  C_19 
REMARK       I    between atoms: C_22  and  N_20 
ROOT
ATOM      1  C   LIG d   1      -1.039  80.464 115.664  0.00  0.00     0.161 C 
ATOM      2  C   LIG d   1      -1.137  81.677 114.962  0.00  0.00     0.016 C 
ATOM      3  C   LIG d   1      -1.176  81.758 113.551  0.00  0.00     0.038 C 
ATOM      4  C   LIG d   1      -1.271  80.615 112.744  0.00  0.00     0.028 C 
ATOM      5  C   LIG d   1      -0.667  79.370 113.385  0.00  0.00    -0.047 C 
ATOM      6  C   LIG d   1      -1.254  79.200 114.804  0.00  0.00     0.091 C 
ENDROOT
BRANCH   1   7
ATOM      7  O   LIG d   1      -1.950  80.471 116.781  0.00  0.00    -0.368 OA
BRANCH   7   8
ATOM      8  C   LIG d   1      -3.344  80.707 116.466  0.00  0.00     0.119 C 
BRANCH   8   9
ATOM      9  C   LIG d   1      -3.770  81.998 117.191  0.00  0.00     0.028 C 
ATOM     10  C   LIG d   1      -2.876  82.314 118.402  0.00  0.00     0.006 C 
ENDBRANCH   8   9
BRANCH   8  11
ATOM     11  C   LIG d   1      -4.239  79.605 117.040  0.00  0.00     0.028 C 
ATOM     12  C   LIG d   1      -3.450  78.539 117.815  0.00  0.00     0.006 C 
ENDBRANCH   8  11
ENDBRANCH   7   8
ENDBRANCH   1   7
BRANCH   6  13
ATOM     13  N   LIG d   1      -0.653  78.053 115.533  0.00  0.00    -0.311 N 
ATOM     14  C   LIG d   1      -1.127  76.810 115.463  0.00  0.00     0.210 C 
ATOM     15  C   LIG d   1      -0.371  75.781 116.309  0.00  0.00     0.109 C 
ATOM     16  O   LIG d   1      -2.082  76.457 114.755  0.00  0.00    -0.276 OA
ATOM     17  H   LIG d   1       0.145  78.244 116.107  0.00  0.00     0.149 HD
ENDBRANCH   6  13
BRANCH   5  18
ATOM     18  N   LIG d   1      -0.958  78.227 112.498  0.00  0.00     0.381 N 
ATOM     19  H   LIG d   1      -0.672  77.375 112.939  0.00  0.00    -0.090 HD
ATOM     20  H   LIG d   1      -0.433  78.334 111.648  0.00  0.00    -0.090 HD
ATOM     21  H   LIG d   1      -1.932  78.193 112.295  0.00  0.00    -0.090 HD
ENDBRANCH   5  18
BRANCH   3  22
ATOM     22  C   LIG d   1      -1.078  82.995 112.931  0.00  0.00     0.382 C 
ATOM     23  O   LIG d   1      -1.221  83.086 111.688  0.00  0.00    -0.241 OA
ATOM     24  O   LIG d   1      -0.806  84.014 113.594  0.00  0.00    -0.241 OA
ENDBRANCH   3  22
TORSDOF 7
ENDMDL
MODEL 7
REMARK VINA RESULT:      -4.3      2.751      3.737
REMARK  7 active torsions:
REMARK  status: ('A' for Active; 'I' for Inactive)
REMARK    1  A    between atoms: C_2  and  C_3 
REMARK    2  A    between atoms: C_3  and  O_6 
REMARK    3  A    between atoms: C_3  and  C_4 
REMARK    4  A    between atoms: C_7  and  O_6 
REMARK    5  A    between atoms: C_9  and  C_10 
REMARK    6  A    between atoms: N_15  and  C_14 
REMARK    7  A    between atoms: N_20  and  C_19 
REMARK       I    between atoms: C_22  and  N_20 
ROOT
ATOM      1  C   LIG d   1       0.177  80.972 115.112  0.00  0.00     0.161 C 
ATOM      2  C   LIG d   1       0.120  82.118 114.301  0.00  0.00     0.016 C 
ATOM      3  C   LIG d   1      -0.552  82.158 113.058  0.00  0.00     0.038 C 
ATOM      4  C   LIG d   1      -1.345  81.091 112.609  0.00  0.00     0.028 C 
ATOM      5  C   LIG d   1      -0.904  79.737 113.154  0.00  0.00    -0.047 C 
ATOM      6  C   LIG d   1      -0.775  79.833 114.692  0.00  0.00     0.091 C 
ENDROOT
BRANCH   1   7
ATOM      7  O   LIG d   1      -0.054  81.336 116.488  0.00  0.00    -0.368 OA
BRANCH   7   8
ATOM      8  C   LIG d   1      -0.635  82.643 116.713  0.00  0.00     0.119 C 
BRANCH   8   9
ATOM      9  C   LIG d   1       0.123  83.292 117.887  0.00  0.00     0.028 C 
ATOM     10  C   LIG d   1      -0.617  83.130 119.225  0.00  0.00     0.006 C 
ENDBRANCH   8   9
BRANCH   8  11
ATOM     11  C   LIG d   1      -2.089  82.533 117.181  0.00  0.00     0.028 C 
ATOM     12  C   LIG d   1      -3.093  82.557 116.017  0.00  0.00     0.006 C 
ENDBRANCH   8  11
ENDBRANCH   7   8
ENDBRANCH   1   7
BRANCH   6  13
ATOM     13  N   LIG d   1      -0.266  78.575 115.298  0.00  0.00    -0.311 N 
ATOM     14  C   LIG d   1      -1.060  77.630 115.800  0.00  0.00     0.210 C 
ATOM     15  C   LIG d   1      -0.330  76.422 116.395  0.00  0.00     0.109 C 
ATOM     16  O   LIG d   1      -2.299  77.664 115.780  0.00  0.00    -0.276 OA
ATOM     17  H   LIG d   1       0.727  78.452 115.327  0.00  0.00     0.149 HD
ENDBRANCH   6  13
BRANCH   5  18
ATOM     18  N   LIG d   1      -1.896  78.736 112.719  0.00  0.00     0.381 N 
ATOM     19  H   LIG d   1      -2.536  78.547 113.464  0.00  0.00    -0.090 HD
ATOM     20  H   LIG d   1      -1.418  77.882 112.490  0.00  0.00    -0.090 HD
ATOM     21  H   LIG d   1      -2.392  79.072 111.922  0.00  0.00    -0.090 HD
ENDBRANCH   5  18
BRANCH   3  22
ATOM     22  C   LIG d   1      -0.401  83.260 112.230  0.00  0.00     0.382 C 
ATOM     23  O   LIG d   1       0.422  84.159 112.527  0.00  0.00    -0.241 OA
ATOM     24  O   LIG d   1      -1.109  83.388 111.214  0.00  0.00    -0.241 OA
ENDBRANCH   3  22
TORSDOF 7
ENDMDL
MODEL 8
REMARK VINA RESULT:      -4.2      1.926      2.671
REMARK  7 active torsions:
REMARK  status: ('A' for Active; 'I' for Inactive)
REMARK    1  A    between atoms: C_2  and  C_3 
REMARK    2  A    between atoms: C_3  and  O_6 
REMARK    3  A    between atoms: C_3  and  C_4 
REMARK    4  A    between atoms: C_7  and  O_6 
REMARK    5  A    between atoms: C_9  and  C_10 
REMARK    6  A    between atoms: N_15  and  C_14 
REMARK    7  A    between atoms: N_20  and  C_19 
REMARK       I    between atoms: C_22  and  N_20 
ROOT
ATOM      1  C   LIG d   1      -0.967  80.125 115.999  0.00  0.00     0.161 C 
ATOM      2  C   LIG d   1      -1.545  81.061 115.126  0.00  0.00     0.016 C 
ATOM      3  C   LIG d   1      -2.317  80.699 113.998  0.00  0.00     0.038 C 
ATOM      4  C   LIG d   1      -2.690  79.370 113.750  0.00  0.00     0.028 C 
ATOM      5  C   LIG d   1      -1.710  78.350 114.318  0.00  0.00    -0.047 C 
ATOM      6  C   LIG d   1      -1.456  78.674 115.808  0.00  0.00     0.091 C 
ENDROOT
BRANCH   1   7
ATOM      7  O   LIG d   1      -1.162  80.543 117.364  0.00  0.00    -0.368 OA
BRANCH   7   8
ATOM      8  C   LIG d   1      -2.182  81.549 117.583  0.00  0.00     0.119 C 
BRANCH   8   9
ATOM      9  C   LIG d   1      -1.619  82.568 118.592  0.00  0.00     0.028 C 
ATOM     10  C   LIG d   1      -0.220  83.071 118.199  0.00  0.00     0.006 C 
ENDBRANCH   8   9
BRANCH   8  11
ATOM     11  C   LIG d   1      -3.419  80.950 118.259  0.00  0.00     0.028 C 
ATOM     12  C   LIG d   1      -4.708  81.723 117.935  0.00  0.00     0.006 C 
ENDBRANCH   8  11
ENDBRANCH   7   8
ENDBRANCH   1   7
BRANCH   6  13
ATOM     13  N   LIG d   1      -0.443  77.774 116.419  0.00  0.00    -0.311 N 
ATOM     14  C   LIG d   1      -0.755  76.655 117.072  0.00  0.00     0.210 C 
ATOM     15  C   LIG d   1       0.440  75.884 117.642  0.00  0.00     0.109 C 
ATOM     16  O   LIG d   1      -1.906  76.212 117.206  0.00  0.00    -0.276 OA
ATOM     17  H   LIG d   1       0.518  78.041 116.331  0.00  0.00     0.149 HD
ENDBRANCH   6  13
BRANCH   5  18
ATOM     18  N   LIG d   1      -2.290  77.010 114.109  0.00  0.00     0.381 N 
ATOM     19  H   LIG d   1      -2.065  76.418 114.884  0.00  0.00    -0.090 HD
ATOM     20  H   LIG d   1      -1.890  76.608 113.279  0.00  0.00    -0.090 HD
ATOM     21  H   LIG d   1      -3.279  77.078 114.009  0.00  0.00    -0.090 HD
ENDBRANCH   5  18
BRANCH   3  22
ATOM     22  C   LIG d   1      -2.689  81.670 113.081  0.00  0.00     0.382 C 
ATOM     23  O   LIG d   1      -3.904  81.923 112.894  0.00  0.00    -0.241 OA
ATOM     24  O   LIG d   1      -1.828  82.266 112.406  0.00  0.00    -0.241 OA
ENDBRANCH   3  22
TORSDOF 7
ENDMDL
MODEL 9
REMARK VINA RESULT:      -4.0      3.747      5.950
REMARK  7 active torsions:
REMARK  status: ('A' for Active; 'I' for Inactive)
REMARK    1  A    between atoms: C_2  and  C_3 
REMARK    2  A    between atoms: C_3  and  O_6 
REMARK    3  A    between atoms: C_3  and  C_4 
REMARK    4  A    between atoms: C_7  and  O_6 
REMARK    5  A    between atoms: C_9  and  C_10 
REMARK    6  A    between atoms: N_15  and  C_14 
REMARK    7  A    between atoms: N_20  and  C_19 
REMARK       I    between atoms: C_22  and  N_20 
ROOT
ATOM      1  C   LIG d   1      -6.534  77.739 117.438  0.00  0.00     0.161 C 
ATOM      2  C   LIG d   1      -6.106  77.114 116.254  0.00  0.00     0.016 C 
ATOM      3  C   LIG d   1      -4.778  77.183 115.774  0.00  0.00     0.038 C 
ATOM      4  C   LIG d   1      -3.746  77.760 116.529  0.00  0.00     0.028 C 
ATOM      5  C   LIG d   1      -4.229  78.841 117.489  0.00  0.00    -0.047 C 
ATOM      6  C   LIG d   1      -5.397  78.279 118.331  0.00  0.00     0.091 C 
ENDROOT
BRANCH   1   7
ATOM      7  O   LIG d   1      -7.377  76.841 118.187  0.00  0.00    -0.368 OA
BRANCH   7   8
ATOM      8  C   LIG d   1      -7.854  75.672 117.477  0.00  0.00     0.119 C 
BRANCH   8   9
ATOM      9  C   LIG d   1      -9.391  75.665 117.578  0.00  0.00     0.028 C 
ATOM     10  C   LIG d   1      -9.931  76.848 118.399  0.00  0.00     0.006 C 
ENDBRANCH   8   9
BRANCH   8  11
ATOM     11  C   LIG d   1      -7.396  74.380 118.159  0.00  0.00     0.028 C 
ATOM     12  C   LIG d   1      -6.892  74.610 119.593  0.00  0.00     0.006 C 
ENDBRANCH   8  11
ENDBRANCH   7   8
ENDBRANCH   1   7
BRANCH   6  13
ATOM     13  N   LIG d   1      -5.985  79.299 119.238  0.00  0.00    -0.311 N 
ATOM     14  C   LIG d   1      -6.387  80.501 118.827  0.00  0.00     0.210 C 
ATOM     15  C   LIG d   1      -6.945  81.408 119.929  0.00  0.00     0.109 C 
ATOM     16  O   LIG d   1      -6.365  80.890 117.650  0.00  0.00    -0.276 OA
ATOM     17  H   LIG d   1      -6.069  79.056 120.205  0.00  0.00     0.149 HD
ENDBRANCH   6  13
BRANCH   5  18
ATOM     18  N   LIG d   1      -3.075  79.259 118.308  0.00  0.00     0.381 N 
ATOM     19  H   LIG d   1      -2.418  78.507 118.375  0.00  0.00    -0.090 HD
ATOM     20  H   LIG d   1      -3.397  79.480 119.233  0.00  0.00    -0.090 HD
ATOM     21  H   LIG d   1      -2.638  80.056 117.900  0.00  0.00    -0.090 HD
ENDBRANCH   5  18
BRANCH   3  22
ATOM     22  C   LIG d   1      -4.480  76.705 114.507  0.00  0.00     0.382 C 
ATOM     23  O   LIG d   1      -3.299  76.397 114.215  0.00  0.00    -0.241 OA
ATOM     24  O   LIG d   1      -5.369  76.621 113.638  0.00  0.00    -0.241 OA
ENDBRANCH   3  22
TORSDOF 7
ENDMDL
