MODEL 1
REMARK VINA RESULT:      -5.0      0.000      0.000
REMARK  7 active torsions:
REMARK  status: ('A' for Active; 'I' for Inactive)
REMARK    1  A    between atoms: C_2  and  C_3 
REMARK    2  A    between atoms: C_3  and  O_6 
REMARK    3  A    between atoms: C_3  and  C_4 
REMARK    4  A    between atoms: C_7  and  O_6 
REMARK    5  A    between atoms: C_9  and  C_10 
REMARK    6  A    between atoms: N_15  and  C_14 
REMARK    7  A    between atoms: N_20  and  C_19 
REMARK       I    between atoms: C_22  and  N_20 
ROOT
ATOM      1  C   LIG d   1      -3.004  79.996 114.926  0.00  0.00     0.161 C 
ATOM      2  C   LIG d   1      -2.686  81.192 114.262  0.00  0.00     0.016 C 
ATOM      3  C   LIG d   1      -2.144  81.238 112.957  0.00  0.00     0.038 C 
ATOM      4  C   LIG d   1      -2.022  80.087 112.164  0.00  0.00     0.028 C 
ATOM      5  C   LIG d   1      -1.858  78.806 112.976  0.00  0.00    -0.047 C 
ATOM      6  C   LIG d   1      -2.983  78.736 114.035  0.00  0.00     0.091 C 
ENDROOT
BRANCH   1   7
ATOM      7  O   LIG d   1      -4.282  80.125 115.580  0.00  0.00    -0.368 OA
BRANCH   7   8
ATOM      8  C   LIG d   1      -4.250  80.250 117.023  0.00  0.00     0.119 C 
BRANCH   8   9
ATOM      9  C   LIG d   1      -5.521  79.575 117.575  0.00  0.00     0.028 C 
ATOM     10  C   LIG d   1      -5.752  78.179 116.973  0.00  0.00     0.006 C 
ENDBRANCH   8   9
BRANCH   8  11
ATOM     11  C   LIG d   1      -4.348  81.716 117.457  0.00  0.00     0.028 C 
ATOM     12  C   LIG d   1      -3.004  82.285 117.941  0.00  0.00     0.006 C 
ENDBRANCH   8  11
ENDBRANCH   7   8
ENDBRANCH   1   7
BRANCH   6  13
ATOM     13  N   LIG d   1      -2.848  77.556 114.928  0.00  0.00    -0.311 N 
ATOM     14  C   LIG d   1      -3.389  76.369 114.661  0.00  0.00     0.210 C 
ATOM     15  C   LIG d   1      -3.146  75.293 115.724  0.00  0.00     0.109 C 
ATOM     16  O   LIG d   1      -4.021  76.096 113.629  0.00  0.00    -0.276 OA
ATOM     17  H   LIG d   1      -2.324  77.680 115.772  0.00  0.00     0.149 HD
ENDBRANCH   6  13
BRANCH   5  18
ATOM     18  N   LIG d   1      -1.882  77.674 112.032  0.00  0.00     0.381 N 
ATOM     19  H   LIG d   1      -2.815  77.320 111.950  0.00  0.00    -0.090 HD
ATOM     20  H   LIG d   1      -1.297  76.940 112.390  0.00  0.00    -0.090 HD
ATOM     21  H   LIG d   1      -1.551  77.967 111.139  0.00  0.00    -0.090 HD
ENDBRANCH   5  18
BRANCH   3  22
ATOM     22  C   LIG d   1      -1.679  82.440 112.448  0.00  0.00     0.382 C 
ATOM     23  O   LIG d   1      -1.534  83.429 113.207  0.00  0.00    -0.241 OA
ATOM     24  O   LIG d   1      -1.444  82.563 111.230  0.00  0.00    -0.241 OA
ENDBRANCH   3  22
TORSDOF 7
ENDMDL
MODEL 2
REMARK VINA RESULT:      -5.0      1.911      2.743
REMARK  7 active torsions:
REMARK  status: ('A' for Active; 'I' for Inactive)
REMARK    1  A    between atoms: C_2  and  C_3 
REMARK    2  A    between atoms: C_3  and  O_6 
REMARK    3  A    between atoms: C_3  and  C_4 
REMARK    4  A    between atoms: C_7  and  O_6 
REMARK    5  A    between atoms: C_9  and  C_10 
REMARK    6  A    between atoms: N_15  and  C_14 
REMARK    7  A    between atoms: N_20  and  C_19 
REMARK       I    between atoms: C_22  and  N_20 
ROOT
ATOM      1  C   LIG d   1      -1.864  81.069 113.598  0.00  0.00     0.161 C 
ATOM      2  C   LIG d   1      -1.665  82.376 113.122  0.00  0.00     0.016 C 
ATOM      3  C   LIG d   1      -1.028  82.669 111.895  0.00  0.00     0.038 C 
ATOM      4  C   LIG d   1      -0.679  81.662 110.982  0.00  0.00     0.028 C 
ATOM      5  C   LIG d   1      -0.403  80.315 111.642  0.00  0.00    -0.047 C 
ATOM      6  C   LIG d   1      -1.590  79.956 112.565  0.00  0.00     0.091 C 
ENDROOT
BRANCH   1   7
ATOM      7  O   LIG d   1      -3.197  80.941 114.131  0.00  0.00    -0.368 OA
BRANCH   7   8
ATOM      8  C   LIG d   1      -3.297  80.771 115.566  0.00  0.00     0.119 C 
BRANCH   8   9
ATOM      9  C   LIG d   1      -3.703  82.130 116.167  0.00  0.00     0.028 C 
ATOM     10  C   LIG d   1      -2.512  82.875 116.793  0.00  0.00     0.006 C 
ENDBRANCH   8   9
BRANCH   8  11
ATOM     11  C   LIG d   1      -1.933  80.445 116.184  0.00  0.00     0.028 C 
ATOM     12  C   LIG d   1      -1.939  79.131 116.980  0.00  0.00     0.006 C 
ENDBRANCH   8  11
ENDBRANCH   7   8
ENDBRANCH   1   7
BRANCH   6  13
ATOM     13  N   LIG d   1      -1.364  78.693 113.314  0.00  0.00    -0.311 N 
ATOM     14  C   LIG d   1      -2.284  77.738 113.435  0.00  0.00     0.210 C 
ATOM     15  C   LIG d   1      -1.852  76.526 114.266  0.00  0.00     0.109 C 
ATOM     16  O   LIG d   1      -3.406  77.765 112.907  0.00  0.00    -0.276 OA
ATOM     17  H   LIG d   1      -0.470  78.574 113.748  0.00  0.00     0.149 HD
ENDBRANCH   6  13
BRANCH   5  18
ATOM     18  N   LIG d   1      -0.188  79.328 110.567  0.00  0.00     0.381 N 
ATOM     19  H   LIG d   1      -1.043  79.175 110.071  0.00  0.00    -0.090 HD
ATOM     20  H   LIG d   1       0.099  78.457 110.978  0.00  0.00    -0.090 HD
ATOM     21  H   LIG d   1       0.514  79.655 109.940  0.00  0.00    -0.090 HD
ENDBRANCH   5  18
BRANCH   3  22
ATOM     22  C   LIG d   1      -0.697  83.980 111.588  0.00  0.00     0.382 C 
ATOM     23  O   LIG d   1      -1.068  84.482 110.499  0.00  0.00    -0.241 OA
ATOM     24  O   LIG d   1       0.006  84.653 112.365  0.00  0.00    -0.241 OA
ENDBRANCH   3  22
TORSDOF 7
ENDMDL
MODEL 3
REMARK VINA RESULT:      -4.9      1.655      2.569
REMARK  7 active torsions:
REMARK  status: ('A' for Active; 'I' for Inactive)
REMARK    1  A    between atoms: C_2  and  C_3 
REMARK    2  A    between atoms: C_3  and  O_6 
REMARK    3  A    between atoms: C_3  and  C_4 
REMARK    4  A    between atoms: C_7  and  O_6 
REMARK    5  A    between atoms: C_9  and  C_10 
REMARK    6  A    between atoms: N_15  and  C_14 
REMARK    7  A    between atoms: N_20  and  C_19 
REMARK       I    between atoms: C_22  and  N_20 
ROOT
ATOM      1  C   LIG d   1      -2.020  78.948 115.544  0.00  0.00     0.161 C 
ATOM      2  C   LIG d   1      -2.500  80.161 115.021  0.00  0.00     0.016 C 
ATOM      3  C   LIG d   1      -2.807  80.352 113.655  0.00  0.00     0.038 C 
ATOM      4  C   LIG d   1      -2.799  79.290 112.738  0.00  0.00     0.028 C 
ATOM      5  C   LIG d   1      -1.838  78.169 113.117  0.00  0.00    -0.047 C 
ATOM      6  C   LIG d   1      -2.110  77.748 114.579  0.00  0.00     0.091 C 
ENDROOT
BRANCH   1   7
ATOM      7  O   LIG d   1      -2.694  78.649 116.782  0.00  0.00    -0.368 OA
BRANCH   7   8
ATOM      8  C   LIG d   1      -4.141  78.586 116.720  0.00  0.00     0.119 C 
BRANCH   8   9
ATOM      9  C   LIG d   1      -4.691  79.469 117.857  0.00  0.00     0.028 C 
ATOM     10  C   LIG d   1      -5.477  80.682 117.331  0.00  0.00     0.006 C 
ENDBRANCH   8   9
BRANCH   8  11
ATOM     11  C   LIG d   1      -4.650  77.174 117.021  0.00  0.00     0.028 C 
ATOM     12  C   LIG d   1      -5.671  76.675 115.985  0.00  0.00     0.006 C 
ENDBRANCH   8  11
ENDBRANCH   7   8
ENDBRANCH   1   7
BRANCH   6  13
ATOM     13  N   LIG d   1      -1.157  76.713 115.058  0.00  0.00    -0.311 N 
ATOM     14  C   LIG d   1      -1.498  75.444 115.272  0.00  0.00     0.210 C 
ATOM     15  C   LIG d   1      -0.367  74.547 115.784  0.00  0.00     0.109 C 
ATOM     16  O   LIG d   1      -2.623  74.968 115.055  0.00  0.00    -0.276 OA
ATOM     17  H   LIG d   1      -0.214  77.006 115.230  0.00  0.00     0.149 HD
ENDBRANCH   6  13
BRANCH   5  18
ATOM     18  N   LIG d   1      -2.031  77.070 112.153  0.00  0.00     0.381 N 
ATOM     19  H   LIG d   1      -3.008  76.885 112.042  0.00  0.00    -0.090 HD
ATOM     20  H   LIG d   1      -1.592  76.241 112.512  0.00  0.00    -0.090 HD
ATOM     21  H   LIG d   1      -1.630  77.313 111.274  0.00  0.00    -0.090 HD
ENDBRANCH   5  18
BRANCH   3  22
ATOM     22  C   LIG d   1      -3.090  81.625 113.185  0.00  0.00     0.382 C 
ATOM     23  O   LIG d   1      -2.681  81.981 112.054  0.00  0.00    -0.241 OA
ATOM     24  O   LIG d   1      -3.710  82.438 113.897  0.00  0.00    -0.241 OA
ENDBRANCH   3  22
TORSDOF 7
ENDMDL
MODEL 4
REMARK VINA RESULT:      -4.6      2.257      5.057
REMARK  7 active torsions:
REMARK  status: ('A' for Active; 'I' for Inactive)
REMARK    1  A    between atoms: C_2  and  C_3 
REMARK    2  A    between atoms: C_3  and  O_6 
REMARK    3  A    between atoms: C_3  and  C_4 
REMARK    4  A    between atoms: C_7  and  O_6 
REMARK    5  A    between atoms: C_9  and  C_10 
REMARK    6  A    between atoms: N_15  and  C_14 
REMARK    7  A    between atoms: N_20  and  C_19 
REMARK       I    between atoms: C_22  and  N_20 
ROOT
ATOM      1  C   LIG d   1      -2.587  80.399 114.069  0.00  0.00     0.161 C 
ATOM      2  C   LIG d   1      -2.992  79.089 114.372  0.00  0.00     0.016 C 
ATOM      3  C   LIG d   1      -2.858  78.005 113.474  0.00  0.00     0.038 C 
ATOM      4  C   LIG d   1      -2.165  78.130 112.260  0.00  0.00     0.028 C 
ATOM      5  C   LIG d   1      -2.185  79.546 111.694  0.00  0.00    -0.047 C 
ATOM      6  C   LIG d   1      -1.729  80.532 112.794  0.00  0.00     0.091 C 
ENDROOT
BRANCH   1   7
ATOM      7  O   LIG d   1      -1.898  80.971 115.199  0.00  0.00    -0.368 OA
BRANCH   7   8
ATOM      8  C   LIG d   1      -2.721  81.687 116.152  0.00  0.00     0.119 C 
BRANCH   8   9
ATOM      9  C   LIG d   1      -3.232  82.963 115.456  0.00  0.00     0.028 C 
ATOM     10  C   LIG d   1      -2.179  84.084 115.438  0.00  0.00     0.006 C 
ENDBRANCH   8   9
BRANCH   8  11
ATOM     11  C   LIG d   1      -1.894  82.179 117.344  0.00  0.00     0.028 C 
ATOM     12  C   LIG d   1      -2.744  82.415 118.602  0.00  0.00     0.006 C 
ENDBRANCH   8  11
ENDBRANCH   7   8
ENDBRANCH   1   7
BRANCH   6  13
ATOM     13  N   LIG d   1      -1.799  81.949 112.350  0.00  0.00    -0.311 N 
ATOM     14  C   LIG d   1      -0.730  82.733 112.227  0.00  0.00     0.210 C 
ATOM     15  C   LIG d   1      -1.027  84.166 111.774  0.00  0.00     0.109 C 
ATOM     16  O   LIG d   1       0.440  82.369 112.419  0.00  0.00    -0.276 OA
ATOM     17  H   LIG d   1      -2.707  82.317 112.143  0.00  0.00     0.149 HD
ENDBRANCH   6  13
BRANCH   5  18
ATOM     18  N   LIG d   1      -1.313  79.563 110.504  0.00  0.00     0.381 N 
ATOM     19  H   LIG d   1      -0.668  78.799 110.546  0.00  0.00    -0.090 HD
ATOM     20  H   LIG d   1      -0.788  80.420 110.498  0.00  0.00    -0.090 HD
ATOM     21  H   LIG d   1      -1.864  79.497 109.677  0.00  0.00    -0.090 HD
ENDBRANCH   5  18
BRANCH   3  22
ATOM     22  C   LIG d   1      -3.455  76.789 113.769  0.00  0.00     0.382 C 
ATOM     23  O   LIG d   1      -2.926  76.019 114.607  0.00  0.00    -0.241 OA
ATOM     24  O   LIG d   1      -4.491  76.433 113.176  0.00  0.00    -0.241 OA
ENDBRANCH   3  22
TORSDOF 7
ENDMDL
MODEL 5
REMARK VINA RESULT:      -4.6      3.202      6.067
REMARK  7 active torsions:
REMARK  status: ('A' for Active; 'I' for Inactive)
REMARK    1  A    between atoms: C_2  and  C_3 
REMARK    2  A    between atoms: C_3  and  O_6 
REMARK    3  A    between atoms: C_3  and  C_4 
REMARK    4  A    between atoms: C_7  and  O_6 
REMARK    5  A    between atoms: C_9  and  C_10 
REMARK    6  A    between atoms: N_15  and  C_14 
REMARK    7  A    between atoms: N_20  and  C_19 
REMARK       I    between atoms: C_22  and  N_20 
ROOT
ATOM      1  C   LIG d   1      -5.682  77.671 117.107  0.00  0.00     0.161 C 
ATOM      2  C   LIG d   1      -6.701  78.343 117.802  0.00  0.00     0.016 C 
ATOM      3  C   LIG d   1      -6.715  79.743 118.000  0.00  0.00     0.038 C 
ATOM      4  C   LIG d   1      -5.782  80.589 117.382  0.00  0.00     0.028 C 
ATOM      5  C   LIG d   1      -4.449  79.909 117.089  0.00  0.00    -0.047 C 
ATOM      6  C   LIG d   1      -4.715  78.589 116.330  0.00  0.00     0.091 C 
ENDROOT
BRANCH   1   7
ATOM      7  O   LIG d   1      -6.260  76.689 116.224  0.00  0.00    -0.368 OA
BRANCH   7   8
ATOM      8  C   LIG d   1      -5.960  75.304 116.527  0.00  0.00     0.119 C 
BRANCH   8   9
ATOM      9  C   LIG d   1      -5.418  74.655 115.238  0.00  0.00     0.028 C 
ATOM     10  C   LIG d   1      -5.813  75.440 113.976  0.00  0.00     0.006 C 
ENDBRANCH   8   9
BRANCH   8  11
ATOM     11  C   LIG d   1      -7.230  74.522 116.872  0.00  0.00     0.028 C 
ATOM     12  C   LIG d   1      -8.509  75.357 116.702  0.00  0.00     0.006 C 
ENDBRANCH   8  11
ENDBRANCH   7   8
ENDBRANCH   1   7
BRANCH   6  13
ATOM     13  N   LIG d   1      -3.469  77.819 116.078  0.00  0.00    -0.311 N 
ATOM     14  C   LIG d   1      -2.960  77.625 114.863  0.00  0.00     0.210 C 
ATOM     15  C   LIG d   1      -1.680  76.785 114.824  0.00  0.00     0.109 C 
ATOM     16  O   LIG d   1      -3.430  78.096 113.816  0.00  0.00    -0.276 OA
ATOM     17  H   LIG d   1      -3.006  77.427 116.875  0.00  0.00     0.149 HD
ENDBRANCH   6  13
BRANCH   5  18
ATOM     18  N   LIG d   1      -3.623  80.860 116.322  0.00  0.00     0.381 N 
ATOM     19  H   LIG d   1      -4.154  81.233 115.561  0.00  0.00    -0.090 HD
ATOM     20  H   LIG d   1      -2.831  80.371 115.943  0.00  0.00    -0.090 HD
ATOM     21  H   LIG d   1      -3.314  81.599 116.915  0.00  0.00    -0.090 HD
ENDBRANCH   5  18
BRANCH   3  22
ATOM     22  C   LIG d   1      -7.648  80.307 118.858  0.00  0.00     0.382 C 
ATOM     23  O   LIG d   1      -8.448  79.571 119.485  0.00  0.00    -0.241 OA
ATOM     24  O   LIG d   1      -7.728  81.544 118.979  0.00  0.00    -0.241 OA
ENDBRANCH   3  22
TORSDOF 7
ENDMDL
MODEL 6
REMARK VINA RESULT:      -4.5      2.815      4.255
REMARK  7 active torsions:
REMARK  status: ('A' for Active; 'I' for Inactive)
REMARK    1  A    between atoms: C_2  and  C_3 
REMARK    2  A    between atoms: C_3  and  O_6 
REMARK    3  A    between atoms: C_3  and  C_4 
REMARK    4  A    between atoms: C_7  and  O_6 
REMARK    5  A    between atoms: C_9  and  C_10 
REMARK    6  A    between atoms: N_15  and  C_14 
REMARK    7  A    between atoms: N_20  and  C_19 
REMARK       I    between atoms: C_22  and  N_20 
ROOT
ATOM      1  C   LIG d   1      -3.763  78.214 116.127  0.00  0.00     0.161 C 
ATOM      2  C   LIG d   1      -4.427  79.399 116.486  0.00  0.00     0.016 C 
ATOM      3  C   LIG d   1      -3.840  80.681 116.390  0.00  0.00     0.038 C 
ATOM      4  C   LIG d   1      -2.592  80.881 115.781  0.00  0.00     0.028 C 
ATOM      5  C   LIG d   1      -1.675  79.665 115.866  0.00  0.00    -0.047 C 
ATOM      6  C   LIG d   1      -2.442  78.422 115.357  0.00  0.00     0.091 C 
ENDROOT
BRANCH   1   7
ATOM      7  O   LIG d   1      -4.651  77.363 115.377  0.00  0.00    -0.368 OA
BRANCH   7   8
ATOM      8  C   LIG d   1      -5.564  76.550 116.155  0.00  0.00     0.119 C 
BRANCH   8   9
ATOM      9  C   LIG d   1      -4.714  75.644 117.067  0.00  0.00     0.028 C 
ATOM     10  C   LIG d   1      -5.390  75.375 118.421  0.00  0.00     0.006 C 
ENDBRANCH   8   9
BRANCH   8  11
ATOM     11  C   LIG d   1      -6.359  75.594 115.261  0.00  0.00     0.028 C 
ATOM     12  C   LIG d   1      -5.599  75.201 113.984  0.00  0.00     0.006 C 
ENDBRANCH   8  11
ENDBRANCH   7   8
ENDBRANCH   1   7
BRANCH   6  13
ATOM     13  N   LIG d   1      -1.646  77.174 115.485  0.00  0.00    -0.311 N 
ATOM     14  C   LIG d   1      -1.500  76.293 114.496  0.00  0.00     0.210 C 
ATOM     15  C   LIG d   1      -0.655  75.063 114.845  0.00  0.00     0.109 C 
ATOM     16  O   LIG d   1      -1.964  76.428 113.354  0.00  0.00    -0.276 OA
ATOM     17  H   LIG d   1      -1.208  77.000 116.368  0.00  0.00     0.149 HD
ENDBRANCH   6  13
BRANCH   5  18
ATOM     18  N   LIG d   1      -0.466  79.962 115.075  0.00  0.00     0.381 N 
ATOM     19  H   LIG d   1      -0.180  79.145 114.573  0.00  0.00    -0.090 HD
ATOM     20  H   LIG d   1       0.275  80.224 115.700  0.00  0.00    -0.090 HD
ATOM     21  H   LIG d   1      -0.650  80.704 114.436  0.00  0.00    -0.090 HD
ENDBRANCH   5  18
BRANCH   3  22
ATOM     22  C   LIG d   1      -4.486  81.776 116.942  0.00  0.00     0.382 C 
ATOM     23  O   LIG d   1      -4.207  82.147 118.108  0.00  0.00    -0.241 OA
ATOM     24  O   LIG d   1      -5.376  82.372 116.306  0.00  0.00    -0.241 OA
ENDBRANCH   3  22
TORSDOF 7
ENDMDL
MODEL 7
REMARK VINA RESULT:      -4.5      2.672      5.777
REMARK  7 active torsions:
REMARK  status: ('A' for Active; 'I' for Inactive)
REMARK    1  A    between atoms: C_2  and  C_3 
REMARK    2  A    between atoms: C_3  and  O_6 
REMARK    3  A    between atoms: C_3  and  C_4 
REMARK    4  A    between atoms: C_7  and  O_6 
REMARK    5  A    between atoms: C_9  and  C_10 
REMARK    6  A    between atoms: N_15  and  C_14 
REMARK    7  A    between atoms: N_20  and  C_19 
REMARK       I    between atoms: C_22  and  N_20 
ROOT
ATOM      1  C   LIG d   1      -3.824  79.346 115.988  0.00  0.00     0.161 C 
ATOM      2  C   LIG d   1      -3.467  78.182 115.287  0.00  0.00     0.016 C 
ATOM      3  C   LIG d   1      -4.092  76.930 115.489  0.00  0.00     0.038 C 
ATOM      4  C   LIG d   1      -5.226  76.790 116.304  0.00  0.00     0.028 C 
ATOM      5  C   LIG d   1      -5.305  77.831 117.416  0.00  0.00    -0.047 C 
ATOM      6  C   LIG d   1      -5.132  79.238 116.800  0.00  0.00     0.091 C 
ENDROOT
BRANCH   1   7
ATOM      7  O   LIG d   1      -3.890  80.463 115.079  0.00  0.00    -0.368 OA
BRANCH   7   8
ATOM      8  C   LIG d   1      -2.730  81.331 115.051  0.00  0.00     0.119 C 
BRANCH   8   9
ATOM      9  C   LIG d   1      -3.096  82.618 115.814  0.00  0.00     0.028 C 
ATOM     10  C   LIG d   1      -2.383  82.717 117.173  0.00  0.00     0.006 C 
ENDBRANCH   8   9
BRANCH   8  11
ATOM     11  C   LIG d   1      -2.407  81.783 113.624  0.00  0.00     0.028 C 
ATOM     12  C   LIG d   1      -3.100  80.923 112.555  0.00  0.00     0.006 C 
ENDBRANCH   8  11
ENDBRANCH   7   8
ENDBRANCH   1   7
BRANCH   6  13
ATOM     13  N   LIG d   1      -5.113  80.309 117.829  0.00  0.00    -0.311 N 
ATOM     14  C   LIG d   1      -5.955  81.341 117.830  0.00  0.00     0.210 C 
ATOM     15  C   LIG d   1      -5.750  82.342 118.971  0.00  0.00     0.109 C 
ATOM     16  O   LIG d   1      -6.873  81.505 117.012  0.00  0.00    -0.276 OA
ATOM     17  H   LIG d   1      -4.420  80.238 118.548  0.00  0.00     0.149 HD
ENDBRANCH   6  13
BRANCH   5  18
ATOM     18  N   LIG d   1      -6.600  77.654 118.100  0.00  0.00     0.381 N 
ATOM     19  H   LIG d   1      -7.303  77.404 117.434  0.00  0.00    -0.090 HD
ATOM     20  H   LIG d   1      -6.864  78.525 118.525  0.00  0.00    -0.090 HD
ATOM     21  H   LIG d   1      -6.524  76.946 118.796  0.00  0.00    -0.090 HD
ENDBRANCH   5  18
BRANCH   3  22
ATOM     22  C   LIG d   1      -3.558  75.793 114.903  0.00  0.00     0.382 C 
ATOM     23  O   LIG d   1      -4.316  74.870 114.518  0.00  0.00    -0.241 OA
ATOM     24  O   LIG d   1      -2.324  75.658 114.795  0.00  0.00    -0.241 OA
ENDBRANCH   3  22
TORSDOF 7
ENDMDL
MODEL 8
REMARK VINA RESULT:      -4.3      3.130      6.998
REMARK  7 active torsions:
REMARK  status: ('A' for Active; 'I' for Inactive)
REMARK    1  A    between atoms: C_2  and  C_3 
REMARK    2  A    between atoms: C_3  and  O_6 
REMARK    3  A    between atoms: C_3  and  C_4 
REMARK    4  A    between atoms: C_7  and  O_6 
REMARK    5  A    between atoms: C_9  and  C_10 
REMARK    6  A    between atoms: N_15  and  C_14 
REMARK    7  A    between atoms: N_20  and  C_19 
REMARK       I    between atoms: C_22  and  N_20 
ROOT
ATOM      1  C   LIG d   1      -5.740  77.484 117.207  0.00  0.00     0.161 C 
ATOM      2  C   LIG d   1      -7.023  77.300 117.751  0.00  0.00     0.016 C 
ATOM      3  C   LIG d   1      -7.806  78.355 118.271  0.00  0.00     0.038 C 
ATOM      4  C   LIG d   1      -7.420  79.698 118.145  0.00  0.00     0.028 C 
ATOM      5  C   LIG d   1      -5.909  79.888 118.059  0.00  0.00    -0.047 C 
ATOM      6  C   LIG d   1      -5.348  78.956 116.960  0.00  0.00     0.091 C 
ENDROOT
BRANCH   1   7
ATOM      7  O   LIG d   1      -5.610  76.720 115.992  0.00  0.00    -0.368 OA
BRANCH   7   8
ATOM      8  C   LIG d   1      -5.467  75.287 116.152  0.00  0.00     0.119 C 
BRANCH   8   9
ATOM      9  C   LIG d   1      -4.068  75.025 116.743  0.00  0.00     0.028 C 
ATOM     10  C   LIG d   1      -2.942  75.569 115.848  0.00  0.00     0.006 C 
ENDBRANCH   8   9
BRANCH   8  11
ATOM     11  C   LIG d   1      -5.477  74.572 114.799  0.00  0.00     0.028 C 
ATOM     12  C   LIG d   1      -5.873  75.498 113.638  0.00  0.00     0.006 C 
ENDBRANCH   8  11
ENDBRANCH   7   8
ENDBRANCH   1   7
BRANCH   6  13
ATOM     13  N   LIG d   1      -3.866  79.017 116.868  0.00  0.00    -0.311 N 
ATOM     14  C   LIG d   1      -3.216  79.454 115.790  0.00  0.00     0.210 C 
ATOM     15  C   LIG d   1      -1.688  79.415 115.897  0.00  0.00     0.109 C 
ATOM     16  O   LIG d   1      -3.760  79.900 114.769  0.00  0.00    -0.276 OA
ATOM     17  H   LIG d   1      -3.346  78.703 117.664  0.00  0.00     0.149 HD
ENDBRANCH   6  13
BRANCH   5  18
ATOM     18  N   LIG d   1      -5.653  81.316 117.792  0.00  0.00     0.381 N 
ATOM     19  H   LIG d   1      -4.775  81.421 117.326  0.00  0.00    -0.090 HD
ATOM     20  H   LIG d   1      -5.606  81.807 118.668  0.00  0.00    -0.090 HD
ATOM     21  H   LIG d   1      -6.384  81.694 117.230  0.00  0.00    -0.090 HD
ENDBRANCH   5  18
BRANCH   3  22
ATOM     22  C   LIG d   1      -8.974  78.068 118.962  0.00  0.00     0.382 C 
ATOM     23  O   LIG d   1      -8.949  77.270 119.929  0.00  0.00    -0.241 OA
ATOM     24  O   LIG d   1     -10.059  78.564 118.603  0.00  0.00    -0.241 OA
ENDBRANCH   3  22
TORSDOF 7
ENDMDL
MODEL 9
REMARK VINA RESULT:      -4.2      3.047      5.956
REMARK  7 active torsions:
REMARK  status: ('A' for Active; 'I' for Inactive)
REMARK    1  A    between atoms: C_2  and  C_3 
REMARK    2  A    between atoms: C_3  and  O_6 
REMARK    3  A    between atoms: C_3  and  C_4 
REMARK    4  A    between atoms: C_7  and  O_6 
REMARK    5  A    between atoms: C_9  and  C_10 
REMARK    6  A    between atoms: N_15  and  C_14 
REMARK    7  A    between atoms: N_20  and  C_19 
REMARK       I    between atoms: C_22  and  N_20 
ROOT
ATOM      1  C   LIG d   1      -1.852  76.220 115.161  0.00  0.00     0.161 C 
ATOM      2  C   LIG d   1      -1.703  75.561 116.393  0.00  0.00     0.016 C 
ATOM      3  C   LIG d   1      -1.244  76.201 117.567  0.00  0.00     0.038 C 
ATOM      4  C   LIG d   1      -1.046  77.588 117.627  0.00  0.00     0.028 C 
ATOM      5  C   LIG d   1      -0.700  78.209 116.277  0.00  0.00    -0.047 C 
ATOM      6  C   LIG d   1      -1.747  77.758 115.234  0.00  0.00     0.091 C 
ENDROOT
BRANCH   1   7
ATOM      7  O   LIG d   1      -3.097  75.831 114.547  0.00  0.00    -0.368 OA
BRANCH   7   8
ATOM      8  C   LIG d   1      -4.181  75.508 115.452  0.00  0.00     0.119 C 
BRANCH   8   9
ATOM      9  C   LIG d   1      -5.201  74.659 114.669  0.00  0.00     0.028 C 
ATOM     10  C   LIG d   1      -5.966  75.483 113.619  0.00  0.00     0.006 C 
ENDBRANCH   8   9
BRANCH   8  11
ATOM     11  C   LIG d   1      -4.943  76.766 115.879  0.00  0.00     0.028 C 
ATOM     12  C   LIG d   1      -5.073  76.894 117.405  0.00  0.00     0.006 C 
ENDBRANCH   8  11
ENDBRANCH   7   8
ENDBRANCH   1   7
BRANCH   6  13
ATOM     13  N   LIG d   1      -1.435  78.252 113.867  0.00  0.00    -0.311 N 
ATOM     14  C   LIG d   1      -2.260  79.022 113.160  0.00  0.00     0.210 C 
ATOM     15  C   LIG d   1      -1.753  79.403 111.766  0.00  0.00     0.109 C 
ATOM     16  O   LIG d   1      -3.349  79.453 113.568  0.00  0.00    -0.276 OA
ATOM     17  H   LIG d   1      -0.558  77.976 113.472  0.00  0.00     0.149 HD
ENDBRANCH   6  13
BRANCH   5  18
ATOM     18  N   LIG d   1      -0.656  79.672 116.458  0.00  0.00     0.381 N 
ATOM     19  H   LIG d   1      -0.463  80.116 115.582  0.00  0.00    -0.090 HD
ATOM     20  H   LIG d   1       0.085  79.899 117.097  0.00  0.00    -0.090 HD
ATOM     21  H   LIG d   1      -1.526  79.997 116.818  0.00  0.00    -0.090 HD
ENDBRANCH   5  18
BRANCH   3  22
ATOM     22  C   LIG d   1      -0.941  75.444 118.689  0.00  0.00     0.382 C 
ATOM     23  O   LIG d   1      -1.221  75.877 119.832  0.00  0.00    -0.241 OA
ATOM     24  O   LIG d   1      -0.350  74.353 118.574  0.00  0.00    -0.241 OA
ENDBRANCH   3  22
TORSDOF 7
ENDMDL
