MODEL 1
REMARK VINA RESULT:      -5.5      0.000      0.000
REMARK  7 active torsions:
REMARK  status: ('A' for Active; 'I' for Inactive)
REMARK    1  A    between atoms: C_2  and  C_3 
REMARK    2  A    between atoms: C_3  and  O_6 
REMARK    3  A    between atoms: C_3  and  C_4 
REMARK    4  A    between atoms: C_7  and  O_6 
REMARK    5  A    between atoms: C_9  and  C_10 
REMARK    6  A    between atoms: N_15  and  C_14 
REMARK    7  A    between atoms: N_20  and  C_19 
REMARK       I    between atoms: C_22  and  N_20 
ROOT
ATOM      1  C   LIG d   1      -2.762  75.817 115.798  0.00  0.00     0.161 C 
ATOM      2  C   LIG d   1      -2.274  75.410 117.051  0.00  0.00     0.016 C 
ATOM      3  C   LIG d   1      -1.127  75.970 117.659  0.00  0.00     0.038 C 
ATOM      4  C   LIG d   1      -0.473  77.087 117.119  0.00  0.00     0.028 C 
ATOM      5  C   LIG d   1      -0.627  77.207 115.607  0.00  0.00    -0.047 C 
ATOM      6  C   LIG d   1      -2.127  77.110 115.245  0.00  0.00     0.091 C 
ENDROOT
BRANCH   1   7
ATOM      7  O   LIG d   1      -4.196  75.946 115.850  0.00  0.00    -0.368 OA
BRANCH   7   8
ATOM      8  C   LIG d   1      -4.942  74.715 116.014  0.00  0.00     0.119 C 
BRANCH   8   9
ATOM      9  C   LIG d   1      -5.806  74.525 114.752  0.00  0.00     0.028 C 
ATOM     10  C   LIG d   1      -5.720  75.727 113.796  0.00  0.00     0.006 C 
ENDBRANCH   8   9
BRANCH   8  11
ATOM     11  C   LIG d   1      -5.936  74.815 117.174  0.00  0.00     0.028 C 
ATOM     12  C   LIG d   1      -7.370  74.442 116.765  0.00  0.00     0.006 C 
ENDBRANCH   8  11
ENDBRANCH   7   8
ENDBRANCH   1   7
BRANCH   6  13
ATOM     13  N   LIG d   1      -2.359  77.134 113.778  0.00  0.00    -0.311 N 
ATOM     14  C   LIG d   1      -2.713  78.230 113.109  0.00  0.00     0.210 C 
ATOM     15  C   LIG d   1      -2.921  78.031 111.605  0.00  0.00     0.109 C 
ATOM     16  O   LIG d   1      -2.843  79.356 113.614  0.00  0.00    -0.276 OA
ATOM     17  H   LIG d   1      -2.245  76.271 113.284  0.00  0.00     0.149 HD
ENDBRANCH   6  13
BRANCH   5  18
ATOM     18  N   LIG d   1      -0.015  78.486 115.197  0.00  0.00     0.381 N 
ATOM     19  H   LIG d   1       0.319  78.975 116.003  0.00  0.00    -0.090 HD
ATOM     20  H   LIG d   1      -0.715  79.053 114.751  0.00  0.00    -0.090 HD
ATOM     21  H   LIG d   1       0.737  78.317 114.566  0.00  0.00    -0.090 HD
ENDBRANCH   5  18
BRANCH   3  22
ATOM     22  C   LIG d   1      -0.600  75.385 118.800  0.00  0.00     0.382 C 
ATOM     23  O   LIG d   1      -1.051  75.696 119.929  0.00  0.00    -0.241 OA
ATOM     24  O   LIG d   1       0.351  74.585 118.718  0.00  0.00    -0.241 OA
ENDBRANCH   3  22
TORSDOF 7
ENDMDL
MODEL 2
REMARK VINA RESULT:      -5.5      2.811      4.560
REMARK  7 active torsions:
REMARK  status: ('A' for Active; 'I' for Inactive)
REMARK    1  A    between atoms: C_2  and  C_3 
REMARK    2  A    between atoms: C_3  and  O_6 
REMARK    3  A    between atoms: C_3  and  C_4 
REMARK    4  A    between atoms: C_7  and  O_6 
REMARK    5  A    between atoms: C_9  and  C_10 
REMARK    6  A    between atoms: N_15  and  C_14 
REMARK    7  A    between atoms: N_20  and  C_19 
REMARK       I    between atoms: C_22  and  N_20 
ROOT
ATOM      1  C   LIG d   1      -4.679  76.159 117.640  0.00  0.00     0.161 C 
ATOM      2  C   LIG d   1      -5.649  77.145 117.884  0.00  0.00     0.016 C 
ATOM      3  C   LIG d   1      -5.531  78.480 117.436  0.00  0.00     0.038 C 
ATOM      4  C   LIG d   1      -4.498  78.886 116.577  0.00  0.00     0.028 C 
ATOM      5  C   LIG d   1      -3.230  78.051 116.719  0.00  0.00    -0.047 C 
ATOM      6  C   LIG d   1      -3.599  76.554 116.611  0.00  0.00     0.091 C 
ENDROOT
BRANCH   1   7
ATOM      7  O   LIG d   1      -5.320  74.929 117.246  0.00  0.00    -0.368 OA
BRANCH   7   8
ATOM      8  C   LIG d   1      -6.394  75.051 116.281  0.00  0.00     0.119 C 
BRANCH   8   9
ATOM      9  C   LIG d   1      -7.586  74.229 116.808  0.00  0.00     0.028 C 
ATOM     10  C   LIG d   1      -8.849  75.085 116.999  0.00  0.00     0.006 C 
ENDBRANCH   8   9
BRANCH   8  11
ATOM     11  C   LIG d   1      -6.017  74.406 114.944  0.00  0.00     0.028 C 
ATOM     12  C   LIG d   1      -5.600  75.437 113.882  0.00  0.00     0.006 C 
ENDBRANCH   8  11
ENDBRANCH   7   8
ENDBRANCH   1   7
BRANCH   6  13
ATOM     13  N   LIG d   1      -2.428  75.664 116.823  0.00  0.00    -0.311 N 
ATOM     14  C   LIG d   1      -1.697  75.165 115.827  0.00  0.00     0.210 C 
ATOM     15  C   LIG d   1      -0.546  74.254 116.265  0.00  0.00     0.109 C 
ATOM     16  O   LIG d   1      -1.874  75.415 114.626  0.00  0.00    -0.276 OA
ATOM     17  H   LIG d   1      -2.195  75.435 117.769  0.00  0.00     0.149 HD
ENDBRANCH   6  13
BRANCH   5  18
ATOM     18  N   LIG d   1      -2.288  78.492 115.673  0.00  0.00     0.381 N 
ATOM     19  H   LIG d   1      -2.657  78.271 114.770  0.00  0.00    -0.090 HD
ATOM     20  H   LIG d   1      -1.420  77.998 115.789  0.00  0.00    -0.090 HD
ATOM     21  H   LIG d   1      -2.132  79.473 115.745  0.00  0.00    -0.090 HD
ENDBRANCH   5  18
BRANCH   3  22
ATOM     22  C   LIG d   1      -6.432  79.436 117.880  0.00  0.00     0.382 C 
ATOM     23  O   LIG d   1      -6.572  80.509 117.244  0.00  0.00    -0.241 OA
ATOM     24  O   LIG d   1      -7.074  79.259 118.933  0.00  0.00    -0.241 OA
ENDBRANCH   3  22
TORSDOF 7
ENDMDL
MODEL 3
REMARK VINA RESULT:      -5.3      1.944      5.027
REMARK  7 active torsions:
REMARK  status: ('A' for Active; 'I' for Inactive)
REMARK    1  A    between atoms: C_2  and  C_3 
REMARK    2  A    between atoms: C_3  and  O_6 
REMARK    3  A    between atoms: C_3  and  C_4 
REMARK    4  A    between atoms: C_7  and  O_6 
REMARK    5  A    between atoms: C_9  and  C_10 
REMARK    6  A    between atoms: N_15  and  C_14 
REMARK    7  A    between atoms: N_20  and  C_19 
REMARK       I    between atoms: C_22  and  N_20 
ROOT
ATOM      1  C   LIG d   1      -2.461  77.822 115.887  0.00  0.00     0.161 C 
ATOM      2  C   LIG d   1      -2.818  78.661 114.819  0.00  0.00     0.016 C 
ATOM      3  C   LIG d   1      -2.244  78.568 113.530  0.00  0.00     0.038 C 
ATOM      4  C   LIG d   1      -1.376  77.522 113.179  0.00  0.00     0.028 C 
ATOM      5  C   LIG d   1      -0.602  76.954 114.364  0.00  0.00    -0.047 C 
ATOM      6  C   LIG d   1      -1.598  76.605 115.493  0.00  0.00     0.091 C 
ENDROOT
BRANCH   1   7
ATOM      7  O   LIG d   1      -3.645  77.391 116.587  0.00  0.00    -0.368 OA
BRANCH   7   8
ATOM      8  C   LIG d   1      -4.802  77.102 115.764  0.00  0.00     0.119 C 
BRANCH   8   9
ATOM      9  C   LIG d   1      -6.057  77.381 116.614  0.00  0.00     0.028 C 
ATOM     10  C   LIG d   1      -5.905  76.889 118.063  0.00  0.00     0.006 C 
ENDBRANCH   8   9
BRANCH   8  11
ATOM     11  C   LIG d   1      -4.875  75.613 115.409  0.00  0.00     0.028 C 
ATOM     12  C   LIG d   1      -5.514  75.359 114.035  0.00  0.00     0.006 C 
ENDBRANCH   8  11
ENDBRANCH   7   8
ENDBRANCH   1   7
BRANCH   6  13
ATOM     13  N   LIG d   1      -0.916  76.121 116.722  0.00  0.00    -0.311 N 
ATOM     14  C   LIG d   1      -1.234  74.984 117.337  0.00  0.00     0.210 C 
ATOM     15  C   LIG d   1      -0.419  74.682 118.599  0.00  0.00     0.109 C 
ATOM     16  O   LIG d   1      -2.091  74.180 116.941  0.00  0.00    -0.276 OA
ATOM     17  H   LIG d   1      -0.186  76.696 117.095  0.00  0.00     0.149 HD
ENDBRANCH   6  13
BRANCH   5  18
ATOM     18  N   LIG d   1       0.157  75.785 113.881  0.00  0.00     0.381 N 
ATOM     19  H   LIG d   1       0.650  75.363 114.642  0.00  0.00    -0.090 HD
ATOM     20  H   LIG d   1       0.830  76.093 113.202  0.00  0.00    -0.090 HD
ATOM     21  H   LIG d   1      -0.462  75.123 113.469  0.00  0.00    -0.090 HD
ENDBRANCH   5  18
BRANCH   3  22
ATOM     22  C   LIG d   1      -2.506  79.551 112.588  0.00  0.00     0.382 C 
ATOM     23  O   LIG d   1      -1.852  79.583 111.518  0.00  0.00    -0.241 OA
ATOM     24  O   LIG d   1      -3.357  80.432 112.814  0.00  0.00    -0.241 OA
ENDBRANCH   3  22
TORSDOF 7
ENDMDL
MODEL 4
REMARK VINA RESULT:      -5.3      1.690      4.809
REMARK  7 active torsions:
REMARK  status: ('A' for Active; 'I' for Inactive)
REMARK    1  A    between atoms: C_2  and  C_3 
REMARK    2  A    between atoms: C_3  and  O_6 
REMARK    3  A    between atoms: C_3  and  C_4 
REMARK    4  A    between atoms: C_7  and  O_6 
REMARK    5  A    between atoms: C_9  and  C_10 
REMARK    6  A    between atoms: N_15  and  C_14 
REMARK    7  A    between atoms: N_20  and  C_19 
REMARK       I    between atoms: C_22  and  N_20 
ROOT
ATOM      1  C   LIG d   1      -3.423  76.476 115.507  0.00  0.00     0.161 C 
ATOM      2  C   LIG d   1      -3.698  76.688 114.146  0.00  0.00     0.016 C 
ATOM      3  C   LIG d   1      -2.799  77.326 113.260  0.00  0.00     0.038 C 
ATOM      4  C   LIG d   1      -1.492  77.661 113.645  0.00  0.00     0.028 C 
ATOM      5  C   LIG d   1      -1.349  77.923 115.141  0.00  0.00    -0.047 C 
ATOM      6  C   LIG d   1      -1.959  76.734 115.919  0.00  0.00     0.091 C 
ENDROOT
BRANCH   1   7
ATOM      7  O   LIG d   1      -3.821  75.143 115.883  0.00  0.00    -0.368 OA
BRANCH   7   8
ATOM      8  C   LIG d   1      -4.967  75.045 116.765  0.00  0.00     0.119 C 
BRANCH   8   9
ATOM      9  C   LIG d   1      -6.106  74.375 115.972  0.00  0.00     0.028 C 
ATOM     10  C   LIG d   1      -7.375  74.180 116.818  0.00  0.00     0.006 C 
ENDBRANCH   8   9
BRANCH   8  11
ATOM     11  C   LIG d   1      -5.498  76.430 117.144  0.00  0.00     0.028 C 
ATOM     12  C   LIG d   1      -5.422  76.704 118.655  0.00  0.00     0.006 C 
ENDBRANCH   8  11
ENDBRANCH   7   8
ENDBRANCH   1   7
BRANCH   6  13
ATOM     13  N   LIG d   1      -1.936  76.948 117.389  0.00  0.00    -0.311 N 
ATOM     14  C   LIG d   1      -1.576  76.008 118.262  0.00  0.00     0.210 C 
ATOM     15  C   LIG d   1      -1.644  76.431 119.732  0.00  0.00     0.109 C 
ATOM     16  O   LIG d   1      -1.177  74.875 117.955  0.00  0.00    -0.276 OA
ATOM     17  H   LIG d   1      -2.216  77.850 117.723  0.00  0.00     0.149 HD
ENDBRANCH   6  13
BRANCH   5  18
ATOM     18  N   LIG d   1       0.085  78.124 115.423  0.00  0.00     0.381 N 
ATOM     19  H   LIG d   1       0.218  78.285 116.402  0.00  0.00    -0.090 HD
ATOM     20  H   LIG d   1       0.403  78.937 114.925  0.00  0.00    -0.090 HD
ATOM     21  H   LIG d   1       0.604  77.324 115.136  0.00  0.00    -0.090 HD
ENDBRANCH   5  18
BRANCH   3  22
ATOM     22  C   LIG d   1      -3.218  77.671 111.985  0.00  0.00     0.382 C 
ATOM     23  O   LIG d   1      -4.383  77.391 111.611  0.00  0.00    -0.241 OA
ATOM     24  O   LIG d   1      -2.433  78.218 111.188  0.00  0.00    -0.241 OA
ENDBRANCH   3  22
TORSDOF 7
ENDMDL
MODEL 5
REMARK VINA RESULT:      -5.0      2.730      3.630
REMARK  7 active torsions:
REMARK  status: ('A' for Active; 'I' for Inactive)
REMARK    1  A    between atoms: C_2  and  C_3 
REMARK    2  A    between atoms: C_3  and  O_6 
REMARK    3  A    between atoms: C_3  and  C_4 
REMARK    4  A    between atoms: C_7  and  O_6 
REMARK    5  A    between atoms: C_9  and  C_10 
REMARK    6  A    between atoms: N_15  and  C_14 
REMARK    7  A    between atoms: N_20  and  C_19 
REMARK       I    between atoms: C_22  and  N_20 
ROOT
ATOM      1  C   LIG d   1      -4.051  75.768 116.689  0.00  0.00     0.161 C 
ATOM      2  C   LIG d   1      -2.950  74.995 116.286  0.00  0.00     0.016 C 
ATOM      3  C   LIG d   1      -1.612  75.323 116.601  0.00  0.00     0.038 C 
ATOM      4  C   LIG d   1      -1.291  76.372 117.476  0.00  0.00     0.028 C 
ATOM      5  C   LIG d   1      -2.337  77.481 117.499  0.00  0.00    -0.047 C 
ATOM      6  C   LIG d   1      -3.729  76.854 117.738  0.00  0.00     0.091 C 
ENDROOT
BRANCH   1   7
ATOM      7  O   LIG d   1      -5.104  74.908 117.167  0.00  0.00    -0.368 OA
BRANCH   7   8
ATOM      8  C   LIG d   1      -6.145  74.584 116.212  0.00  0.00     0.119 C 
BRANCH   8   9
ATOM      9  C   LIG d   1      -6.323  75.806 115.290  0.00  0.00     0.028 C 
ATOM     10  C   LIG d   1      -5.860  75.526 113.850  0.00  0.00     0.006 C 
ENDBRANCH   8   9
BRANCH   8  11
ATOM     11  C   LIG d   1      -7.499  74.400 116.905  0.00  0.00     0.028 C 
ATOM     12  C   LIG d   1      -8.334  75.689 116.935  0.00  0.00     0.006 C 
ENDBRANCH   8  11
ENDBRANCH   7   8
ENDBRANCH   1   7
BRANCH   6  13
ATOM     13  N   LIG d   1      -4.821  77.862 117.691  0.00  0.00    -0.311 N 
ATOM     14  C   LIG d   1      -5.829  77.891 118.560  0.00  0.00     0.210 C 
ATOM     15  C   LIG d   1      -6.858  79.001 118.320  0.00  0.00     0.109 C 
ATOM     16  O   LIG d   1      -5.953  77.123 119.526  0.00  0.00    -0.276 OA
ATOM     17  H   LIG d   1      -4.782  78.542 116.957  0.00  0.00     0.149 HD
ENDBRANCH   6  13
BRANCH   5  18
ATOM     18  N   LIG d   1      -1.947  78.439 118.551  0.00  0.00     0.381 N 
ATOM     19  H   LIG d   1      -2.758  78.743 119.051  0.00  0.00    -0.090 HD
ATOM     20  H   LIG d   1      -1.524  79.242 118.119  0.00  0.00    -0.090 HD
ATOM     21  H   LIG d   1      -1.301  78.013 119.178  0.00  0.00    -0.090 HD
ENDBRANCH   5  18
BRANCH   3  22
ATOM     22  C   LIG d   1      -0.574  74.621 116.006  0.00  0.00     0.382 C 
ATOM     23  O   LIG d   1      -0.600  74.388 114.774  0.00  0.00    -0.241 OA
ATOM     24  O   LIG d   1       0.366  74.180 116.694  0.00  0.00    -0.241 OA
ENDBRANCH   3  22
TORSDOF 7
ENDMDL
MODEL 6
REMARK VINA RESULT:      -4.8      2.952      5.585
REMARK  7 active torsions:
REMARK  status: ('A' for Active; 'I' for Inactive)
REMARK    1  A    between atoms: C_2  and  C_3 
REMARK    2  A    between atoms: C_3  and  O_6 
REMARK    3  A    between atoms: C_3  and  C_4 
REMARK    4  A    between atoms: C_7  and  O_6 
REMARK    5  A    between atoms: C_9  and  C_10 
REMARK    6  A    between atoms: N_15  and  C_14 
REMARK    7  A    between atoms: N_20  and  C_19 
REMARK       I    between atoms: C_22  and  N_20 
ROOT
ATOM      1  C   LIG d   1      -5.078  77.807 116.564  0.00  0.00     0.161 C 
ATOM      2  C   LIG d   1      -6.306  77.532 117.189  0.00  0.00     0.016 C 
ATOM      3  C   LIG d   1      -7.134  76.443 116.832  0.00  0.00     0.038 C 
ATOM      4  C   LIG d   1      -6.716  75.460 115.922  0.00  0.00     0.028 C 
ATOM      5  C   LIG d   1      -5.706  75.972 114.900  0.00  0.00    -0.047 C 
ATOM      6  C   LIG d   1      -4.554  76.683 115.646  0.00  0.00     0.091 C 
ENDROOT
BRANCH   1   7
ATOM      7  O   LIG d   1      -4.090  78.145 117.557  0.00  0.00    -0.368 OA
BRANCH   7   8
ATOM      8  C   LIG d   1      -3.800  77.123 118.542  0.00  0.00     0.119 C 
BRANCH   8   9
ATOM      9  C   LIG d   1      -3.845  77.793 119.930  0.00  0.00     0.028 C 
ATOM     10  C   LIG d   1      -4.180  79.291 119.848  0.00  0.00     0.006 C 
ENDBRANCH   8   9
BRANCH   8  11
ATOM     11  C   LIG d   1      -2.371  76.594 118.393  0.00  0.00     0.028 C 
ATOM     12  C   LIG d   1      -1.405  77.640 117.815  0.00  0.00     0.006 C 
ENDBRANCH   8  11
ENDBRANCH   7   8
ENDBRANCH   1   7
BRANCH   6  13
ATOM     13  N   LIG d   1      -3.564  77.287 114.716  0.00  0.00    -0.311 N 
ATOM     14  C   LIG d   1      -2.427  76.688 114.366  0.00  0.00     0.210 C 
ATOM     15  C   LIG d   1      -1.540  77.494 113.411  0.00  0.00     0.109 C 
ATOM     16  O   LIG d   1      -2.084  75.553 114.729  0.00  0.00    -0.276 OA
ATOM     17  H   LIG d   1      -3.778  78.194 114.349  0.00  0.00     0.149 HD
ENDBRANCH   6  13
BRANCH   5  18
ATOM     18  N   LIG d   1      -5.253  74.816 114.104  0.00  0.00     0.381 N 
ATOM     19  H   LIG d   1      -5.217  75.064 113.136  0.00  0.00    -0.090 HD
ATOM     20  H   LIG d   1      -5.914  74.067 114.213  0.00  0.00    -0.090 HD
ATOM     21  H   LIG d   1      -4.353  74.521 114.413  0.00  0.00    -0.090 HD
ENDBRANCH   5  18
BRANCH   3  22
ATOM     22  C   LIG d   1      -8.413  76.351 117.360  0.00  0.00     0.382 C 
ATOM     23  O   LIG d   1      -9.121  75.344 117.115  0.00  0.00    -0.241 OA
ATOM     24  O   LIG d   1      -8.885  77.281 118.040  0.00  0.00    -0.241 OA
ENDBRANCH   3  22
TORSDOF 7
ENDMDL
MODEL 7
REMARK VINA RESULT:      -4.8      3.228      5.701
REMARK  7 active torsions:
REMARK  status: ('A' for Active; 'I' for Inactive)
REMARK    1  A    between atoms: C_2  and  C_3 
REMARK    2  A    between atoms: C_3  and  O_6 
REMARK    3  A    between atoms: C_3  and  C_4 
REMARK    4  A    between atoms: C_7  and  O_6 
REMARK    5  A    between atoms: C_9  and  C_10 
REMARK    6  A    between atoms: N_15  and  C_14 
REMARK    7  A    between atoms: N_20  and  C_19 
REMARK       I    between atoms: C_22  and  N_20 
ROOT
ATOM      1  C   LIG d   1      -5.386  75.633 117.751  0.00  0.00     0.161 C 
ATOM      2  C   LIG d   1      -6.773  75.634 117.528  0.00  0.00     0.016 C 
ATOM      3  C   LIG d   1      -7.593  76.767 117.734  0.00  0.00     0.038 C 
ATOM      4  C   LIG d   1      -7.055  78.027 118.035  0.00  0.00     0.028 C 
ATOM      5  C   LIG d   1      -5.717  77.957 118.762  0.00  0.00    -0.047 C 
ATOM      6  C   LIG d   1      -4.765  77.028 117.973  0.00  0.00     0.091 C 
ENDROOT
BRANCH   1   7
ATOM      7  O   LIG d   1      -4.717  74.953 116.671  0.00  0.00    -0.368 OA
BRANCH   7   8
ATOM      8  C   LIG d   1      -4.466  75.740 115.481  0.00  0.00     0.119 C 
BRANCH   8   9
ATOM      9  C   LIG d   1      -5.163  75.034 114.302  0.00  0.00     0.028 C 
ATOM     10  C   LIG d   1      -5.965  76.010 113.424  0.00  0.00     0.006 C 
ENDBRANCH   8   9
BRANCH   8  11
ATOM     11  C   LIG d   1      -2.977  75.751 115.124  0.00  0.00     0.028 C 
ATOM     12  C   LIG d   1      -2.184  74.649 115.844  0.00  0.00     0.006 C 
ENDBRANCH   8  11
ENDBRANCH   7   8
ENDBRANCH   1   7
BRANCH   6  13
ATOM     13  N   LIG d   1      -3.461  76.837 118.659  0.00  0.00    -0.311 N 
ATOM     14  C   LIG d   1      -2.363  77.524 118.351  0.00  0.00     0.210 C 
ATOM     15  C   LIG d   1      -1.120  77.157 119.168  0.00  0.00     0.109 C 
ATOM     16  O   LIG d   1      -2.307  78.424 117.500  0.00  0.00    -0.276 OA
ATOM     17  H   LIG d   1      -3.424  76.148 119.384  0.00  0.00     0.149 HD
ENDBRANCH   6  13
BRANCH   5  18
ATOM     18  N   LIG d   1      -5.206  79.334 118.889  0.00  0.00     0.381 N 
ATOM     19  H   LIG d   1      -5.971  79.972 118.985  0.00  0.00    -0.090 HD
ATOM     20  H   LIG d   1      -4.700  79.572 118.055  0.00  0.00    -0.090 HD
ATOM     21  H   LIG d   1      -4.605  79.403 119.681  0.00  0.00    -0.090 HD
ENDBRANCH   5  18
BRANCH   3  22
ATOM     22  C   LIG d   1      -8.972  76.636 117.678  0.00  0.00     0.382 C 
ATOM     23  O   LIG d   1      -9.485  75.619 117.152  0.00  0.00    -0.241 OA
ATOM     24  O   LIG d   1      -9.711  77.542 118.108  0.00  0.00    -0.241 OA
ENDBRANCH   3  22
TORSDOF 7
ENDMDL
MODEL 8
REMARK VINA RESULT:      -4.6      2.406      5.359
REMARK  7 active torsions:
REMARK  status: ('A' for Active; 'I' for Inactive)
REMARK    1  A    between atoms: C_2  and  C_3 
REMARK    2  A    between atoms: C_3  and  O_6 
REMARK    3  A    between atoms: C_3  and  C_4 
REMARK    4  A    between atoms: C_7  and  O_6 
REMARK    5  A    between atoms: C_9  and  C_10 
REMARK    6  A    between atoms: N_15  and  C_14 
REMARK    7  A    between atoms: N_20  and  C_19 
REMARK       I    between atoms: C_22  and  N_20 
ROOT
ATOM      1  C   LIG d   1      -1.898  77.421 114.507  0.00  0.00     0.161 C 
ATOM      2  C   LIG d   1      -1.044  78.349 113.888  0.00  0.00     0.016 C 
ATOM      3  C   LIG d   1      -1.322  78.949 112.638  0.00  0.00     0.038 C 
ATOM      4  C   LIG d   1      -2.554  78.776 111.990  0.00  0.00     0.028 C 
ATOM      5  C   LIG d   1      -3.236  77.455 112.330  0.00  0.00    -0.047 C 
ATOM      6  C   LIG d   1      -3.297  77.303 113.868  0.00  0.00     0.091 C 
ENDROOT
BRANCH   1   7
ATOM      7  O   LIG d   1      -2.012  77.723 115.911  0.00  0.00    -0.368 OA
BRANCH   7   8
ATOM      8  C   LIG d   1      -1.351  76.806 116.817  0.00  0.00     0.119 C 
BRANCH   8   9
ATOM      9  C   LIG d   1      -0.690  75.707 115.962  0.00  0.00     0.028 C 
ATOM     10  C   LIG d   1      -0.512  74.389 116.735  0.00  0.00     0.006 C 
ENDBRANCH   8   9
BRANCH   8  11
ATOM     11  C   LIG d   1      -2.362  76.075 117.705  0.00  0.00     0.028 C 
ATOM     12  C   LIG d   1      -3.692  76.833 117.843  0.00  0.00     0.006 C 
ENDBRANCH   8  11
ENDBRANCH   7   8
ENDBRANCH   1   7
BRANCH   6  13
ATOM     13  N   LIG d   1      -3.875  76.000 114.286  0.00  0.00    -0.311 N 
ATOM     14  C   LIG d   1      -5.164  75.827 114.574  0.00  0.00     0.210 C 
ATOM     15  C   LIG d   1      -5.546  74.408 115.003  0.00  0.00     0.109 C 
ATOM     16  O   LIG d   1      -6.033  76.708 114.483  0.00  0.00    -0.276 OA
ATOM     17  H   LIG d   1      -3.246  75.224 114.356  0.00  0.00     0.149 HD
ENDBRANCH   6  13
BRANCH   5  18
ATOM     18  N   LIG d   1      -4.569  77.466 111.697  0.00  0.00     0.381 N 
ATOM     19  H   LIG d   1      -5.158  76.787 112.137  0.00  0.00    -0.090 HD
ATOM     20  H   LIG d   1      -4.470  77.218 110.729  0.00  0.00    -0.090 HD
ATOM     21  H   LIG d   1      -4.976  78.372 111.776  0.00  0.00    -0.090 HD
ENDBRANCH   5  18
BRANCH   3  22
ATOM     22  C   LIG d   1      -0.345  79.703 112.005  0.00  0.00     0.382 C 
ATOM     23  O   LIG d   1       0.440  80.409 112.684  0.00  0.00    -0.241 OA
ATOM     24  O   LIG d   1      -0.267  79.721 110.762  0.00  0.00    -0.241 OA
ENDBRANCH   3  22
TORSDOF 7
ENDMDL
MODEL 9
REMARK VINA RESULT:      -4.6      3.475      4.179
REMARK  7 active torsions:
REMARK  status: ('A' for Active; 'I' for Inactive)
REMARK    1  A    between atoms: C_2  and  C_3 
REMARK    2  A    between atoms: C_3  and  O_6 
REMARK    3  A    between atoms: C_3  and  C_4 
REMARK    4  A    between atoms: C_7  and  O_6 
REMARK    5  A    between atoms: C_9  and  C_10 
REMARK    6  A    between atoms: N_15  and  C_14 
REMARK    7  A    between atoms: N_20  and  C_19 
REMARK       I    between atoms: C_22  and  N_20 
ROOT
ATOM      1  C   LIG d   1      -4.802  76.989 117.383  0.00  0.00     0.161 C 
ATOM      2  C   LIG d   1      -3.707  76.112 117.440  0.00  0.00     0.016 C 
ATOM      3  C   LIG d   1      -2.482  76.437 118.067  0.00  0.00     0.038 C 
ATOM      4  C   LIG d   1      -2.321  77.613 118.816  0.00  0.00     0.028 C 
ATOM      5  C   LIG d   1      -3.230  78.750 118.360  0.00  0.00    -0.047 C 
ATOM      6  C   LIG d   1      -4.684  78.232 118.289  0.00  0.00     0.091 C 
ENDROOT
BRANCH   1   7
ATOM      7  O   LIG d   1      -6.018  76.272 117.672  0.00  0.00    -0.368 OA
BRANCH   7   8
ATOM      8  C   LIG d   1      -6.868  75.972 116.537  0.00  0.00     0.119 C 
BRANCH   8   9
ATOM      9  C   LIG d   1      -8.321  75.919 117.047  0.00  0.00     0.028 C 
ATOM     10  C   LIG d   1      -8.681  77.133 117.921  0.00  0.00     0.006 C 
ENDBRANCH   8   9
BRANCH   8  11
ATOM     11  C   LIG d   1      -6.582  74.574 115.981  0.00  0.00     0.028 C 
ATOM     12  C   LIG d   1      -5.796  74.608 114.660  0.00  0.00     0.006 C 
ENDBRANCH   8  11
ENDBRANCH   7   8
ENDBRANCH   1   7
BRANCH   6  13
ATOM     13  N   LIG d   1      -5.627  79.258 117.771  0.00  0.00    -0.311 N 
ATOM     14  C   LIG d   1      -6.335  80.067 118.558  0.00  0.00     0.210 C 
ATOM     15  C   LIG d   1      -7.262  81.038 117.819  0.00  0.00     0.109 C 
ATOM     16  O   LIG d   1      -6.260  80.094 119.795  0.00  0.00    -0.276 OA
ATOM     17  H   LIG d   1      -5.726  79.326 116.777  0.00  0.00     0.149 HD
ENDBRANCH   6  13
BRANCH   5  18
ATOM     18  N   LIG d   1      -3.058  79.865 119.310  0.00  0.00     0.381 N 
ATOM     19  H   LIG d   1      -2.108  80.178 119.298  0.00  0.00    -0.090 HD
ATOM     20  H   LIG d   1      -3.271  79.539 120.236  0.00  0.00    -0.090 HD
ATOM     21  H   LIG d   1      -3.666  80.616 119.067  0.00  0.00    -0.090 HD
ENDBRANCH   5  18
BRANCH   3  22
ATOM     22  C   LIG d   1      -1.388  75.599 117.915  0.00  0.00     0.382 C 
ATOM     23  O   LIG d   1      -1.559  74.363 117.783  0.00  0.00    -0.241 OA
ATOM     24  O   LIG d   1      -0.230  76.058 117.951  0.00  0.00    -0.241 OA
ENDBRANCH   3  22
TORSDOF 7
ENDMDL
