MODEL 1
REMARK VINA RESULT:      -5.7      0.000      0.000
REMARK  7 active torsions:
REMARK  status: ('A' for Active; 'I' for Inactive)
REMARK    1  A    between atoms: C_2  and  C_3 
REMARK    2  A    between atoms: C_3  and  O_6 
REMARK    3  A    between atoms: C_3  and  C_4 
REMARK    4  A    between atoms: C_7  and  O_6 
REMARK    5  A    between atoms: C_9  and  C_10 
REMARK    6  A    between atoms: N_15  and  C_14 
REMARK    7  A    between atoms: N_20  and  C_19 
REMARK       I    between atoms: C_22  and  N_20 
ROOT
ATOM      1  C   LIG d   1      -2.390  79.740 115.406  0.00  0.00     0.161 C 
ATOM      2  C   LIG d   1      -2.330  80.880 114.588  0.00  0.00     0.016 C 
ATOM      3  C   LIG d   1      -1.955  80.841 113.225  0.00  0.00     0.038 C 
ATOM      4  C   LIG d   1      -1.760  79.630 112.544  0.00  0.00     0.028 C 
ATOM      5  C   LIG d   1      -1.318  78.489 113.453  0.00  0.00    -0.047 C 
ATOM      6  C   LIG d   1      -2.289  78.397 114.652  0.00  0.00     0.091 C 
ENDROOT
BRANCH   1   7
ATOM      7  O   LIG d   1      -3.588  79.776 116.206  0.00  0.00    -0.368 OA
BRANCH   7   8
ATOM      8  C   LIG d   1      -3.501  80.512 117.451  0.00  0.00     0.119 C 
BRANCH   8   9
ATOM      9  C   LIG d   1      -2.116  80.225 118.063  0.00  0.00     0.028 C 
ATOM     10  C   LIG d   1      -2.048  80.582 119.557  0.00  0.00     0.006 C 
ENDBRANCH   8   9
BRANCH   8  11
ATOM     11  C   LIG d   1      -4.512  79.993 118.477  0.00  0.00     0.028 C 
ATOM     12  C   LIG d   1      -5.967  80.125 117.999  0.00  0.00     0.006 C 
ENDBRANCH   8  11
ENDBRANCH   7   8
ENDBRANCH   1   7
BRANCH   6  13
ATOM     13  N   LIG d   1      -1.879  77.360 115.635  0.00  0.00    -0.311 N 
ATOM     14  C   LIG d   1      -2.361  76.118 115.633  0.00  0.00     0.210 C 
ATOM     15  C   LIG d   1      -1.821  75.213 116.745  0.00  0.00     0.109 C 
ATOM     16  O   LIG d   1      -3.159  75.670 114.796  0.00  0.00    -0.276 OA
ATOM     17  H   LIG d   1      -1.211  77.629 116.330  0.00  0.00     0.149 HD
ENDBRANCH   6  13
BRANCH   5  18
ATOM     18  N   LIG d   1      -1.286  77.258 112.640  0.00  0.00     0.381 N 
ATOM     19  H   LIG d   1      -1.218  76.459 113.237  0.00  0.00    -0.090 HD
ATOM     20  H   LIG d   1      -0.474  77.280 112.049  0.00  0.00    -0.090 HD
ATOM     21  H   LIG d   1      -2.109  77.196 112.082  0.00  0.00    -0.090 HD
ENDBRANCH   5  18
BRANCH   3  22
ATOM     22  C   LIG d   1      -1.733  82.026 112.539  0.00  0.00     0.382 C 
ATOM     23  O   LIG d   1      -1.373  81.996 111.337  0.00  0.00    -0.241 OA
ATOM     24  O   LIG d   1      -1.846  83.122 113.119  0.00  0.00    -0.241 OA
ENDBRANCH   3  22
TORSDOF 7
ENDMDL
MODEL 2
REMARK VINA RESULT:      -5.6      4.420      7.130
REMARK  7 active torsions:
REMARK  status: ('A' for Active; 'I' for Inactive)
REMARK    1  A    between atoms: C_2  and  C_3 
REMARK    2  A    between atoms: C_3  and  O_6 
REMARK    3  A    between atoms: C_3  and  C_4 
REMARK    4  A    between atoms: C_7  and  O_6 
REMARK    5  A    between atoms: C_9  and  C_10 
REMARK    6  A    between atoms: N_15  and  C_14 
REMARK    7  A    between atoms: N_20  and  C_19 
REMARK       I    between atoms: C_22  and  N_20 
ROOT
ATOM      1  C   LIG d   1      -7.291  77.222 117.779  0.00  0.00     0.161 C 
ATOM      2  C   LIG d   1      -8.432  78.012 117.997  0.00  0.00     0.016 C 
ATOM      3  C   LIG d   1      -8.381  79.406 118.228  0.00  0.00     0.038 C 
ATOM      4  C   LIG d   1      -7.189  80.135 118.107  0.00  0.00     0.028 C 
ATOM      5  C   LIG d   1      -5.941  79.305 118.388  0.00  0.00    -0.047 C 
ATOM      6  C   LIG d   1      -5.992  78.018 117.533  0.00  0.00     0.091 C 
ENDROOT
BRANCH   1   7
ATOM      7  O   LIG d   1      -7.531  76.306 116.693  0.00  0.00    -0.368 OA
BRANCH   7   8
ATOM      8  C   LIG d   1      -7.313  74.903 116.983  0.00  0.00     0.119 C 
BRANCH   8   9
ATOM      9  C   LIG d   1      -6.785  74.241 115.695  0.00  0.00     0.028 C 
ATOM     10  C   LIG d   1      -6.281  75.271 114.670  0.00  0.00     0.006 C 
ENDBRANCH   8   9
BRANCH   8  11
ATOM     11  C   LIG d   1      -8.631  74.188 117.295  0.00  0.00     0.028 C 
ATOM     12  C   LIG d   1      -9.836  74.822 116.582  0.00  0.00     0.006 C 
ENDBRANCH   8  11
ENDBRANCH   7   8
ENDBRANCH   1   7
BRANCH   6  13
ATOM     13  N   LIG d   1      -4.849  77.108 117.809  0.00  0.00    -0.311 N 
ATOM     14  C   LIG d   1      -3.897  76.835 116.918  0.00  0.00     0.210 C 
ATOM     15  C   LIG d   1      -2.821  75.857 117.400  0.00  0.00     0.109 C 
ATOM     16  O   LIG d   1      -3.825  77.335 115.785  0.00  0.00    -0.276 OA
ATOM     17  H   LIG d   1      -4.812  76.684 118.715  0.00  0.00     0.149 HD
ENDBRANCH   6  13
BRANCH   5  18
ATOM     18  N   LIG d   1      -4.768  80.149 118.092  0.00  0.00     0.381 N 
ATOM     19  H   LIG d   1      -3.949  79.579 118.023  0.00  0.00    -0.090 HD
ATOM     20  H   LIG d   1      -4.637  80.800 118.846  0.00  0.00    -0.090 HD
ATOM     21  H   LIG d   1      -4.911  80.644 117.238  0.00  0.00    -0.090 HD
ENDBRANCH   5  18
BRANCH   3  22
ATOM     22  C   LIG d   1      -9.527  80.079 118.625  0.00  0.00     0.382 C 
ATOM     23  O   LIG d   1     -10.060  79.813 119.729  0.00  0.00    -0.241 OA
ATOM     24  O   LIG d   1     -10.060  80.916 117.873  0.00  0.00    -0.241 OA
ENDBRANCH   3  22
TORSDOF 7
ENDMDL
MODEL 3
REMARK VINA RESULT:      -5.5      1.431      1.962
REMARK  7 active torsions:
REMARK  status: ('A' for Active; 'I' for Inactive)
REMARK    1  A    between atoms: C_2  and  C_3 
REMARK    2  A    between atoms: C_3  and  O_6 
REMARK    3  A    between atoms: C_3  and  C_4 
REMARK    4  A    between atoms: C_7  and  O_6 
REMARK    5  A    between atoms: C_9  and  C_10 
REMARK    6  A    between atoms: N_15  and  C_14 
REMARK    7  A    between atoms: N_20  and  C_19 
REMARK       I    between atoms: C_22  and  N_20 
ROOT
ATOM      1  C   LIG d   1      -1.634  79.234 115.995  0.00  0.00     0.161 C 
ATOM      2  C   LIG d   1      -2.047  80.495 115.533  0.00  0.00     0.016 C 
ATOM      3  C   LIG d   1      -2.290  80.783 114.170  0.00  0.00     0.038 C 
ATOM      4  C   LIG d   1      -2.282  79.782 113.188  0.00  0.00     0.028 C 
ATOM      5  C   LIG d   1      -1.379  78.602 113.532  0.00  0.00    -0.047 C 
ATOM      6  C   LIG d   1      -1.729  78.101 114.952  0.00  0.00     0.091 C 
ENDROOT
BRANCH   1   7
ATOM      7  O   LIG d   1      -2.371  78.884 117.183  0.00  0.00    -0.368 OA
BRANCH   7   8
ATOM      8  C   LIG d   1      -3.758  78.515 116.987  0.00  0.00     0.119 C 
BRANCH   8   9
ATOM      9  C   LIG d   1      -4.622  79.548 117.737  0.00  0.00     0.028 C 
ATOM     10  C   LIG d   1      -3.865  80.216 118.897  0.00  0.00     0.006 C 
ENDBRANCH   8   9
BRANCH   8  11
ATOM     11  C   LIG d   1      -4.075  77.169 117.645  0.00  0.00     0.028 C 
ATOM     12  C   LIG d   1      -2.949  76.677 118.568  0.00  0.00     0.006 C 
ENDBRANCH   8  11
ENDBRANCH   7   8
ENDBRANCH   1   7
BRANCH   6  13
ATOM     13  N   LIG d   1      -0.835  77.001 115.401  0.00  0.00    -0.311 N 
ATOM     14  C   LIG d   1      -1.223  75.730 115.488  0.00  0.00     0.210 C 
ATOM     15  C   LIG d   1      -0.150  74.760 115.992  0.00  0.00     0.109 C 
ATOM     16  O   LIG d   1      -2.344  75.309 115.165  0.00  0.00    -0.276 OA
ATOM     17  H   LIG d   1       0.102  77.249 115.652  0.00  0.00     0.149 HD
ENDBRANCH   6  13
BRANCH   5  18
ATOM     18  N   LIG d   1      -1.573  77.574 112.492  0.00  0.00     0.381 N 
ATOM     19  H   LIG d   1      -0.859  77.657 111.797  0.00  0.00    -0.090 HD
ATOM     20  H   LIG d   1      -2.463  77.723 112.049  0.00  0.00    -0.090 HD
ATOM     21  H   LIG d   1      -1.545  76.666 112.901  0.00  0.00    -0.090 HD
ENDBRANCH   5  18
BRANCH   3  22
ATOM     22  C   LIG d   1      -2.505  82.094 113.772  0.00  0.00     0.382 C 
ATOM     23  O   LIG d   1      -3.245  82.843 114.455  0.00  0.00    -0.241 OA
ATOM     24  O   LIG d   1      -2.003  82.524 112.716  0.00  0.00    -0.241 OA
ENDBRANCH   3  22
TORSDOF 7
ENDMDL
MODEL 4
REMARK VINA RESULT:      -5.1      3.774      5.922
REMARK  7 active torsions:
REMARK  status: ('A' for Active; 'I' for Inactive)
REMARK    1  A    between atoms: C_2  and  C_3 
REMARK    2  A    between atoms: C_3  and  O_6 
REMARK    3  A    between atoms: C_3  and  C_4 
REMARK    4  A    between atoms: C_7  and  O_6 
REMARK    5  A    between atoms: C_9  and  C_10 
REMARK    6  A    between atoms: N_15  and  C_14 
REMARK    7  A    between atoms: N_20  and  C_19 
REMARK       I    between atoms: C_22  and  N_20 
ROOT
ATOM      1  C   LIG d   1      -5.147  77.489 118.433  0.00  0.00     0.161 C 
ATOM      2  C   LIG d   1      -3.906  76.906 118.123  0.00  0.00     0.016 C 
ATOM      3  C   LIG d   1      -3.713  76.017 117.041  0.00  0.00     0.038 C 
ATOM      4  C   LIG d   1      -4.722  75.766 116.098  0.00  0.00     0.028 C 
ATOM      5  C   LIG d   1      -6.130  75.936 116.658  0.00  0.00    -0.047 C 
ATOM      6  C   LIG d   1      -6.232  77.314 117.350  0.00  0.00     0.091 C 
ENDROOT
BRANCH   1   7
ATOM      7  O   LIG d   1      -4.967  78.885 118.742  0.00  0.00    -0.368 OA
BRANCH   7   8
ATOM      8  C   LIG d   1      -3.637  79.419 118.531  0.00  0.00     0.119 C 
BRANCH   8   9
ATOM      9  C   LIG d   1      -3.269  80.250 119.775  0.00  0.00     0.028 C 
ATOM     10  C   LIG d   1      -1.795  80.690 119.772  0.00  0.00     0.006 C 
ENDBRANCH   8   9
BRANCH   8  11
ATOM     11  C   LIG d   1      -3.611  80.407 117.361  0.00  0.00     0.028 C 
ATOM     12  C   LIG d   1      -2.845  79.868 116.142  0.00  0.00     0.006 C 
ENDBRANCH   8  11
ENDBRANCH   7   8
ENDBRANCH   1   7
BRANCH   6  13
ATOM     13  N   LIG d   1      -7.552  77.526 117.999  0.00  0.00    -0.311 N 
ATOM     14  C   LIG d   1      -8.187  78.697 118.004  0.00  0.00     0.210 C 
ATOM     15  C   LIG d   1      -9.527  78.703 118.746  0.00  0.00     0.109 C 
ATOM     16  O   LIG d   1      -7.783  79.723 117.436  0.00  0.00    -0.276 OA
ATOM     17  H   LIG d   1      -7.968  76.738 118.457  0.00  0.00     0.149 HD
ENDBRANCH   6  13
BRANCH   5  18
ATOM     18  N   LIG d   1      -7.077  75.779 115.538  0.00  0.00     0.381 N 
ATOM     19  H   LIG d   1      -8.011  75.936 115.860  0.00  0.00    -0.090 HD
ATOM     20  H   LIG d   1      -7.016  74.839 115.190  0.00  0.00    -0.090 HD
ATOM     21  H   LIG d   1      -6.856  76.425 114.812  0.00  0.00    -0.090 HD
ENDBRANCH   5  18
BRANCH   3  22
ATOM     22  C   LIG d   1      -2.511  75.337 116.916  0.00  0.00     0.382 C 
ATOM     23  O   LIG d   1      -2.196  74.462 117.759  0.00  0.00    -0.241 OA
ATOM     24  O   LIG d   1      -1.719  75.618 115.997  0.00  0.00    -0.241 OA
ENDBRANCH   3  22
TORSDOF 7
ENDMDL
MODEL 5
REMARK VINA RESULT:      -4.9      3.456      5.796
REMARK  7 active torsions:
REMARK  status: ('A' for Active; 'I' for Inactive)
REMARK    1  A    between atoms: C_2  and  C_3 
REMARK    2  A    between atoms: C_3  and  O_6 
REMARK    3  A    between atoms: C_3  and  C_4 
REMARK    4  A    between atoms: C_7  and  O_6 
REMARK    5  A    between atoms: C_9  and  C_10 
REMARK    6  A    between atoms: N_15  and  C_14 
REMARK    7  A    between atoms: N_20  and  C_19 
REMARK       I    between atoms: C_22  and  N_20 
ROOT
ATOM      1  C   LIG d   1      -5.125  77.256 117.216  0.00  0.00     0.161 C 
ATOM      2  C   LIG d   1      -6.442  76.893 117.544  0.00  0.00     0.016 C 
ATOM      3  C   LIG d   1      -7.171  75.900 116.850  0.00  0.00     0.038 C 
ATOM      4  C   LIG d   1      -6.575  75.090 115.872  0.00  0.00     0.028 C 
ATOM      5  C   LIG d   1      -5.402  75.760 115.163  0.00  0.00    -0.047 C 
ATOM      6  C   LIG d   1      -4.420  76.307 116.224  0.00  0.00     0.091 C 
ENDROOT
BRANCH   1   7
ATOM      7  O   LIG d   1      -4.342  77.394 118.419  0.00  0.00    -0.368 OA
BRANCH   7   8
ATOM      8  C   LIG d   1      -3.944  78.742 118.769  0.00  0.00     0.119 C 
BRANCH   8   9
ATOM      9  C   LIG d   1      -4.846  79.205 119.930  0.00  0.00     0.028 C 
ATOM     10  C   LIG d   1      -5.931  80.193 119.471  0.00  0.00     0.006 C 
ENDBRANCH   8   9
BRANCH   8  11
ATOM     11  C   LIG d   1      -4.222  79.720 117.624  0.00  0.00     0.028 C 
ATOM     12  C   LIG d   1      -2.956  80.441 117.134  0.00  0.00     0.006 C 
ENDBRANCH   8  11
ENDBRANCH   7   8
ENDBRANCH   1   7
BRANCH   6  13
ATOM     13  N   LIG d   1      -3.286  77.051 115.617  0.00  0.00    -0.311 N 
ATOM     14  C   LIG d   1      -2.120  76.487 115.308  0.00  0.00     0.210 C 
ATOM     15  C   LIG d   1      -1.080  77.439 114.709  0.00  0.00     0.109 C 
ATOM     16  O   LIG d   1      -1.860  75.282 115.442  0.00  0.00    -0.276 OA
ATOM     17  H   LIG d   1      -3.422  78.028 115.445  0.00  0.00     0.149 HD
ENDBRANCH   6  13
BRANCH   5  18
ATOM     18  N   LIG d   1      -4.790  74.758 114.270  0.00  0.00     0.381 N 
ATOM     19  H   LIG d   1      -5.039  74.954 113.321  0.00  0.00    -0.090 HD
ATOM     20  H   LIG d   1      -5.146  73.849 114.509  0.00  0.00    -0.090 HD
ATOM     21  H   LIG d   1      -3.799  74.772 114.371  0.00  0.00    -0.090 HD
ENDBRANCH   5  18
BRANCH   3  22
ATOM     22  C   LIG d   1      -8.523  75.735 117.107  0.00  0.00     0.382 C 
ATOM     23  O   LIG d   1      -9.085  74.647 116.835  0.00  0.00    -0.241 OA
ATOM     24  O   LIG d   1      -9.199  76.677 117.564  0.00  0.00    -0.241 OA
ENDBRANCH   3  22
TORSDOF 7
ENDMDL
MODEL 6
REMARK VINA RESULT:      -4.8      3.488      5.930
REMARK  7 active torsions:
REMARK  status: ('A' for Active; 'I' for Inactive)
REMARK    1  A    between atoms: C_2  and  C_3 
REMARK    2  A    between atoms: C_3  and  O_6 
REMARK    3  A    between atoms: C_3  and  C_4 
REMARK    4  A    between atoms: C_7  and  O_6 
REMARK    5  A    between atoms: C_9  and  C_10 
REMARK    6  A    between atoms: N_15  and  C_14 
REMARK    7  A    between atoms: N_20  and  C_19 
REMARK       I    between atoms: C_22  and  N_20 
ROOT
ATOM      1  C   LIG d   1      -5.341  78.040 117.662  0.00  0.00     0.161 C 
ATOM      2  C   LIG d   1      -6.574  78.450 118.195  0.00  0.00     0.016 C 
ATOM      3  C   LIG d   1      -7.765  77.697 118.069  0.00  0.00     0.038 C 
ATOM      4  C   LIG d   1      -7.769  76.402 117.529  0.00  0.00     0.028 C 
ATOM      5  C   LIG d   1      -6.646  76.159 116.527  0.00  0.00    -0.047 C 
ATOM      6  C   LIG d   1      -5.303  76.579 117.167  0.00  0.00     0.091 C 
ENDROOT
BRANCH   1   7
ATOM      7  O   LIG d   1      -4.293  78.270 118.625  0.00  0.00    -0.368 OA
BRANCH   7   8
ATOM      8  C   LIG d   1      -3.291  79.249 118.254  0.00  0.00     0.119 C 
BRANCH   8   9
ATOM      9  C   LIG d   1      -3.308  80.357 119.325  0.00  0.00     0.028 C 
ATOM     10  C   LIG d   1      -1.916  80.610 119.930  0.00  0.00     0.006 C 
ENDBRANCH   8   9
BRANCH   8  11
ATOM     11  C   LIG d   1      -3.654  79.949 116.941  0.00  0.00     0.028 C 
ATOM     12  C   LIG d   1      -2.579  79.775 115.857  0.00  0.00     0.006 C 
ENDBRANCH   8  11
ENDBRANCH   7   8
ENDBRANCH   1   7
BRANCH   6  13
ATOM     13  N   LIG d   1      -4.161  76.453 116.224  0.00  0.00    -0.311 N 
ATOM     14  C   LIG d   1      -3.028  75.821 116.525  0.00  0.00     0.210 C 
ATOM     15  C   LIG d   1      -1.972  75.825 115.416  0.00  0.00     0.109 C 
ATOM     16  O   LIG d   1      -2.810  75.230 117.593  0.00  0.00    -0.276 OA
ATOM     17  H   LIG d   1      -4.265  76.877 115.323  0.00  0.00     0.149 HD
ENDBRANCH   6  13
BRANCH   5  18
ATOM     18  N   LIG d   1      -6.686  74.734 116.149  0.00  0.00     0.381 N 
ATOM     19  H   LIG d   1      -7.622  74.473 115.911  0.00  0.00    -0.090 HD
ATOM     20  H   LIG d   1      -6.395  74.181 116.936  0.00  0.00    -0.090 HD
ATOM     21  H   LIG d   1      -6.080  74.569 115.376  0.00  0.00    -0.090 HD
ENDBRANCH   5  18
BRANCH   3  22
ATOM     22  C   LIG d   1      -8.975  78.256 118.450  0.00  0.00     0.382 C 
ATOM     23  O   LIG d   1      -8.993  79.254 119.210  0.00  0.00    -0.241 OA
ATOM     24  O   LIG d   1     -10.050  77.748 118.080  0.00  0.00    -0.241 OA
ENDBRANCH   3  22
TORSDOF 7
ENDMDL
MODEL 7
REMARK VINA RESULT:      -4.7      3.690      6.672
REMARK  7 active torsions:
REMARK  status: ('A' for Active; 'I' for Inactive)
REMARK    1  A    between atoms: C_2  and  C_3 
REMARK    2  A    between atoms: C_3  and  O_6 
REMARK    3  A    between atoms: C_3  and  C_4 
REMARK    4  A    between atoms: C_7  and  O_6 
REMARK    5  A    between atoms: C_9  and  C_10 
REMARK    6  A    between atoms: N_15  and  C_14 
REMARK    7  A    between atoms: N_20  and  C_19 
REMARK       I    between atoms: C_22  and  N_20 
ROOT
ATOM      1  C   LIG d   1      -5.169  78.679 117.644  0.00  0.00     0.161 C 
ATOM      2  C   LIG d   1      -4.854  77.443 117.057  0.00  0.00     0.016 C 
ATOM      3  C   LIG d   1      -5.809  76.427 116.821  0.00  0.00     0.038 C 
ATOM      4  C   LIG d   1      -7.181  76.639 117.021  0.00  0.00     0.028 C 
ATOM      5  C   LIG d   1      -7.483  77.689 118.085  0.00  0.00    -0.047 C 
ATOM      6  C   LIG d   1      -6.679  78.970 117.767  0.00  0.00     0.091 C 
ENDROOT
BRANCH   1   7
ATOM      7  O   LIG d   1      -4.510  79.743 116.929  0.00  0.00    -0.368 OA
BRANCH   7   8
ATOM      8  C   LIG d   1      -3.575  80.542 117.694  0.00  0.00     0.119 C 
BRANCH   8   9
ATOM      9  C   LIG d   1      -2.244  80.567 116.918  0.00  0.00     0.028 C 
ATOM     10  C   LIG d   1      -2.383  79.999 115.496  0.00  0.00     0.006 C 
ENDBRANCH   8   9
BRANCH   8  11
ATOM     11  C   LIG d   1      -3.249  79.884 119.038  0.00  0.00     0.028 C 
ATOM     12  C   LIG d   1      -2.137  80.616 119.806  0.00  0.00     0.006 C 
ENDBRANCH   8  11
ENDBRANCH   7   8
ENDBRANCH   1   7
BRANCH   6  13
ATOM     13  N   LIG d   1      -6.852  80.020 118.805  0.00  0.00    -0.311 N 
ATOM     14  C   LIG d   1      -7.747  81.002 118.712  0.00  0.00     0.210 C 
ATOM     15  C   LIG d   1      -7.746  81.990 119.883  0.00  0.00     0.109 C 
ATOM     16  O   LIG d   1      -8.563  81.131 117.787  0.00  0.00    -0.276 OA
ATOM     17  H   LIG d   1      -6.252  79.973 119.605  0.00  0.00     0.149 HD
ENDBRANCH   6  13
BRANCH   5  18
ATOM     18  N   LIG d   1      -8.942  77.908 118.092  0.00  0.00     0.381 N 
ATOM     19  H   LIG d   1      -9.146  78.816 118.459  0.00  0.00    -0.090 HD
ATOM     20  H   LIG d   1      -9.370  77.223 118.690  0.00  0.00    -0.090 HD
ATOM     21  H   LIG d   1      -9.304  77.826 117.168  0.00  0.00    -0.090 HD
ENDBRANCH   5  18
BRANCH   3  22
ATOM     22  C   LIG d   1      -5.388  75.169 116.418  0.00  0.00     0.382 C 
ATOM     23  O   LIG d   1      -6.233  74.271 116.183  0.00  0.00    -0.241 OA
ATOM     24  O   LIG d   1      -4.174  74.907 116.329  0.00  0.00    -0.241 OA
ENDBRANCH   3  22
TORSDOF 7
ENDMDL
MODEL 8
REMARK VINA RESULT:      -4.6      3.113      5.801
REMARK  7 active torsions:
REMARK  status: ('A' for Active; 'I' for Inactive)
REMARK    1  A    between atoms: C_2  and  C_3 
REMARK    2  A    between atoms: C_3  and  O_6 
REMARK    3  A    between atoms: C_3  and  C_4 
REMARK    4  A    between atoms: C_7  and  O_6 
REMARK    5  A    between atoms: C_9  and  C_10 
REMARK    6  A    between atoms: N_15  and  C_14 
REMARK    7  A    between atoms: N_20  and  C_19 
REMARK       I    between atoms: C_22  and  N_20 
ROOT
ATOM      1  C   LIG d   1      -3.743  78.993 117.162  0.00  0.00     0.161 C 
ATOM      2  C   LIG d   1      -2.990  77.913 116.673  0.00  0.00     0.016 C 
ATOM      3  C   LIG d   1      -3.454  76.577 116.674  0.00  0.00     0.038 C 
ATOM      4  C   LIG d   1      -4.772  76.251 117.026  0.00  0.00     0.028 C 
ATOM      5  C   LIG d   1      -5.401  77.240 118.001  0.00  0.00    -0.047 C 
ATOM      6  C   LIG d   1      -5.225  78.672 117.447  0.00  0.00     0.091 C 
ENDROOT
BRANCH   1   7
ATOM      7  O   LIG d   1      -3.638  80.111 116.258  0.00  0.00    -0.368 OA
BRANCH   7   8
ATOM      8  C   LIG d   1      -2.297  80.471 115.843  0.00  0.00     0.119 C 
BRANCH   8   9
ATOM      9  C   LIG d   1      -1.644  81.241 117.007  0.00  0.00     0.028 C 
ATOM     10  C   LIG d   1      -0.283  80.649 117.412  0.00  0.00     0.006 C 
ENDBRANCH   8   9
BRANCH   8  11
ATOM     11  C   LIG d   1      -2.322  81.455 114.670  0.00  0.00     0.028 C 
ATOM     12  C   LIG d   1      -2.756  82.869 115.087  0.00  0.00     0.006 C 
ENDBRANCH   8  11
ENDBRANCH   7   8
ENDBRANCH   1   7
BRANCH   6  13
ATOM     13  N   LIG d   1      -5.738  79.708 118.381  0.00  0.00    -0.311 N 
ATOM     14  C   LIG d   1      -6.963  80.225 118.302  0.00  0.00     0.210 C 
ATOM     15  C   LIG d   1      -7.283  81.295 119.350  0.00  0.00     0.109 C 
ATOM     16  O   LIG d   1      -7.826  79.875 117.483  0.00  0.00    -0.276 OA
ATOM     17  H   LIG d   1      -5.114  80.027 119.096  0.00  0.00     0.149 HD
ENDBRANCH   6  13
BRANCH   5  18
ATOM     18  N   LIG d   1      -6.815  76.857 118.174  0.00  0.00     0.381 N 
ATOM     19  H   LIG d   1      -7.329  77.623 118.563  0.00  0.00    -0.090 HD
ATOM     20  H   LIG d   1      -6.867  76.085 118.816  0.00  0.00    -0.090 HD
ATOM     21  H   LIG d   1      -7.208  76.596 117.297  0.00  0.00    -0.090 HD
ENDBRANCH   5  18
BRANCH   3  22
ATOM     22  C   LIG d   1      -2.583  75.547 116.356  0.00  0.00     0.382 C 
ATOM     23  O   LIG d   1      -2.272  74.698 117.226  0.00  0.00    -0.241 OA
ATOM     24  O   LIG d   1      -2.069  75.480 115.223  0.00  0.00    -0.241 OA
ENDBRANCH   3  22
TORSDOF 7
ENDMDL
MODEL 9
REMARK VINA RESULT:      -4.6      3.552      4.576
REMARK  7 active torsions:
REMARK  status: ('A' for Active; 'I' for Inactive)
REMARK    1  A    between atoms: C_2  and  C_3 
REMARK    2  A    between atoms: C_3  and  O_6 
REMARK    3  A    between atoms: C_3  and  C_4 
REMARK    4  A    between atoms: C_7  and  O_6 
REMARK    5  A    between atoms: C_9  and  C_10 
REMARK    6  A    between atoms: N_15  and  C_14 
REMARK    7  A    between atoms: N_20  and  C_19 
REMARK       I    between atoms: C_22  and  N_20 
ROOT
ATOM      1  C   LIG d   1      -4.307  76.894 117.968  0.00  0.00     0.161 C 
ATOM      2  C   LIG d   1      -3.046  77.510 118.036  0.00  0.00     0.016 C 
ATOM      3  C   LIG d   1      -2.126  77.521 116.963  0.00  0.00     0.038 C 
ATOM      4  C   LIG d   1      -2.467  77.044 115.689  0.00  0.00     0.028 C 
ATOM      5  C   LIG d   1      -3.542  75.962 115.715  0.00  0.00    -0.047 C 
ATOM      6  C   LIG d   1      -4.741  76.466 116.551  0.00  0.00     0.091 C 
ENDROOT
BRANCH   1   7
ATOM      7  O   LIG d   1      -5.302  77.753 118.559  0.00  0.00    -0.368 OA
BRANCH   7   8
ATOM      8  C   LIG d   1      -5.893  78.743 117.681  0.00  0.00     0.119 C 
BRANCH   8   9
ATOM      9  C   LIG d   1      -5.460  80.131 118.191  0.00  0.00     0.028 C 
ATOM     10  C   LIG d   1      -5.396  80.198 119.726  0.00  0.00     0.006 C 
ENDBRANCH   8   9
BRANCH   8  11
ATOM     11  C   LIG d   1      -7.421  78.733 117.779  0.00  0.00     0.028 C 
ATOM     12  C   LIG d   1      -7.956  77.573 118.633  0.00  0.00     0.006 C 
ENDBRANCH   8  11
ENDBRANCH   7   8
ENDBRANCH   1   7
BRANCH   6  13
ATOM     13  N   LIG d   1      -5.802  75.435 116.698  0.00  0.00    -0.311 N 
ATOM     14  C   LIG d   1      -6.807  75.291 115.837  0.00  0.00     0.210 C 
ATOM     15  C   LIG d   1      -7.803  74.180 116.186  0.00  0.00     0.109 C 
ATOM     16  O   LIG d   1      -6.952  75.955 114.799  0.00  0.00    -0.276 OA
ATOM     17  H   LIG d   1      -5.745  74.833 117.495  0.00  0.00     0.149 HD
ENDBRANCH   6  13
BRANCH   5  18
ATOM     18  N   LIG d   1      -3.899  75.655 114.317  0.00  0.00     0.381 N 
ATOM     19  H   LIG d   1      -3.879  74.665 114.172  0.00  0.00    -0.090 HD
ATOM     20  H   LIG d   1      -3.221  76.077 113.708  0.00  0.00    -0.090 HD
ATOM     21  H   LIG d   1      -4.807  76.010 114.112  0.00  0.00    -0.090 HD
ENDBRANCH   5  18
BRANCH   3  22
ATOM     22  C   LIG d   1      -0.833  77.978 117.170  0.00  0.00     0.382 C 
ATOM     23  O   LIG d   1      -0.374  78.904 116.459  0.00  0.00    -0.241 OA
ATOM     24  O   LIG d   1      -0.106  77.447 118.030  0.00  0.00    -0.241 OA
ENDBRANCH   3  22
TORSDOF 7
ENDMDL
