MODEL 1
REMARK VINA RESULT:      -5.1      0.000      0.000
REMARK  7 active torsions:
REMARK  status: ('A' for Active; 'I' for Inactive)
REMARK    1  A    between atoms: C_2  and  C_3 
REMARK    2  A    between atoms: C_3  and  O_6 
REMARK    3  A    between atoms: C_3  and  C_4 
REMARK    4  A    between atoms: C_7  and  O_6 
REMARK    5  A    between atoms: C_9  and  C_10 
REMARK    6  A    between atoms: N_15  and  C_14 
REMARK    7  A    between atoms: N_20  and  C_19 
REMARK       I    between atoms: C_22  and  N_20 
ROOT
ATOM      1  C   LIG d   1      -3.266  76.496 115.127  0.00  0.00     0.161 C 
ATOM      2  C   LIG d   1      -3.341  76.157 116.488  0.00  0.00     0.016 C 
ATOM      3  C   LIG d   1      -2.401  76.589 117.451  0.00  0.00     0.038 C 
ATOM      4  C   LIG d   1      -1.398  77.520 117.143  0.00  0.00     0.028 C 
ATOM      5  C   LIG d   1      -0.980  77.496 115.677  0.00  0.00    -0.047 C 
ATOM      6  C   LIG d   1      -2.243  77.602 114.792  0.00  0.00     0.091 C 
ENDROOT
BRANCH   1   7
ATOM      7  O   LIG d   1      -4.573  76.860 114.641  0.00  0.00    -0.368 OA
BRANCH   7   8
ATOM      8  C   LIG d   1      -5.281  75.840 113.894  0.00  0.00     0.119 C 
BRANCH   8   9
ATOM      9  C   LIG d   1      -6.716  76.351 113.659  0.00  0.00     0.028 C 
ATOM     10  C   LIG d   1      -6.967  76.746 112.194  0.00  0.00     0.006 C 
ENDBRANCH   8   9
BRANCH   8  11
ATOM     11  C   LIG d   1      -5.437  74.556 114.713  0.00  0.00     0.028 C 
ATOM     12  C   LIG d   1      -6.725  74.536 115.551  0.00  0.00     0.006 C 
ENDBRANCH   8  11
ENDBRANCH   7   8
ENDBRANCH   1   7
BRANCH   6  13
ATOM     13  N   LIG d   1      -1.930  77.501 113.343  0.00  0.00    -0.311 N 
ATOM     14  C   LIG d   1      -2.449  78.313 112.423  0.00  0.00     0.210 C 
ATOM     15  C   LIG d   1      -2.010  78.024 110.984  0.00  0.00     0.109 C 
ATOM     16  O   LIG d   1      -3.205  79.266 112.666  0.00  0.00    -0.276 OA
ATOM     17  H   LIG d   1      -1.301  76.775 113.061  0.00  0.00     0.149 HD
ENDBRANCH   6  13
BRANCH   5  18
ATOM     18  N   LIG d   1      -0.031  78.606 115.466  0.00  0.00     0.381 N 
ATOM     19  H   LIG d   1       0.242  78.640 114.504  0.00  0.00    -0.090 HD
ATOM     20  H   LIG d   1       0.790  78.443 116.021  0.00  0.00    -0.090 HD
ATOM     21  H   LIG d   1      -0.453  79.470 115.729  0.00  0.00    -0.090 HD
ENDBRANCH   5  18
BRANCH   3  22
ATOM     22  C   LIG d   1      -2.434  76.056 118.731  0.00  0.00     0.382 C 
ATOM     23  O   LIG d   1      -3.020  76.674 119.652  0.00  0.00    -0.241 OA
ATOM     24  O   LIG d   1      -1.846  74.988 118.986  0.00  0.00    -0.241 OA
ENDBRANCH   3  22
TORSDOF 7
ENDMDL
MODEL 2
REMARK VINA RESULT:      -5.1      4.046      5.654
REMARK  7 active torsions:
REMARK  status: ('A' for Active; 'I' for Inactive)
REMARK    1  A    between atoms: C_2  and  C_3 
REMARK    2  A    between atoms: C_3  and  O_6 
REMARK    3  A    between atoms: C_3  and  C_4 
REMARK    4  A    between atoms: C_7  and  O_6 
REMARK    5  A    between atoms: C_9  and  C_10 
REMARK    6  A    between atoms: N_15  and  C_14 
REMARK    7  A    between atoms: N_20  and  C_19 
REMARK       I    between atoms: C_22  and  N_20 
ROOT
ATOM      1  C   LIG d   1      -6.653  76.960 117.443  0.00  0.00     0.161 C 
ATOM      2  C   LIG d   1      -6.366  76.258 116.260  0.00  0.00     0.016 C 
ATOM      3  C   LIG d   1      -5.052  76.043 115.782  0.00  0.00     0.038 C 
ATOM      4  C   LIG d   1      -3.922  76.388 116.538  0.00  0.00     0.028 C 
ATOM      5  C   LIG d   1      -4.167  77.548 117.498  0.00  0.00    -0.047 C 
ATOM      6  C   LIG d   1      -5.429  77.247 118.338  0.00  0.00     0.091 C 
ENDROOT
BRANCH   1   7
ATOM      7  O   LIG d   1      -7.668  76.262 118.191  0.00  0.00    -0.368 OA
BRANCH   7   8
ATOM      8  C   LIG d   1      -9.008  76.808 118.109  0.00  0.00     0.119 C 
BRANCH   8   9
ATOM      9  C   LIG d   1      -9.281  77.564 119.423  0.00  0.00     0.028 C 
ATOM     10  C   LIG d   1      -9.632  79.043 119.188  0.00  0.00     0.006 C 
ENDBRANCH   8   9
BRANCH   8  11
ATOM     11  C   LIG d   1     -10.060  75.696 118.055  0.00  0.00     0.028 C 
ATOM     12  C   LIG d   1      -9.581  74.460 117.277  0.00  0.00     0.006 C 
ENDBRANCH   8  11
ENDBRANCH   7   8
ENDBRANCH   1   7
BRANCH   6  13
ATOM     13  N   LIG d   1      -5.788  78.369 119.243  0.00  0.00    -0.311 N 
ATOM     14  C   LIG d   1      -5.978  79.619 118.823  0.00  0.00     0.210 C 
ATOM     15  C   LIG d   1      -6.321  80.627 119.925  0.00  0.00     0.109 C 
ATOM     16  O   LIG d   1      -5.926  79.982 117.638  0.00  0.00    -0.276 OA
ATOM     17  H   LIG d   1      -5.881  78.157 120.218  0.00  0.00     0.149 HD
ENDBRANCH   6  13
BRANCH   5  18
ATOM     18  N   LIG d   1      -2.952  77.711 118.318  0.00  0.00     0.381 N 
ATOM     19  H   LIG d   1      -2.572  78.627 118.183  0.00  0.00    -0.090 HD
ATOM     20  H   LIG d   1      -2.266  77.039 118.021  0.00  0.00    -0.090 HD
ATOM     21  H   LIG d   1      -3.169  77.572 119.281  0.00  0.00    -0.090 HD
ENDBRANCH   5  18
BRANCH   3  22
ATOM     22  C   LIG d   1      -4.860  75.512 114.516  0.00  0.00     0.382 C 
ATOM     23  O   LIG d   1      -5.092  76.212 113.501  0.00  0.00    -0.241 OA
ATOM     24  O   LIG d   1      -4.501  74.328 114.375  0.00  0.00    -0.241 OA
ENDBRANCH   3  22
TORSDOF 7
ENDMDL
MODEL 3
REMARK VINA RESULT:      -4.8      3.104      4.291
REMARK  7 active torsions:
REMARK  status: ('A' for Active; 'I' for Inactive)
REMARK    1  A    between atoms: C_2  and  C_3 
REMARK    2  A    between atoms: C_3  and  O_6 
REMARK    3  A    between atoms: C_3  and  C_4 
REMARK    4  A    between atoms: C_7  and  O_6 
REMARK    5  A    between atoms: C_9  and  C_10 
REMARK    6  A    between atoms: N_15  and  C_14 
REMARK    7  A    between atoms: N_20  and  C_19 
REMARK       I    between atoms: C_22  and  N_20 
ROOT
ATOM      1  C   LIG d   1      -3.245  78.086 117.103  0.00  0.00     0.161 C 
ATOM      2  C   LIG d   1      -2.389  79.085 117.597  0.00  0.00     0.016 C 
ATOM      3  C   LIG d   1      -1.101  79.336 117.071  0.00  0.00     0.038 C 
ATOM      4  C   LIG d   1      -0.638  78.701 115.909  0.00  0.00     0.028 C 
ATOM      5  C   LIG d   1      -1.264  77.330 115.677  0.00  0.00    -0.047 C 
ATOM      6  C   LIG d   1      -2.802  77.458 115.765  0.00  0.00     0.091 C 
ENDROOT
BRANCH   1   7
ATOM      7  O   LIG d   1      -4.586  78.602 116.994  0.00  0.00    -0.368 OA
BRANCH   7   8
ATOM      8  C   LIG d   1      -5.495  78.246 118.065  0.00  0.00     0.119 C 
BRANCH   8   9
ATOM      9  C   LIG d   1      -6.440  77.155 117.526  0.00  0.00     0.028 C 
ATOM     10  C   LIG d   1      -7.707  77.000 118.385  0.00  0.00     0.006 C 
ENDBRANCH   8   9
BRANCH   8  11
ATOM     11  C   LIG d   1      -6.403  79.421 118.439  0.00  0.00     0.028 C 
ATOM     12  C   LIG d   1      -5.708  80.784 118.288  0.00  0.00     0.006 C 
ENDBRANCH   8  11
ENDBRANCH   7   8
ENDBRANCH   1   7
BRANCH   6  13
ATOM     13  N   LIG d   1      -3.489  76.147 115.634  0.00  0.00    -0.311 N 
ATOM     14  C   LIG d   1      -4.343  75.862 114.653  0.00  0.00     0.210 C 
ATOM     15  C   LIG d   1      -4.955  74.459 114.716  0.00  0.00     0.109 C 
ATOM     16  O   LIG d   1      -4.627  76.626 113.718  0.00  0.00    -0.276 OA
ATOM     17  H   LIG d   1      -3.292  75.457 116.332  0.00  0.00     0.149 HD
ENDBRANCH   6  13
BRANCH   5  18
ATOM     18  N   LIG d   1      -0.798  76.842 114.365  0.00  0.00     0.381 N 
ATOM     19  H   LIG d   1      -0.894  75.848 114.320  0.00  0.00    -0.090 HD
ATOM     20  H   LIG d   1       0.175  77.071 114.261  0.00  0.00    -0.090 HD
ATOM     21  H   LIG d   1      -1.327  77.268 113.636  0.00  0.00    -0.090 HD
ENDBRANCH   5  18
BRANCH   3  22
ATOM     22  C   LIG d   1      -0.245  80.203 117.733  0.00  0.00     0.382 C 
ATOM     23  O   LIG d   1       0.427  81.039 117.082  0.00  0.00    -0.241 OA
ATOM     24  O   LIG d   1      -0.104  80.130 118.968  0.00  0.00    -0.241 OA
ENDBRANCH   3  22
TORSDOF 7
ENDMDL
MODEL 4
REMARK VINA RESULT:      -4.8      1.707      2.116
REMARK  7 active torsions:
REMARK  status: ('A' for Active; 'I' for Inactive)
REMARK    1  A    between atoms: C_2  and  C_3 
REMARK    2  A    between atoms: C_3  and  O_6 
REMARK    3  A    between atoms: C_3  and  C_4 
REMARK    4  A    between atoms: C_7  and  O_6 
REMARK    5  A    between atoms: C_9  and  C_10 
REMARK    6  A    between atoms: N_15  and  C_14 
REMARK    7  A    between atoms: N_20  and  C_19 
REMARK       I    between atoms: C_22  and  N_20 
ROOT
ATOM      1  C   LIG d   1      -1.400  75.864 115.061  0.00  0.00     0.161 C 
ATOM      2  C   LIG d   1      -1.173  75.407 116.370  0.00  0.00     0.016 C 
ATOM      3  C   LIG d   1      -0.714  76.240 117.417  0.00  0.00     0.038 C 
ATOM      4  C   LIG d   1      -0.594  77.629 117.260  0.00  0.00     0.028 C 
ATOM      5  C   LIG d   1      -0.327  78.055 115.821  0.00  0.00    -0.047 C 
ATOM      6  C   LIG d   1      -1.380  77.399 114.900  0.00  0.00     0.091 C 
ENDROOT
BRANCH   1   7
ATOM      7  O   LIG d   1      -2.639  75.323 114.563  0.00  0.00    -0.368 OA
BRANCH   7   8
ATOM      8  C   LIG d   1      -3.696  75.149 115.538  0.00  0.00     0.119 C 
BRANCH   8   9
ATOM      9  C   LIG d   1      -4.731  74.181 114.931  0.00  0.00     0.028 C 
ATOM     10  C   LIG d   1      -6.174  74.684 115.099  0.00  0.00     0.006 C 
ENDBRANCH   8   9
BRANCH   8  11
ATOM     11  C   LIG d   1      -4.456  76.457 115.776  0.00  0.00     0.028 C 
ATOM     12  C   LIG d   1      -4.384  76.930 117.237  0.00  0.00     0.006 C 
ENDBRANCH   8  11
ENDBRANCH   7   8
ENDBRANCH   1   7
BRANCH   6  13
ATOM     13  N   LIG d   1      -1.141  77.696 113.463  0.00  0.00    -0.311 N 
ATOM     14  C   LIG d   1      -2.098  78.102 112.630  0.00  0.00     0.210 C 
ATOM     15  C   LIG d   1      -1.642  78.334 111.186  0.00  0.00     0.109 C 
ATOM     16  O   LIG d   1      -3.274  78.322 112.956  0.00  0.00    -0.276 OA
ATOM     17  H   LIG d   1      -0.208  77.574 113.121  0.00  0.00     0.149 HD
ENDBRANCH   6  13
BRANCH   5  18
ATOM     18  N   LIG d   1      -0.362  79.530 115.779  0.00  0.00     0.381 N 
ATOM     19  H   LIG d   1       0.296  79.865 115.104  0.00  0.00    -0.090 HD
ATOM     20  H   LIG d   1      -0.097  79.886 116.681  0.00  0.00    -0.090 HD
ATOM     21  H   LIG d   1      -1.278  79.843 115.546  0.00  0.00    -0.090 HD
ENDBRANCH   5  18
BRANCH   3  22
ATOM     22  C   LIG d   1      -0.332  75.677 118.625  0.00  0.00     0.382 C 
ATOM     23  O   LIG d   1       0.070  76.412 119.559  0.00  0.00    -0.241 OA
ATOM     24  O   LIG d   1      -0.341  74.441 118.777  0.00  0.00    -0.241 OA
ENDBRANCH   3  22
TORSDOF 7
ENDMDL
MODEL 5
REMARK VINA RESULT:      -4.8      3.887      5.144
REMARK  7 active torsions:
REMARK  status: ('A' for Active; 'I' for Inactive)
REMARK    1  A    between atoms: C_2  and  C_3 
REMARK    2  A    between atoms: C_3  and  O_6 
REMARK    3  A    between atoms: C_3  and  C_4 
REMARK    4  A    between atoms: C_7  and  O_6 
REMARK    5  A    between atoms: C_9  and  C_10 
REMARK    6  A    between atoms: N_15  and  C_14 
REMARK    7  A    between atoms: N_20  and  C_19 
REMARK       I    between atoms: C_22  and  N_20 
ROOT
ATOM      1  C   LIG d   1      -5.497  77.298 117.445  0.00  0.00     0.161 C 
ATOM      2  C   LIG d   1      -6.837  76.983 117.722  0.00  0.00     0.016 C 
ATOM      3  C   LIG d   1      -7.704  77.838 118.442  0.00  0.00     0.038 C 
ATOM      4  C   LIG d   1      -7.328  79.139 118.805  0.00  0.00     0.028 C 
ATOM      5  C   LIG d   1      -5.824  79.307 118.989  0.00  0.00    -0.047 C 
ATOM      6  C   LIG d   1      -5.102  78.760 117.736  0.00  0.00     0.091 C 
ENDROOT
BRANCH   1   7
ATOM      7  O   LIG d   1      -5.188  76.958 116.078  0.00  0.00    -0.368 OA
BRANCH   7   8
ATOM      8  C   LIG d   1      -4.650  75.631 115.857  0.00  0.00     0.119 C 
BRANCH   8   9
ATOM      9  C   LIG d   1      -3.158  75.789 115.508  0.00  0.00     0.028 C 
ATOM     10  C   LIG d   1      -2.237  75.399 116.676  0.00  0.00     0.006 C 
ENDBRANCH   8   9
BRANCH   8  11
ATOM     11  C   LIG d   1      -5.286  74.969 114.631  0.00  0.00     0.028 C 
ATOM     12  C   LIG d   1      -6.049  75.966 113.744  0.00  0.00     0.006 C 
ENDBRANCH   8  11
ENDBRANCH   7   8
ENDBRANCH   1   7
BRANCH   6  13
ATOM     13  N   LIG d   1      -3.622  78.809 117.868  0.00  0.00    -0.311 N 
ATOM     14  C   LIG d   1      -2.812  79.222 116.895  0.00  0.00     0.210 C 
ATOM     15  C   LIG d   1      -1.319  79.173 117.232  0.00  0.00     0.109 C 
ATOM     16  O   LIG d   1      -3.190  79.653 115.796  0.00  0.00    -0.276 OA
ATOM     17  H   LIG d   1      -3.232  78.506 118.739  0.00  0.00     0.149 HD
ENDBRANCH   6  13
BRANCH   5  18
ATOM     18  N   LIG d   1      -5.561  80.738 119.229  0.00  0.00     0.381 N 
ATOM     19  H   LIG d   1      -4.574  80.903 119.249  0.00  0.00    -0.090 HD
ATOM     20  H   LIG d   1      -5.940  80.993 120.124  0.00  0.00    -0.090 HD
ATOM     21  H   LIG d   1      -5.982  81.288 118.513  0.00  0.00    -0.090 HD
ENDBRANCH   5  18
BRANCH   3  22
ATOM     22  C   LIG d   1      -8.949  77.376 118.841  0.00  0.00     0.382 C 
ATOM     23  O   LIG d   1      -9.382  76.283 118.403  0.00  0.00    -0.241 OA
ATOM     24  O   LIG d   1      -9.663  78.059 119.599  0.00  0.00    -0.241 OA
ENDBRANCH   3  22
TORSDOF 7
ENDMDL
MODEL 6
REMARK VINA RESULT:      -4.8      3.628      4.598
REMARK  7 active torsions:
REMARK  status: ('A' for Active; 'I' for Inactive)
REMARK    1  A    between atoms: C_2  and  C_3 
REMARK    2  A    between atoms: C_3  and  O_6 
REMARK    3  A    between atoms: C_3  and  C_4 
REMARK    4  A    between atoms: C_7  and  O_6 
REMARK    5  A    between atoms: C_9  and  C_10 
REMARK    6  A    between atoms: N_15  and  C_14 
REMARK    7  A    between atoms: N_20  and  C_19 
REMARK       I    between atoms: C_22  and  N_20 
ROOT
ATOM      1  C   LIG d   1      -5.607  77.559 117.630  0.00  0.00     0.161 C 
ATOM      2  C   LIG d   1      -6.430  78.649 117.963  0.00  0.00     0.016 C 
ATOM      3  C   LIG d   1      -5.929  79.899 118.392  0.00  0.00     0.038 C 
ATOM      4  C   LIG d   1      -4.558  80.195 118.373  0.00  0.00     0.028 C 
ATOM      5  C   LIG d   1      -3.671  78.964 118.527  0.00  0.00    -0.047 C 
ATOM      6  C   LIG d   1      -4.108  77.898 117.497  0.00  0.00     0.091 C 
ENDROOT
BRANCH   1   7
ATOM      7  O   LIG d   1      -6.089  76.934 116.424  0.00  0.00    -0.368 OA
BRANCH   7   8
ATOM      8  C   LIG d   1      -6.708  75.634 116.584  0.00  0.00     0.119 C 
BRANCH   8   9
ATOM      9  C   LIG d   1      -6.430  74.828 115.300  0.00  0.00     0.028 C 
ATOM     10  C   LIG d   1      -5.613  75.627 114.271  0.00  0.00     0.006 C 
ENDBRANCH   8   9
BRANCH   8  11
ATOM     11  C   LIG d   1      -8.233  75.750 116.667  0.00  0.00     0.028 C 
ATOM     12  C   LIG d   1      -8.902  74.459 117.164  0.00  0.00     0.006 C 
ENDBRANCH   8  11
ENDBRANCH   7   8
ENDBRANCH   1   7
BRANCH   6  13
ATOM     13  N   LIG d   1      -3.346  76.630 117.636  0.00  0.00    -0.311 N 
ATOM     14  C   LIG d   1      -2.627  76.095 116.651  0.00  0.00     0.210 C 
ATOM     15  C   LIG d   1      -1.936  74.773 116.999  0.00  0.00     0.109 C 
ATOM     16  O   LIG d   1      -2.469  76.607 115.532  0.00  0.00    -0.276 OA
ATOM     17  H   LIG d   1      -3.393  76.164 118.521  0.00  0.00     0.149 HD
ENDBRANCH   6  13
BRANCH   5  18
ATOM     18  N   LIG d   1      -2.272  79.399 118.352  0.00  0.00     0.381 N 
ATOM     19  H   LIG d   1      -2.027  80.051 119.070  0.00  0.00    -0.090 HD
ATOM     20  H   LIG d   1      -2.184  79.860 117.464  0.00  0.00    -0.090 HD
ATOM     21  H   LIG d   1      -1.663  78.611 118.387  0.00  0.00    -0.090 HD
ENDBRANCH   5  18
BRANCH   3  22
ATOM     22  C   LIG d   1      -6.803  80.857 118.885  0.00  0.00     0.382 C 
ATOM     23  O   LIG d   1      -7.856  81.126 118.259  0.00  0.00    -0.241 OA
ATOM     24  O   LIG d   1      -6.529  81.486 119.924  0.00  0.00    -0.241 OA
ENDBRANCH   3  22
TORSDOF 7
ENDMDL
MODEL 7
REMARK VINA RESULT:      -4.7      2.992      5.675
REMARK  7 active torsions:
REMARK  status: ('A' for Active; 'I' for Inactive)
REMARK    1  A    between atoms: C_2  and  C_3 
REMARK    2  A    between atoms: C_3  and  O_6 
REMARK    3  A    between atoms: C_3  and  C_4 
REMARK    4  A    between atoms: C_7  and  O_6 
REMARK    5  A    between atoms: C_9  and  C_10 
REMARK    6  A    between atoms: N_15  and  C_14 
REMARK    7  A    between atoms: N_20  and  C_19 
REMARK       I    between atoms: C_22  and  N_20 
ROOT
ATOM      1  C   LIG d   1      -2.722  78.310 116.253  0.00  0.00     0.161 C 
ATOM      2  C   LIG d   1      -2.931  79.146 115.143  0.00  0.00     0.016 C 
ATOM      3  C   LIG d   1      -2.419  78.871 113.854  0.00  0.00     0.038 C 
ATOM      4  C   LIG d   1      -1.786  77.656 113.552  0.00  0.00     0.028 C 
ATOM      5  C   LIG d   1      -1.111  77.008 114.756  0.00  0.00    -0.047 C 
ATOM      6  C   LIG d   1      -2.128  76.926 115.917  0.00  0.00     0.091 C 
ENDROOT
BRANCH   1   7
ATOM      7  O   LIG d   1      -3.951  78.162 116.992  0.00  0.00    -0.368 OA
BRANCH   7   8
ATOM      8  C   LIG d   1      -4.227  79.184 117.981  0.00  0.00     0.119 C 
BRANCH   8   9
ATOM      9  C   LIG d   1      -3.783  78.635 119.350  0.00  0.00     0.028 C 
ATOM     10  C   LIG d   1      -4.175  77.160 119.546  0.00  0.00     0.006 C 
ENDBRANCH   8   9
BRANCH   8  11
ATOM     11  C   LIG d   1      -5.731  79.439 118.114  0.00  0.00     0.028 C 
ATOM     12  C   LIG d   1      -6.051  80.819 118.710  0.00  0.00     0.006 C 
ENDBRANCH   8  11
ENDBRANCH   7   8
ENDBRANCH   1   7
BRANCH   6  13
ATOM     13  N   LIG d   1      -1.526  76.381 117.162  0.00  0.00    -0.311 N 
ATOM     14  C   LIG d   1      -1.499  75.082 117.456  0.00  0.00     0.210 C 
ATOM     15  C   LIG d   1      -0.848  74.737 118.799  0.00  0.00     0.109 C 
ATOM     16  O   LIG d   1      -1.924  74.181 116.718  0.00  0.00    -0.276 OA
ATOM     17  H   LIG d   1      -1.130  77.040 117.803  0.00  0.00     0.149 HD
ENDBRANCH   6  13
BRANCH   5  18
ATOM     18  N   LIG d   1      -0.611  75.687 114.330  0.00  0.00     0.381 N 
ATOM     19  H   LIG d   1      -1.204  75.315 113.615  0.00  0.00    -0.090 HD
ATOM     20  H   LIG d   1      -0.635  75.062 115.117  0.00  0.00    -0.090 HD
ATOM     21  H   LIG d   1       0.321  75.769 113.990  0.00  0.00    -0.090 HD
ENDBRANCH   5  18
BRANCH   3  22
ATOM     22  C   LIG d   1      -2.503  79.835 112.861  0.00  0.00     0.382 C 
ATOM     23  O   LIG d   1      -3.317  80.783 112.975  0.00  0.00    -0.241 OA
ATOM     24  O   LIG d   1      -1.807  79.744 111.832  0.00  0.00    -0.241 OA
ENDBRANCH   3  22
TORSDOF 7
ENDMDL
MODEL 8
REMARK VINA RESULT:      -4.7      4.628      5.846
REMARK  7 active torsions:
REMARK  status: ('A' for Active; 'I' for Inactive)
REMARK    1  A    between atoms: C_2  and  C_3 
REMARK    2  A    between atoms: C_3  and  O_6 
REMARK    3  A    between atoms: C_3  and  C_4 
REMARK    4  A    between atoms: C_7  and  O_6 
REMARK    5  A    between atoms: C_9  and  C_10 
REMARK    6  A    between atoms: N_15  and  C_14 
REMARK    7  A    between atoms: N_20  and  C_19 
REMARK       I    between atoms: C_22  and  N_20 
ROOT
ATOM      1  C   LIG d   1      -6.537  77.652 119.312  0.00  0.00     0.161 C 
ATOM      2  C   LIG d   1      -7.490  78.681 119.393  0.00  0.00     0.016 C 
ATOM      3  C   LIG d   1      -7.261  79.993 118.917  0.00  0.00     0.038 C 
ATOM      4  C   LIG d   1      -6.112  80.327 118.186  0.00  0.00     0.028 C 
ATOM      5  C   LIG d   1      -4.906  79.454 118.521  0.00  0.00    -0.047 C 
ATOM      6  C   LIG d   1      -5.319  77.968 118.418  0.00  0.00     0.091 C 
ENDROOT
BRANCH   1   7
ATOM      7  O   LIG d   1      -7.171  76.432 118.881  0.00  0.00    -0.368 OA
BRANCH   7   8
ATOM      8  C   LIG d   1      -8.036  76.537 117.724  0.00  0.00     0.119 C 
BRANCH   8   9
ATOM      9  C   LIG d   1      -9.459  76.153 118.174  0.00  0.00     0.028 C 
ATOM     10  C   LIG d   1     -10.039  74.987 117.356  0.00  0.00     0.006 C 
ENDBRANCH   8   9
BRANCH   8  11
ATOM     11  C   LIG d   1      -7.659  75.510 116.652  0.00  0.00     0.028 C 
ATOM     12  C   LIG d   1      -6.626  76.047 115.649  0.00  0.00     0.006 C 
ENDBRANCH   8  11
ENDBRANCH   7   8
ENDBRANCH   1   7
BRANCH   6  13
ATOM     13  N   LIG d   1      -4.221  77.046 118.811  0.00  0.00    -0.311 N 
ATOM     14  C   LIG d   1      -3.349  76.534 117.945  0.00  0.00     0.210 C 
ATOM     15  C   LIG d   1      -2.309  75.590 118.558  0.00  0.00     0.109 C 
ATOM     16  O   LIG d   1      -3.317  76.796 116.734  0.00  0.00    -0.276 OA
ATOM     17  H   LIG d   1      -4.154  76.805 119.781  0.00  0.00     0.149 HD
ENDBRANCH   6  13
BRANCH   5  18
ATOM     18  N   LIG d   1      -3.821  79.818 117.591  0.00  0.00     0.381 N 
ATOM     19  H   LIG d   1      -4.181  80.398 116.860  0.00  0.00    -0.090 HD
ATOM     20  H   LIG d   1      -3.453  78.980 117.177  0.00  0.00    -0.090 HD
ATOM     21  H   LIG d   1      -3.099  80.300 118.082  0.00  0.00    -0.090 HD
ENDBRANCH   5  18
BRANCH   3  22
ATOM     22  C   LIG d   1      -8.173  80.997 119.207  0.00  0.00     0.382 C 
ATOM     23  O   LIG d   1      -7.820  81.984 119.896  0.00  0.00    -0.241 OA
ATOM     24  O   LIG d   1      -9.355  80.907 118.825  0.00  0.00    -0.241 OA
ENDBRANCH   3  22
TORSDOF 7
ENDMDL
MODEL 9
REMARK VINA RESULT:      -4.7      2.682      3.644
REMARK  7 active torsions:
REMARK  status: ('A' for Active; 'I' for Inactive)
REMARK    1  A    between atoms: C_2  and  C_3 
REMARK    2  A    between atoms: C_3  and  O_6 
REMARK    3  A    between atoms: C_3  and  C_4 
REMARK    4  A    between atoms: C_7  and  O_6 
REMARK    5  A    between atoms: C_9  and  C_10 
REMARK    6  A    between atoms: N_15  and  C_14 
REMARK    7  A    between atoms: N_20  and  C_19 
REMARK       I    between atoms: C_22  and  N_20 
ROOT
ATOM      1  C   LIG d   1      -4.052  76.534 117.147  0.00  0.00     0.161 C 
ATOM      2  C   LIG d   1      -5.047  77.409 117.615  0.00  0.00     0.016 C 
ATOM      3  C   LIG d   1      -4.866  78.807 117.724  0.00  0.00     0.038 C 
ATOM      4  C   LIG d   1      -3.721  79.447 117.226  0.00  0.00     0.028 C 
ATOM      5  C   LIG d   1      -2.486  78.553 117.208  0.00  0.00    -0.047 C 
ATOM      6  C   LIG d   1      -2.837  77.227 116.495  0.00  0.00     0.091 C 
ENDROOT
BRANCH   1   7
ATOM      7  O   LIG d   1      -4.631  75.578 116.237  0.00  0.00    -0.368 OA
BRANCH   7   8
ATOM      8  C   LIG d   1      -5.751  76.047 115.447  0.00  0.00     0.119 C 
BRANCH   8   9
ATOM      9  C   LIG d   1      -6.922  75.074 115.681  0.00  0.00     0.028 C 
ATOM     10  C   LIG d   1      -7.989  75.655 116.624  0.00  0.00     0.006 C 
ENDBRANCH   8   9
BRANCH   8  11
ATOM     11  C   LIG d   1      -5.448  75.964 113.948  0.00  0.00     0.028 C 
ATOM     12  C   LIG d   1      -6.649  76.362 113.075  0.00  0.00     0.006 C 
ENDBRANCH   8  11
ENDBRANCH   7   8
ENDBRANCH   1   7
BRANCH   6  13
ATOM     13  N   LIG d   1      -1.708  76.261 116.508  0.00  0.00    -0.311 N 
ATOM     14  C   LIG d   1      -1.357  75.529 115.451  0.00  0.00     0.210 C 
ATOM     15  C   LIG d   1      -0.177  74.580 115.685  0.00  0.00     0.109 C 
ATOM     16  O   LIG d   1      -1.891  75.599 114.334  0.00  0.00    -0.276 OA
ATOM     17  H   LIG d   1      -1.200  76.163 117.365  0.00  0.00     0.149 HD
ENDBRANCH   6  13
BRANCH   5  18
ATOM     18  N   LIG d   1      -1.404  79.300 116.540  0.00  0.00     0.381 N 
ATOM     19  H   LIG d   1      -1.767  80.148 116.153  0.00  0.00    -0.090 HD
ATOM     20  H   LIG d   1      -1.039  78.742 115.789  0.00  0.00    -0.090 HD
ATOM     21  H   LIG d   1      -0.680  79.508 117.192  0.00  0.00    -0.090 HD
ENDBRANCH   5  18
BRANCH   3  22
ATOM     22  C   LIG d   1      -5.820  79.575 118.373  0.00  0.00     0.382 C 
ATOM     23  O   LIG d   1      -6.116  80.712 117.933  0.00  0.00    -0.241 OA
ATOM     24  O   LIG d   1      -6.357  79.163 119.419  0.00  0.00    -0.241 OA
ENDBRANCH   3  22
TORSDOF 7
ENDMDL
