MODEL 1
REMARK VINA RESULT:      -4.8      0.000      0.000
REMARK  7 active torsions:
REMARK  status: ('A' for Active; 'I' for Inactive)
REMARK    1  A    between atoms: C_2  and  C_3 
REMARK    2  A    between atoms: C_3  and  O_6 
REMARK    3  A    between atoms: C_3  and  C_4 
REMARK    4  A    between atoms: C_7  and  O_6 
REMARK    5  A    between atoms: C_9  and  C_10 
REMARK    6  A    between atoms: N_15  and  C_14 
REMARK    7  A    between atoms: N_20  and  C_19 
REMARK       I    between atoms: C_22  and  N_20 
ROOT
ATOM      1  C   LIG d   1      -6.214  77.665 117.159  0.00  0.00     0.161 C 
ATOM      2  C   LIG d   1      -7.032  78.798 117.305  0.00  0.00     0.016 C 
ATOM      3  C   LIG d   1      -6.525  80.102 117.506  0.00  0.00     0.038 C 
ATOM      4  C   LIG d   1      -5.153  80.386 117.423  0.00  0.00     0.028 C 
ATOM      5  C   LIG d   1      -4.266  79.197 117.780  0.00  0.00    -0.047 C 
ATOM      6  C   LIG d   1      -4.716  77.970 116.954  0.00  0.00     0.091 C 
ENDROOT
BRANCH   1   7
ATOM      7  O   LIG d   1      -6.709  76.841 116.084  0.00  0.00    -0.368 OA
BRANCH   7   8
ATOM      8  C   LIG d   1      -7.066  75.482 116.435  0.00  0.00     0.119 C 
BRANCH   8   9
ATOM      9  C   LIG d   1      -6.310  74.542 115.476  0.00  0.00     0.028 C 
ATOM     10  C   LIG d   1      -5.599  75.305 114.346  0.00  0.00     0.006 C 
ENDBRANCH   8   9
BRANCH   8  11
ATOM     11  C   LIG d   1      -8.552  75.212 116.180  0.00  0.00     0.028 C 
ATOM     12  C   LIG d   1      -9.469  75.949 117.169  0.00  0.00     0.006 C 
ENDBRANCH   8  11
ENDBRANCH   7   8
ENDBRANCH   1   7
BRANCH   6  13
ATOM     13  N   LIG d   1      -3.954  76.743 117.303  0.00  0.00    -0.311 N 
ATOM     14  C   LIG d   1      -2.889  76.322 116.624  0.00  0.00     0.210 C 
ATOM     15  C   LIG d   1      -2.264  75.022 117.140  0.00  0.00     0.109 C 
ATOM     16  O   LIG d   1      -2.382  76.920 115.662  0.00  0.00    -0.276 OA
ATOM     17  H   LIG d   1      -4.278  76.213 118.090  0.00  0.00     0.149 HD
ENDBRANCH   6  13
BRANCH   5  18
ATOM     18  N   LIG d   1      -2.869  79.590 117.518  0.00  0.00     0.381 N 
ATOM     19  H   LIG d   1      -2.795  80.588 117.500  0.00  0.00    -0.090 HD
ATOM     20  H   LIG d   1      -2.595  79.237 116.619  0.00  0.00    -0.090 HD
ATOM     21  H   LIG d   1      -2.272  79.219 118.225  0.00  0.00    -0.090 HD
ENDBRANCH   5  18
BRANCH   3  22
ATOM     22  C   LIG d   1      -7.392  81.133 117.834  0.00  0.00     0.382 C 
ATOM     23  O   LIG d   1      -7.515  81.493 119.030  0.00  0.00    -0.241 OA
ATOM     24  O   LIG d   1      -8.085  81.679 116.955  0.00  0.00    -0.241 OA
ENDBRANCH   3  22
TORSDOF 7
ENDMDL
MODEL 2
REMARK VINA RESULT:      -4.8      1.440      1.810
REMARK  7 active torsions:
REMARK  status: ('A' for Active; 'I' for Inactive)
REMARK    1  A    between atoms: C_2  and  C_3 
REMARK    2  A    between atoms: C_3  and  O_6 
REMARK    3  A    between atoms: C_3  and  C_4 
REMARK    4  A    between atoms: C_7  and  O_6 
REMARK    5  A    between atoms: C_9  and  C_10 
REMARK    6  A    between atoms: N_15  and  C_14 
REMARK    7  A    between atoms: N_20  and  C_19 
REMARK       I    between atoms: C_22  and  N_20 
ROOT
ATOM      1  C   LIG d   1      -7.090  78.074 117.611  0.00  0.00     0.161 C 
ATOM      2  C   LIG d   1      -8.287  78.793 117.768  0.00  0.00     0.016 C 
ATOM      3  C   LIG d   1      -8.344  80.204 117.835  0.00  0.00     0.038 C 
ATOM      4  C   LIG d   1      -7.216  81.004 117.597  0.00  0.00     0.028 C 
ATOM      5  C   LIG d   1      -5.900  80.311 117.937  0.00  0.00    -0.047 C 
ATOM      6  C   LIG d   1      -5.863  78.933 117.239  0.00  0.00     0.091 C 
ENDROOT
BRANCH   1   7
ATOM      7  O   LIG d   1      -7.276  77.020 116.645  0.00  0.00    -0.368 OA
BRANCH   7   8
ATOM      8  C   LIG d   1      -7.187  75.666 117.154  0.00  0.00     0.119 C 
BRANCH   8   9
ATOM      9  C   LIG d   1      -6.685  74.772 116.004  0.00  0.00     0.028 C 
ATOM     10  C   LIG d   1      -6.267  75.585 114.768  0.00  0.00     0.006 C 
ENDBRANCH   8   9
BRANCH   8  11
ATOM     11  C   LIG d   1      -8.569  75.117 117.521  0.00  0.00     0.028 C 
ATOM     12  C   LIG d   1      -9.629  75.406 116.447  0.00  0.00     0.006 C 
ENDBRANCH   8  11
ENDBRANCH   7   8
ENDBRANCH   1   7
BRANCH   6  13
ATOM     13  N   LIG d   1      -4.647  78.154 117.586  0.00  0.00    -0.311 N 
ATOM     14  C   LIG d   1      -3.752  77.751 116.685  0.00  0.00     0.210 C 
ATOM     15  C   LIG d   1      -2.581  76.943 117.253  0.00  0.00     0.109 C 
ATOM     16  O   LIG d   1      -3.800  78.015 115.474  0.00  0.00    -0.276 OA
ATOM     17  H   LIG d   1      -4.513  77.923 118.551  0.00  0.00     0.149 HD
ENDBRANCH   6  13
BRANCH   5  18
ATOM     18  N   LIG d   1      -4.805  81.204 117.512  0.00  0.00     0.381 N 
ATOM     19  H   LIG d   1      -5.162  82.123 117.345  0.00  0.00    -0.090 HD
ATOM     20  H   LIG d   1      -4.416  80.855 116.653  0.00  0.00    -0.090 HD
ATOM     21  H   LIG d   1      -4.100  81.236 118.215  0.00  0.00    -0.090 HD
ENDBRANCH   5  18
BRANCH   3  22
ATOM     22  C   LIG d   1      -9.532  80.828 118.183  0.00  0.00     0.382 C 
ATOM     23  O   LIG d   1     -10.060  81.653 117.398  0.00  0.00    -0.241 OA
ATOM     24  O   LIG d   1     -10.060  80.610 119.289  0.00  0.00    -0.241 OA
ENDBRANCH   3  22
TORSDOF 7
ENDMDL
MODEL 3
REMARK VINA RESULT:      -4.7      3.978      4.781
REMARK  7 active torsions:
REMARK  status: ('A' for Active; 'I' for Inactive)
REMARK    1  A    between atoms: C_2  and  C_3 
REMARK    2  A    between atoms: C_3  and  O_6 
REMARK    3  A    between atoms: C_3  and  C_4 
REMARK    4  A    between atoms: C_7  and  O_6 
REMARK    5  A    between atoms: C_9  and  C_10 
REMARK    6  A    between atoms: N_15  and  C_14 
REMARK    7  A    between atoms: N_20  and  C_19 
REMARK       I    between atoms: C_22  and  N_20 
ROOT
ATOM      1  C   LIG d   1      -2.386  78.384 114.259  0.00  0.00     0.161 C 
ATOM      2  C   LIG d   1      -3.028  79.055 115.314  0.00  0.00     0.016 C 
ATOM      3  C   LIG d   1      -3.057  80.464 115.436  0.00  0.00     0.038 C 
ATOM      4  C   LIG d   1      -2.573  81.306 114.424  0.00  0.00     0.028 C 
ATOM      5  C   LIG d   1      -1.469  80.672 113.584  0.00  0.00    -0.047 C 
ATOM      6  C   LIG d   1      -1.949  79.288 113.088  0.00  0.00     0.091 C 
ENDROOT
BRANCH   1   7
ATOM      7  O   LIG d   1      -3.224  77.314 113.780  0.00  0.00    -0.368 OA
BRANCH   7   8
ATOM      8  C   LIG d   1      -3.863  76.501 114.795  0.00  0.00     0.119 C 
BRANCH   8   9
ATOM      9  C   LIG d   1      -2.868  75.394 115.196  0.00  0.00     0.028 C 
ATOM     10  C   LIG d   1      -2.743  75.242 116.721  0.00  0.00     0.006 C 
ENDBRANCH   8   9
BRANCH   8  11
ATOM     11  C   LIG d   1      -5.083  75.765 114.233  0.00  0.00     0.028 C 
ATOM     12  C   LIG d   1      -6.224  75.636 115.255  0.00  0.00     0.006 C 
ENDBRANCH   8  11
ENDBRANCH   7   8
ENDBRANCH   1   7
BRANCH   6  13
ATOM     13  N   LIG d   1      -0.897  78.563 112.329  0.00  0.00    -0.311 N 
ATOM     14  C   LIG d   1      -1.105  78.009 111.135  0.00  0.00     0.210 C 
ATOM     15  C   LIG d   1       0.109  77.292 110.535  0.00  0.00     0.109 C 
ATOM     16  O   LIG d   1      -2.169  78.072 110.502  0.00  0.00    -0.276 OA
ATOM     17  H   LIG d   1       0.006  78.492 112.755  0.00  0.00     0.149 HD
ENDBRANCH   6  13
BRANCH   5  18
ATOM     18  N   LIG d   1      -1.155  81.603 112.485  0.00  0.00     0.381 N 
ATOM     19  H   LIG d   1      -0.190  81.864 112.527  0.00  0.00    -0.090 HD
ATOM     20  H   LIG d   1      -1.710  82.433 112.593  0.00  0.00    -0.090 HD
ATOM     21  H   LIG d   1      -1.352  81.174 111.608  0.00  0.00    -0.090 HD
ENDBRANCH   5  18
BRANCH   3  22
ATOM     22  C   LIG d   1      -3.541  81.042 116.600  0.00  0.00     0.382 C 
ATOM     23  O   LIG d   1      -2.988  80.795 117.699  0.00  0.00    -0.241 OA
ATOM     24  O   LIG d   1      -4.549  81.773 116.570  0.00  0.00    -0.241 OA
ENDBRANCH   3  22
TORSDOF 7
ENDMDL
MODEL 4
REMARK VINA RESULT:      -4.6      1.326      2.173
REMARK  7 active torsions:
REMARK  status: ('A' for Active; 'I' for Inactive)
REMARK    1  A    between atoms: C_2  and  C_3 
REMARK    2  A    between atoms: C_3  and  O_6 
REMARK    3  A    between atoms: C_3  and  C_4 
REMARK    4  A    between atoms: C_7  and  O_6 
REMARK    5  A    between atoms: C_9  and  C_10 
REMARK    6  A    between atoms: N_15  and  C_14 
REMARK    7  A    between atoms: N_20  and  C_19 
REMARK       I    between atoms: C_22  and  N_20 
ROOT
ATOM      1  C   LIG d   1      -6.658  77.155 118.161  0.00  0.00     0.161 C 
ATOM      2  C   LIG d   1      -7.822  77.940 118.185  0.00  0.00     0.016 C 
ATOM      3  C   LIG d   1      -7.833  79.325 117.899  0.00  0.00     0.038 C 
ATOM      4  C   LIG d   1      -6.697  79.992 117.418  0.00  0.00     0.028 C 
ATOM      5  C   LIG d   1      -5.386  79.351 117.861  0.00  0.00    -0.047 C 
ATOM      6  C   LIG d   1      -5.428  77.842 117.530  0.00  0.00     0.091 C 
ENDROOT
BRANCH   1   7
ATOM      7  O   LIG d   1      -6.926  75.903 117.500  0.00  0.00    -0.368 OA
BRANCH   7   8
ATOM      8  C   LIG d   1      -7.124  75.969 116.066  0.00  0.00     0.119 C 
BRANCH   8   9
ATOM      9  C   LIG d   1      -8.577  75.544 115.779  0.00  0.00     0.028 C 
ATOM     10  C   LIG d   1      -9.113  74.546 116.820  0.00  0.00     0.006 C 
ENDBRANCH   8   9
BRANCH   8  11
ATOM     11  C   LIG d   1      -6.251  74.944 115.335  0.00  0.00     0.028 C 
ATOM     12  C   LIG d   1      -5.440  75.565 114.187  0.00  0.00     0.006 C 
ENDBRANCH   8  11
ENDBRANCH   7   8
ENDBRANCH   1   7
BRANCH   6  13
ATOM     13  N   LIG d   1      -4.218  77.123 118.007  0.00  0.00    -0.311 N 
ATOM     14  C   LIG d   1      -3.152  76.893 117.242  0.00  0.00     0.210 C 
ATOM     15  C   LIG d   1      -2.021  76.117 117.924  0.00  0.00     0.109 C 
ATOM     16  O   LIG d   1      -3.024  77.285 116.072  0.00  0.00    -0.276 OA
ATOM     17  H   LIG d   1      -4.224  76.797 118.954  0.00  0.00     0.149 HD
ENDBRANCH   6  13
BRANCH   5  18
ATOM     18  N   LIG d   1      -4.289  80.062 117.177  0.00  0.00     0.381 N 
ATOM     19  H   LIG d   1      -3.845  79.450 116.522  0.00  0.00    -0.090 HD
ATOM     20  H   LIG d   1      -3.607  80.341 117.861  0.00  0.00    -0.090 HD
ATOM     21  H   LIG d   1      -4.645  80.864 116.706  0.00  0.00    -0.090 HD
ENDBRANCH   5  18
BRANCH   3  22
ATOM     22  C   LIG d   1      -8.982  80.065 118.131  0.00  0.00     0.382 C 
ATOM     23  O   LIG d   1      -8.932  81.319 118.127  0.00  0.00    -0.241 OA
ATOM     24  O   LIG d   1     -10.060  79.496 118.390  0.00  0.00    -0.241 OA
ENDBRANCH   3  22
TORSDOF 7
ENDMDL
MODEL 5
REMARK VINA RESULT:      -4.6      4.117      6.076
REMARK  7 active torsions:
REMARK  status: ('A' for Active; 'I' for Inactive)
REMARK    1  A    between atoms: C_2  and  C_3 
REMARK    2  A    between atoms: C_3  and  O_6 
REMARK    3  A    between atoms: C_3  and  C_4 
REMARK    4  A    between atoms: C_7  and  O_6 
REMARK    5  A    between atoms: C_9  and  C_10 
REMARK    6  A    between atoms: N_15  and  C_14 
REMARK    7  A    between atoms: N_20  and  C_19 
REMARK       I    between atoms: C_22  and  N_20 
ROOT
ATOM      1  C   LIG d   1      -2.737  80.541 115.388  0.00  0.00     0.161 C 
ATOM      2  C   LIG d   1      -2.429  81.651 114.583  0.00  0.00     0.016 C 
ATOM      3  C   LIG d   1      -1.699  81.558 113.376  0.00  0.00     0.038 C 
ATOM      4  C   LIG d   1      -1.353  80.321 112.811  0.00  0.00     0.028 C 
ATOM      5  C   LIG d   1      -1.202  79.206 113.841  0.00  0.00    -0.047 C 
ATOM      6  C   LIG d   1      -2.465  79.171 114.732  0.00  0.00     0.091 C 
ENDROOT
BRANCH   1   7
ATOM      7  O   LIG d   1      -4.107  80.623 115.829  0.00  0.00    -0.368 OA
BRANCH   7   8
ATOM      8  C   LIG d   1      -4.309  80.766 117.256  0.00  0.00     0.119 C 
BRANCH   8   9
ATOM      9  C   LIG d   1      -5.723  80.245 117.578  0.00  0.00     0.028 C 
ATOM     10  C   LIG d   1      -6.781  81.360 117.548  0.00  0.00     0.006 C 
ENDBRANCH   8   9
BRANCH   8  11
ATOM     11  C   LIG d   1      -4.316  82.240 117.673  0.00  0.00     0.028 C 
ATOM     12  C   LIG d   1      -3.086  82.630 118.507  0.00  0.00     0.006 C 
ENDBRANCH   8  11
ENDBRANCH   7   8
ENDBRANCH   1   7
BRANCH   6  13
ATOM     13  N   LIG d   1      -2.364  78.164 115.820  0.00  0.00    -0.311 N 
ATOM     14  C   LIG d   1      -3.347  77.322 116.133  0.00  0.00     0.210 C 
ATOM     15  C   LIG d   1      -3.042  76.378 117.301  0.00  0.00     0.109 C 
ATOM     16  O   LIG d   1      -4.430  77.245 115.534  0.00  0.00    -0.276 OA
ATOM     17  H   LIG d   1      -1.507  78.136 116.337  0.00  0.00     0.149 HD
ENDBRANCH   6  13
BRANCH   5  18
ATOM     18  N   LIG d   1      -0.978  77.947 113.105  0.00  0.00     0.381 N 
ATOM     19  H   LIG d   1      -1.254  77.170 113.672  0.00  0.00    -0.090 HD
ATOM     20  H   LIG d   1       0.002  77.859 112.904  0.00  0.00    -0.090 HD
ATOM     21  H   LIG d   1      -1.501  77.951 112.257  0.00  0.00    -0.090 HD
ENDBRANCH   5  18
BRANCH   3  22
ATOM     22  C   LIG d   1      -1.270  82.714 112.741  0.00  0.00     0.382 C 
ATOM     23  O   LIG d   1      -0.985  83.731 113.417  0.00  0.00    -0.241 OA
ATOM     24  O   LIG d   1      -1.209  82.766 111.498  0.00  0.00    -0.241 OA
ENDBRANCH   3  22
TORSDOF 7
ENDMDL
MODEL 6
REMARK VINA RESULT:      -4.4      2.395      4.130
REMARK  7 active torsions:
REMARK  status: ('A' for Active; 'I' for Inactive)
REMARK    1  A    between atoms: C_2  and  C_3 
REMARK    2  A    between atoms: C_3  and  O_6 
REMARK    3  A    between atoms: C_3  and  C_4 
REMARK    4  A    between atoms: C_7  and  O_6 
REMARK    5  A    between atoms: C_9  and  C_10 
REMARK    6  A    between atoms: N_15  and  C_14 
REMARK    7  A    between atoms: N_20  and  C_19 
REMARK       I    between atoms: C_22  and  N_20 
ROOT
ATOM      1  C   LIG d   1      -5.923  78.827 117.727  0.00  0.00     0.161 C 
ATOM      2  C   LIG d   1      -7.129  78.125 117.888  0.00  0.00     0.016 C 
ATOM      3  C   LIG d   1      -8.387  78.758 118.018  0.00  0.00     0.038 C 
ATOM      4  C   LIG d   1      -8.542  80.141 117.841  0.00  0.00     0.028 C 
ATOM      5  C   LIG d   1      -7.287  80.940 118.179  0.00  0.00    -0.047 C 
ATOM      6  C   LIG d   1      -6.086  80.331 117.420  0.00  0.00     0.091 C 
ENDROOT
BRANCH   1   7
ATOM      7  O   LIG d   1      -5.121  78.193 116.711  0.00  0.00    -0.368 OA
BRANCH   7   8
ATOM      8  C   LIG d   1      -5.102  76.744 116.726  0.00  0.00     0.119 C 
BRANCH   8   9
ATOM      9  C   LIG d   1      -3.689  76.304 117.153  0.00  0.00     0.028 C 
ATOM     10  C   LIG d   1      -2.969  75.498 116.059  0.00  0.00     0.006 C 
ENDBRANCH   8   9
BRANCH   8  11
ATOM     11  C   LIG d   1      -5.298  76.170 115.319  0.00  0.00     0.028 C 
ATOM     12  C   LIG d   1      -6.597  75.360 115.182  0.00  0.00     0.006 C 
ENDBRANCH   8  11
ENDBRANCH   7   8
ENDBRANCH   1   7
BRANCH   6  13
ATOM     13  N   LIG d   1      -4.803  81.000 117.760  0.00  0.00    -0.311 N 
ATOM     14  C   LIG d   1      -4.317  82.039 117.083  0.00  0.00     0.210 C 
ATOM     15  C   LIG d   1      -2.970  82.566 117.587  0.00  0.00     0.109 C 
ATOM     16  O   LIG d   1      -4.889  82.595 116.133  0.00  0.00    -0.276 OA
ATOM     17  H   LIG d   1      -4.289  80.633 118.536  0.00  0.00     0.149 HD
ENDBRANCH   6  13
BRANCH   5  18
ATOM     18  N   LIG d   1      -7.545  82.347 117.819  0.00  0.00     0.381 N 
ATOM     19  H   LIG d   1      -6.709  82.762 117.458  0.00  0.00    -0.090 HD
ATOM     20  H   LIG d   1      -7.814  82.850 118.646  0.00  0.00    -0.090 HD
ATOM     21  H   LIG d   1      -8.271  82.398 117.139  0.00  0.00    -0.090 HD
ENDBRANCH   5  18
BRANCH   3  22
ATOM     22  C   LIG d   1      -9.501  78.010 118.366  0.00  0.00     0.382 C 
ATOM     23  O   LIG d   1      -9.981  77.184 117.553  0.00  0.00    -0.241 OA
ATOM     24  O   LIG d   1     -10.058  78.181 119.467  0.00  0.00    -0.241 OA
ENDBRANCH   3  22
TORSDOF 7
ENDMDL
MODEL 7
REMARK VINA RESULT:      -4.3      1.743      5.084
REMARK  7 active torsions:
REMARK  status: ('A' for Active; 'I' for Inactive)
REMARK    1  A    between atoms: C_2  and  C_3 
REMARK    2  A    between atoms: C_3  and  O_6 
REMARK    3  A    between atoms: C_3  and  C_4 
REMARK    4  A    between atoms: C_7  and  O_6 
REMARK    5  A    between atoms: C_9  and  C_10 
REMARK    6  A    between atoms: N_15  and  C_14 
REMARK    7  A    between atoms: N_20  and  C_19 
REMARK       I    between atoms: C_22  and  N_20 
ROOT
ATOM      1  C   LIG d   1      -6.239  76.911 116.835  0.00  0.00     0.161 C 
ATOM      2  C   LIG d   1      -5.399  75.847 116.466  0.00  0.00     0.016 C 
ATOM      3  C   LIG d   1      -3.990  75.948 116.420  0.00  0.00     0.038 C 
ATOM      4  C   LIG d   1      -3.312  77.083 116.890  0.00  0.00     0.028 C 
ATOM      5  C   LIG d   1      -4.136  78.362 116.797  0.00  0.00    -0.047 C 
ATOM      6  C   LIG d   1      -5.513  78.122 117.458  0.00  0.00     0.091 C 
ENDROOT
BRANCH   1   7
ATOM      7  O   LIG d   1      -7.269  76.434 117.723  0.00  0.00    -0.368 OA
BRANCH   7   8
ATOM      8  C   LIG d   1      -8.635  76.658 117.293  0.00  0.00     0.119 C 
BRANCH   8   9
ATOM      9  C   LIG d   1      -9.391  77.303 118.471  0.00  0.00     0.028 C 
ATOM     10  C   LIG d   1      -9.944  78.695 118.123  0.00  0.00     0.006 C 
ENDBRANCH   8   9
BRANCH   8  11
ATOM     11  C   LIG d   1      -9.358  75.336 117.022  0.00  0.00     0.028 C 
ATOM     12  C   LIG d   1      -8.466  74.303 116.314  0.00  0.00     0.006 C 
ENDBRANCH   8  11
ENDBRANCH   7   8
ENDBRANCH   1   7
BRANCH   6  13
ATOM     13  N   LIG d   1      -6.413  79.298 117.336  0.00  0.00    -0.311 N 
ATOM     14  C   LIG d   1      -6.458  80.283 118.231  0.00  0.00     0.210 C 
ATOM     15  C   LIG d   1      -7.471  81.390 117.925  0.00  0.00     0.109 C 
ATOM     16  O   LIG d   1      -5.731  80.361 119.233  0.00  0.00    -0.276 OA
ATOM     17  H   LIG d   1      -7.015  79.330 116.537  0.00  0.00     0.149 HD
ENDBRANCH   6  13
BRANCH   5  18
ATOM     18  N   LIG d   1      -3.363  79.438 117.446  0.00  0.00     0.381 N 
ATOM     19  H   LIG d   1      -3.949  79.938 118.085  0.00  0.00    -0.090 HD
ATOM     20  H   LIG d   1      -3.046  80.080 116.741  0.00  0.00    -0.090 HD
ATOM     21  H   LIG d   1      -2.583  79.053 117.931  0.00  0.00    -0.090 HD
ENDBRANCH   5  18
BRANCH   3  22
ATOM     22  C   LIG d   1      -3.245  74.920 115.862  0.00  0.00     0.382 C 
ATOM     23  O   LIG d   1      -3.303  74.701 114.628  0.00  0.00    -0.241 OA
ATOM     24  O   LIG d   1      -2.549  74.180 116.584  0.00  0.00    -0.241 OA
ENDBRANCH   3  22
TORSDOF 7
ENDMDL
MODEL 8
REMARK VINA RESULT:      -4.3      2.467      6.513
REMARK  7 active torsions:
REMARK  status: ('A' for Active; 'I' for Inactive)
REMARK    1  A    between atoms: C_2  and  C_3 
REMARK    2  A    between atoms: C_3  and  O_6 
REMARK    3  A    between atoms: C_3  and  C_4 
REMARK    4  A    between atoms: C_7  and  O_6 
REMARK    5  A    between atoms: C_9  and  C_10 
REMARK    6  A    between atoms: N_15  and  C_14 
REMARK    7  A    between atoms: N_20  and  C_19 
REMARK       I    between atoms: C_22  and  N_20 
ROOT
ATOM      1  C   LIG d   1      -5.306  79.244 117.383  0.00  0.00     0.161 C 
ATOM      2  C   LIG d   1      -4.749  78.022 116.969  0.00  0.00     0.016 C 
ATOM      3  C   LIG d   1      -5.503  76.837 116.811  0.00  0.00     0.038 C 
ATOM      4  C   LIG d   1      -6.902  76.829 116.912  0.00  0.00     0.028 C 
ATOM      5  C   LIG d   1      -7.450  77.924 117.822  0.00  0.00    -0.047 C 
ATOM      6  C   LIG d   1      -6.849  79.281 117.391  0.00  0.00     0.091 C 
ENDROOT
BRANCH   1   7
ATOM      7  O   LIG d   1      -4.783  80.318 116.578  0.00  0.00    -0.368 OA
BRANCH   7   8
ATOM      8  C   LIG d   1      -3.718  81.100 117.172  0.00  0.00     0.119 C 
BRANCH   8   9
ATOM      9  C   LIG d   1      -3.900  81.044 118.701  0.00  0.00     0.028 C 
ATOM     10  C   LIG d   1      -4.250  82.416 119.300  0.00  0.00     0.006 C 
ENDBRANCH   8   9
BRANCH   8  11
ATOM     11  C   LIG d   1      -3.841  82.581 116.802  0.00  0.00     0.028 C 
ATOM     12  C   LIG d   1      -2.634  83.098 116.002  0.00  0.00     0.006 C 
ENDBRANCH   8  11
ENDBRANCH   7   8
ENDBRANCH   1   7
BRANCH   6  13
ATOM     13  N   LIG d   1      -7.267  80.394 118.282  0.00  0.00    -0.311 N 
ATOM     14  C   LIG d   1      -7.746  81.553 117.833  0.00  0.00     0.210 C 
ATOM     15  C   LIG d   1      -8.099  82.573 118.920  0.00  0.00     0.109 C 
ATOM     16  O   LIG d   1      -7.943  81.821 116.638  0.00  0.00    -0.276 OA
ATOM     17  H   LIG d   1      -7.171  80.250 119.268  0.00  0.00     0.149 HD
ENDBRANCH   6  13
BRANCH   5  18
ATOM     18  N   LIG d   1      -8.922  77.887 117.727  0.00  0.00     0.381 N 
ATOM     19  H   LIG d   1      -9.238  76.938 117.740  0.00  0.00    -0.090 HD
ATOM     20  H   LIG d   1      -9.202  78.302 116.856  0.00  0.00    -0.090 HD
ATOM     21  H   LIG d   1      -9.325  78.389 118.488  0.00  0.00    -0.090 HD
ENDBRANCH   5  18
BRANCH   3  22
ATOM     22  C   LIG d   1      -4.852  75.633 116.587  0.00  0.00     0.382 C 
ATOM     23  O   LIG d   1      -5.517  74.597 116.344  0.00  0.00    -0.241 OA
ATOM     24  O   LIG d   1      -3.612  75.561 116.670  0.00  0.00    -0.241 OA
ENDBRANCH   3  22
TORSDOF 7
ENDMDL
MODEL 9
REMARK VINA RESULT:      -4.3      3.418      4.611
REMARK  7 active torsions:
REMARK  status: ('A' for Active; 'I' for Inactive)
REMARK    1  A    between atoms: C_2  and  C_3 
REMARK    2  A    between atoms: C_3  and  O_6 
REMARK    3  A    between atoms: C_3  and  C_4 
REMARK    4  A    between atoms: C_7  and  O_6 
REMARK    5  A    between atoms: C_9  and  C_10 
REMARK    6  A    between atoms: N_15  and  C_14 
REMARK    7  A    between atoms: N_20  and  C_19 
REMARK       I    between atoms: C_22  and  N_20 
ROOT
ATOM      1  C   LIG d   1      -1.989  78.084 115.825  0.00  0.00     0.161 C 
ATOM      2  C   LIG d   1      -2.601  79.337 115.653  0.00  0.00     0.016 C 
ATOM      3  C   LIG d   1      -2.617  80.032 114.422  0.00  0.00     0.038 C 
ATOM      4  C   LIG d   1      -2.150  79.449 113.235  0.00  0.00     0.028 C 
ATOM      5  C   LIG d   1      -1.071  78.395 113.461  0.00  0.00    -0.047 C 
ATOM      6  C   LIG d   1      -1.572  77.383 114.516  0.00  0.00     0.091 C 
ENDROOT
BRANCH   1   7
ATOM      7  O   LIG d   1      -2.846  77.225 116.603  0.00  0.00    -0.368 OA
BRANCH   7   8
ATOM      8  C   LIG d   1      -4.268  77.357 116.363  0.00  0.00     0.119 C 
BRANCH   8   9
ATOM      9  C   LIG d   1      -4.930  77.745 117.699  0.00  0.00     0.028 C 
ATOM     10  C   LIG d   1      -6.457  77.887 117.579  0.00  0.00     0.006 C 
ENDBRANCH   8   9
BRANCH   8  11
ATOM     11  C   LIG d   1      -4.894  76.014 115.976  0.00  0.00     0.028 C 
ATOM     12  C   LIG d   1      -4.986  75.815 114.454  0.00  0.00     0.006 C 
ENDBRANCH   8  11
ENDBRANCH   7   8
ENDBRANCH   1   7
BRANCH   6  13
ATOM     13  N   LIG d   1      -0.544  76.366 114.859  0.00  0.00    -0.311 N 
ATOM     14  C   LIG d   1      -0.744  75.054 114.747  0.00  0.00     0.210 C 
ATOM     15  C   LIG d   1       0.440  74.180 115.172  0.00  0.00     0.109 C 
ATOM     16  O   LIG d   1      -1.779  74.532 114.307  0.00  0.00    -0.276 OA
ATOM     17  H   LIG d   1       0.337  76.703 115.195  0.00  0.00     0.149 HD
ENDBRANCH   6  13
BRANCH   5  18
ATOM     18  N   LIG d   1      -0.775  77.773 112.157  0.00  0.00     0.381 N 
ATOM     19  H   LIG d   1      -1.601  77.761 111.592  0.00  0.00    -0.090 HD
ATOM     20  H   LIG d   1      -0.483  76.824 112.309  0.00  0.00    -0.090 HD
ATOM     21  H   LIG d   1      -0.054  78.280 111.693  0.00  0.00    -0.090 HD
ENDBRANCH   5  18
BRANCH   3  22
ATOM     22  C   LIG d   1      -3.069  81.343 114.378  0.00  0.00     0.382 C 
ATOM     23  O   LIG d   1      -3.303  81.961 115.445  0.00  0.00    -0.241 OA
ATOM     24  O   LIG d   1      -3.288  81.899 113.286  0.00  0.00    -0.241 OA
ENDBRANCH   3  22
TORSDOF 7
ENDMDL
