MODEL 1
REMARK VINA RESULT:      -5.2      0.000      0.000
REMARK  7 active torsions:
REMARK  status: ('A' for Active; 'I' for Inactive)
REMARK    1  A    between atoms: C_2  and  C_3 
REMARK    2  A    between atoms: C_3  and  O_6 
REMARK    3  A    between atoms: C_3  and  C_4 
REMARK    4  A    between atoms: C_7  and  O_6 
REMARK    5  A    between atoms: C_9  and  C_10 
REMARK    6  A    between atoms: N_15  and  C_14 
REMARK    7  A    between atoms: N_20  and  C_19 
REMARK       I    between atoms: C_22  and  N_20 
ROOT
ATOM      1  C   LIG d   1      -5.478  76.741 116.896  0.00  0.00     0.161 C 
ATOM      2  C   LIG d   1      -6.764  76.296 117.243  0.00  0.00     0.016 C 
ATOM      3  C   LIG d   1      -7.494  75.355 116.481  0.00  0.00     0.038 C 
ATOM      4  C   LIG d   1      -6.922  74.678 115.393  0.00  0.00     0.028 C 
ATOM      5  C   LIG d   1      -5.810  75.464 114.708  0.00  0.00    -0.047 C 
ATOM      6  C   LIG d   1      -4.793  75.931 115.775  0.00  0.00     0.091 C 
ENDROOT
BRANCH   1   7
ATOM      7  O   LIG d   1      -4.641  76.779 118.069  0.00  0.00    -0.368 OA
BRANCH   7   8
ATOM      8  C   LIG d   1      -4.602  78.039 118.783  0.00  0.00     0.119 C 
BRANCH   8   9
ATOM      9  C   LIG d   1      -3.221  78.146 119.459  0.00  0.00     0.028 C 
ATOM     10  C   LIG d   1      -2.169  77.247 118.788  0.00  0.00     0.006 C 
ENDBRANCH   8   9
BRANCH   8  11
ATOM     11  C   LIG d   1      -5.617  78.060 119.930  0.00  0.00     0.028 C 
ATOM     12  C   LIG d   1      -6.602  79.236 119.832  0.00  0.00     0.006 C 
ENDBRANCH   8  11
ENDBRANCH   7   8
ENDBRANCH   1   7
BRANCH   6  13
ATOM     13  N   LIG d   1      -3.717  76.779 115.200  0.00  0.00    -0.311 N 
ATOM     14  C   LIG d   1      -2.541  76.299 114.800  0.00  0.00     0.210 C 
ATOM     15  C   LIG d   1      -1.565  77.347 114.256  0.00  0.00     0.109 C 
ATOM     16  O   LIG d   1      -2.224  75.099 114.813  0.00  0.00    -0.276 OA
ATOM     17  H   LIG d   1      -3.901  77.760 115.123  0.00  0.00     0.149 HD
ENDBRANCH   6  13
BRANCH   5  18
ATOM     18  N   LIG d   1      -5.211  74.587 113.683  0.00  0.00     0.381 N 
ATOM     19  H   LIG d   1      -4.839  75.142 112.938  0.00  0.00    -0.090 HD
ATOM     20  H   LIG d   1      -5.927  73.991 113.307  0.00  0.00    -0.090 HD
ATOM     21  H   LIG d   1      -4.487  74.035 114.088  0.00  0.00    -0.090 HD
ENDBRANCH   5  18
BRANCH   3  22
ATOM     22  C   LIG d   1      -8.826  75.113 116.780  0.00  0.00     0.382 C 
ATOM     23  O   LIG d   1      -9.399  75.781 117.674  0.00  0.00    -0.241 OA
ATOM     24  O   LIG d   1      -9.449  74.205 116.199  0.00  0.00    -0.241 OA
ENDBRANCH   3  22
TORSDOF 7
ENDMDL
MODEL 2
REMARK VINA RESULT:      -5.0      3.266      5.818
REMARK  7 active torsions:
REMARK  status: ('A' for Active; 'I' for Inactive)
REMARK    1  A    between atoms: C_2  and  C_3 
REMARK    2  A    between atoms: C_3  and  O_6 
REMARK    3  A    between atoms: C_3  and  C_4 
REMARK    4  A    between atoms: C_7  and  O_6 
REMARK    5  A    between atoms: C_9  and  C_10 
REMARK    6  A    between atoms: N_15  and  C_14 
REMARK    7  A    between atoms: N_20  and  C_19 
REMARK       I    between atoms: C_22  and  N_20 
ROOT
ATOM      1  C   LIG d   1      -1.623  75.705 115.304  0.00  0.00     0.161 C 
ATOM      2  C   LIG d   1      -1.493  75.093 116.562  0.00  0.00     0.016 C 
ATOM      3  C   LIG d   1      -0.957  75.748 117.694  0.00  0.00     0.038 C 
ATOM      4  C   LIG d   1      -0.652  77.117 117.683  0.00  0.00     0.028 C 
ATOM      5  C   LIG d   1      -0.294  77.647 116.299  0.00  0.00    -0.047 C 
ATOM      6  C   LIG d   1      -1.399  77.231 115.301  0.00  0.00     0.091 C 
ENDROOT
BRANCH   1   7
ATOM      7  O   LIG d   1      -2.909  75.386 114.736  0.00  0.00    -0.368 OA
BRANCH   7   8
ATOM      8  C   LIG d   1      -3.983  75.157 115.680  0.00  0.00     0.119 C 
BRANCH   8   9
ATOM      9  C   LIG d   1      -5.001  74.218 115.004  0.00  0.00     0.028 C 
ATOM     10  C   LIG d   1      -6.316  74.934 114.652  0.00  0.00     0.006 C 
ENDBRANCH   8   9
BRANCH   8  11
ATOM     11  C   LIG d   1      -4.754  76.448 115.971  0.00  0.00     0.028 C 
ATOM     12  C   LIG d   1      -4.691  76.858 117.451  0.00  0.00     0.006 C 
ENDBRANCH   8  11
ENDBRANCH   7   8
ENDBRANCH   1   7
BRANCH   6  13
ATOM     13  N   LIG d   1      -1.085  77.637 113.906  0.00  0.00    -0.311 N 
ATOM     14  C   LIG d   1      -1.907  78.365 113.152  0.00  0.00     0.210 C 
ATOM     15  C   LIG d   1      -1.398  78.656 111.737  0.00  0.00     0.109 C 
ATOM     16  O   LIG d   1      -2.994  78.826 113.532  0.00  0.00    -0.276 OA
ATOM     17  H   LIG d   1      -0.209  77.333 113.529  0.00  0.00     0.149 HD
ENDBRANCH   6  13
BRANCH   5  18
ATOM     18  N   LIG d   1      -0.134  79.109 116.409  0.00  0.00     0.381 N 
ATOM     19  H   LIG d   1       0.837  79.341 116.460  0.00  0.00    -0.090 HD
ATOM     20  H   LIG d   1      -0.578  79.422 117.255  0.00  0.00    -0.090 HD
ATOM     21  H   LIG d   1      -0.550  79.558 115.622  0.00  0.00    -0.090 HD
ENDBRANCH   5  18
BRANCH   3  22
ATOM     22  C   LIG d   1      -0.684  75.022 118.843  0.00  0.00     0.382 C 
ATOM     23  O   LIG d   1      -1.341  75.234 119.891  0.00  0.00    -0.241 OA
ATOM     24  O   LIG d   1       0.241  74.187 118.858  0.00  0.00    -0.241 OA
ENDBRANCH   3  22
TORSDOF 7
ENDMDL
MODEL 3
REMARK VINA RESULT:      -5.0      2.815      5.470
REMARK  7 active torsions:
REMARK  status: ('A' for Active; 'I' for Inactive)
REMARK    1  A    between atoms: C_2  and  C_3 
REMARK    2  A    between atoms: C_3  and  O_6 
REMARK    3  A    between atoms: C_3  and  C_4 
REMARK    4  A    between atoms: C_7  and  O_6 
REMARK    5  A    between atoms: C_9  and  C_10 
REMARK    6  A    between atoms: N_15  and  C_14 
REMARK    7  A    between atoms: N_20  and  C_19 
REMARK       I    between atoms: C_22  and  N_20 
ROOT
ATOM      1  C   LIG d   1      -3.357  75.928 115.534  0.00  0.00     0.161 C 
ATOM      2  C   LIG d   1      -3.643  76.802 114.472  0.00  0.00     0.016 C 
ATOM      3  C   LIG d   1      -2.663  77.281 113.573  0.00  0.00     0.038 C 
ATOM      4  C   LIG d   1      -1.347  76.795 113.582  0.00  0.00     0.028 C 
ATOM      5  C   LIG d   1      -0.896  76.296 114.951  0.00  0.00    -0.047 C 
ATOM      6  C   LIG d   1      -1.948  75.301 115.493  0.00  0.00     0.091 C 
ENDROOT
BRANCH   1   7
ATOM      7  O   LIG d   1      -4.362  74.898 115.604  0.00  0.00    -0.368 OA
BRANCH   7   8
ATOM      8  C   LIG d   1      -5.739  75.349 115.601  0.00  0.00     0.119 C 
BRANCH   8   9
ATOM      9  C   LIG d   1      -6.052  75.890 117.009  0.00  0.00     0.028 C 
ATOM     10  C   LIG d   1      -6.280  77.411 117.017  0.00  0.00     0.006 C 
ENDBRANCH   8   9
BRANCH   8  11
ATOM     11  C   LIG d   1      -6.707  74.182 115.389  0.00  0.00     0.028 C 
ATOM     12  C   LIG d   1      -8.080  74.422 116.038  0.00  0.00     0.006 C 
ENDBRANCH   8  11
ENDBRANCH   7   8
ENDBRANCH   1   7
BRANCH   6  13
ATOM     13  N   LIG d   1      -1.626  74.828 116.865  0.00  0.00    -0.311 N 
ATOM     14  C   LIG d   1      -1.385  75.649 117.886  0.00  0.00     0.210 C 
ATOM     15  C   LIG d   1      -1.053  74.954 119.210  0.00  0.00     0.109 C 
ATOM     16  O   LIG d   1      -1.445  76.886 117.828  0.00  0.00    -0.276 OA
ATOM     17  H   LIG d   1      -1.586  73.838 117.009  0.00  0.00     0.149 HD
ENDBRANCH   6  13
BRANCH   5  18
ATOM     18  N   LIG d   1       0.440  75.693 114.787  0.00  0.00     0.381 N 
ATOM     19  H   LIG d   1       0.914  75.675 115.668  0.00  0.00    -0.090 HD
ATOM     20  H   LIG d   1       0.976  76.257 114.152  0.00  0.00    -0.090 HD
ATOM     21  H   LIG d   1       0.355  74.767 114.429  0.00  0.00    -0.090 HD
ENDBRANCH   5  18
BRANCH   3  22
ATOM     22  C   LIG d   1      -2.988  78.286 112.674  0.00  0.00     0.382 C 
ATOM     23  O   LIG d   1      -3.396  77.992 111.525  0.00  0.00    -0.241 OA
ATOM     24  O   LIG d   1      -2.835  79.483 112.984  0.00  0.00    -0.241 OA
ENDBRANCH   3  22
TORSDOF 7
ENDMDL
MODEL 4
REMARK VINA RESULT:      -5.0      2.336      3.740
REMARK  7 active torsions:
REMARK  status: ('A' for Active; 'I' for Inactive)
REMARK    1  A    between atoms: C_2  and  C_3 
REMARK    2  A    between atoms: C_3  and  O_6 
REMARK    3  A    between atoms: C_3  and  C_4 
REMARK    4  A    between atoms: C_7  and  O_6 
REMARK    5  A    between atoms: C_9  and  C_10 
REMARK    6  A    between atoms: N_15  and  C_14 
REMARK    7  A    between atoms: N_20  and  C_19 
REMARK       I    between atoms: C_22  and  N_20 
ROOT
ATOM      1  C   LIG d   1      -4.808  77.276 117.585  0.00  0.00     0.161 C 
ATOM      2  C   LIG d   1      -5.687  76.688 116.660  0.00  0.00     0.016 C 
ATOM      3  C   LIG d   1      -5.292  75.699 115.731  0.00  0.00     0.038 C 
ATOM      4  C   LIG d   1      -4.015  75.118 115.765  0.00  0.00     0.028 C 
ATOM      5  C   LIG d   1      -2.947  76.036 116.348  0.00  0.00    -0.047 C 
ATOM      6  C   LIG d   1      -3.439  76.576 117.711  0.00  0.00     0.091 C 
ENDROOT
BRANCH   1   7
ATOM      7  O   LIG d   1      -5.445  77.368 118.875  0.00  0.00    -0.368 OA
BRANCH   7   8
ATOM      8  C   LIG d   1      -6.892  77.436 118.868  0.00  0.00     0.119 C 
BRANCH   8   9
ATOM      9  C   LIG d   1      -7.291  78.844 119.348  0.00  0.00     0.028 C 
ATOM     10  C   LIG d   1      -8.128  79.605 118.306  0.00  0.00     0.006 C 
ENDBRANCH   8   9
BRANCH   8  11
ATOM     11  C   LIG d   1      -7.500  76.471 119.890  0.00  0.00     0.028 C 
ATOM     12  C   LIG d   1      -8.055  75.191 119.245  0.00  0.00     0.006 C 
ENDBRANCH   8  11
ENDBRANCH   7   8
ENDBRANCH   1   7
BRANCH   6  13
ATOM     13  N   LIG d   1      -2.490  77.549 118.311  0.00  0.00    -0.311 N 
ATOM     14  C   LIG d   1      -1.557  77.211 119.200  0.00  0.00     0.210 C 
ATOM     15  C   LIG d   1      -0.696  78.372 119.708  0.00  0.00     0.109 C 
ATOM     16  O   LIG d   1      -1.340  76.054 119.592  0.00  0.00    -0.276 OA
ATOM     17  H   LIG d   1      -2.575  78.505 118.025  0.00  0.00     0.149 HD
ENDBRANCH   6  13
BRANCH   5  18
ATOM     18  N   LIG d   1      -1.698  75.258 116.451  0.00  0.00     0.381 N 
ATOM     19  H   LIG d   1      -1.435  75.165 117.412  0.00  0.00    -0.090 HD
ATOM     20  H   LIG d   1      -0.967  75.753 115.971  0.00  0.00    -0.090 HD
ATOM     21  H   LIG d   1      -1.823  74.358 116.044  0.00  0.00    -0.090 HD
ENDBRANCH   5  18
BRANCH   3  22
ATOM     22  C   LIG d   1      -6.167  75.309 114.728  0.00  0.00     0.382 C 
ATOM     23  O   LIG d   1      -6.263  75.992 113.680  0.00  0.00    -0.241 OA
ATOM     24  O   LIG d   1      -6.893  74.308 114.877  0.00  0.00    -0.241 OA
ENDBRANCH   3  22
TORSDOF 7
ENDMDL
MODEL 5
REMARK VINA RESULT:      -4.9      2.347      5.346
REMARK  7 active torsions:
REMARK  status: ('A' for Active; 'I' for Inactive)
REMARK    1  A    between atoms: C_2  and  C_3 
REMARK    2  A    between atoms: C_3  and  O_6 
REMARK    3  A    between atoms: C_3  and  C_4 
REMARK    4  A    between atoms: C_7  and  O_6 
REMARK    5  A    between atoms: C_9  and  C_10 
REMARK    6  A    between atoms: N_15  and  C_14 
REMARK    7  A    between atoms: N_20  and  C_19 
REMARK       I    between atoms: C_22  and  N_20 
ROOT
ATOM      1  C   LIG d   1      -3.408  76.434 117.539  0.00  0.00     0.161 C 
ATOM      2  C   LIG d   1      -2.454  76.962 118.424  0.00  0.00     0.016 C 
ATOM      3  C   LIG d   1      -1.062  76.927 118.180  0.00  0.00     0.038 C 
ATOM      4  C   LIG d   1      -0.535  76.492 116.954  0.00  0.00     0.028 C 
ATOM      5  C   LIG d   1      -1.426  75.485 116.235  0.00  0.00    -0.047 C 
ATOM      6  C   LIG d   1      -2.860  76.056 116.147  0.00  0.00     0.091 C 
ENDROOT
BRANCH   1   7
ATOM      7  O   LIG d   1      -4.515  77.348 117.409  0.00  0.00    -0.368 OA
BRANCH   7   8
ATOM      8  C   LIG d   1      -5.749  76.950 118.055  0.00  0.00     0.119 C 
BRANCH   8   9
ATOM      9  C   LIG d   1      -6.806  76.752 116.952  0.00  0.00     0.028 C 
ATOM     10  C   LIG d   1      -7.271  75.290 116.840  0.00  0.00     0.006 C 
ENDBRANCH   8   9
BRANCH   8  11
ATOM     11  C   LIG d   1      -6.298  78.069 118.946  0.00  0.00     0.028 C 
ATOM     12  C   LIG d   1      -7.619  78.654 118.422  0.00  0.00     0.006 C 
ENDBRANCH   8  11
ENDBRANCH   7   8
ENDBRANCH   1   7
BRANCH   6  13
ATOM     13  N   LIG d   1      -3.815  75.097 115.532  0.00  0.00    -0.311 N 
ATOM     14  C   LIG d   1      -4.369  75.280 114.335  0.00  0.00     0.210 C 
ATOM     15  C   LIG d   1      -5.341  74.180 113.897  0.00  0.00     0.109 C 
ATOM     16  O   LIG d   1      -4.123  76.233 113.580  0.00  0.00    -0.276 OA
ATOM     17  H   LIG d   1      -4.046  74.280 116.063  0.00  0.00     0.149 HD
ENDBRANCH   6  13
BRANCH   5  18
ATOM     18  N   LIG d   1      -0.825  75.222 114.914  0.00  0.00     0.381 N 
ATOM     19  H   LIG d   1       0.086  75.631 114.869  0.00  0.00    -0.090 HD
ATOM     20  H   LIG d   1      -1.398  75.649 114.206  0.00  0.00    -0.090 HD
ATOM     21  H   LIG d   1      -0.765  74.241 114.755  0.00  0.00    -0.090 HD
ENDBRANCH   5  18
BRANCH   3  22
ATOM     22  C   LIG d   1      -0.179  77.293 119.184  0.00  0.00     0.382 C 
ATOM     23  O   LIG d   1       0.335  76.414 119.917  0.00  0.00    -0.241 OA
ATOM     24  O   LIG d   1       0.076  78.494 119.394  0.00  0.00    -0.241 OA
ENDBRANCH   3  22
TORSDOF 7
ENDMDL
MODEL 6
REMARK VINA RESULT:      -4.8      1.538      4.941
REMARK  7 active torsions:
REMARK  status: ('A' for Active; 'I' for Inactive)
REMARK    1  A    between atoms: C_2  and  C_3 
REMARK    2  A    between atoms: C_3  and  O_6 
REMARK    3  A    between atoms: C_3  and  C_4 
REMARK    4  A    between atoms: C_7  and  O_6 
REMARK    5  A    between atoms: C_9  and  C_10 
REMARK    6  A    between atoms: N_15  and  C_14 
REMARK    7  A    between atoms: N_20  and  C_19 
REMARK       I    between atoms: C_22  and  N_20 
ROOT
ATOM      1  C   LIG d   1      -4.206  76.391 117.388  0.00  0.00     0.161 C 
ATOM      2  C   LIG d   1      -2.956  76.429 116.748  0.00  0.00     0.016 C 
ATOM      3  C   LIG d   1      -2.720  75.874 115.469  0.00  0.00     0.038 C 
ATOM      4  C   LIG d   1      -3.762  75.374 114.674  0.00  0.00     0.028 C 
ATOM      5  C   LIG d   1      -4.947  74.859 115.482  0.00  0.00    -0.047 C 
ATOM      6  C   LIG d   1      -5.380  75.949 116.489  0.00  0.00     0.091 C 
ENDROOT
BRANCH   1   7
ATOM      7  O   LIG d   1      -4.488  77.672 117.986  0.00  0.00    -0.368 OA
BRANCH   7   8
ATOM      8  C   LIG d   1      -4.451  77.722 119.433  0.00  0.00     0.119 C 
BRANCH   8   9
ATOM      9  C   LIG d   1      -5.908  77.810 119.930  0.00  0.00     0.028 C 
ATOM     10  C   LIG d   1      -6.787  78.684 119.020  0.00  0.00     0.006 C 
ENDBRANCH   8   9
BRANCH   8  11
ATOM     11  C   LIG d   1      -3.776  79.004 119.930  0.00  0.00     0.028 C 
ATOM     12  C   LIG d   1      -2.261  79.016 119.675  0.00  0.00     0.006 C 
ENDBRANCH   8  11
ENDBRANCH   7   8
ENDBRANCH   1   7
BRANCH   6  13
ATOM     13  N   LIG d   1      -6.481  75.495 117.378  0.00  0.00    -0.311 N 
ATOM     14  C   LIG d   1      -7.770  75.587 117.055  0.00  0.00     0.210 C 
ATOM     15  C   LIG d   1      -8.742  75.079 118.124  0.00  0.00     0.109 C 
ATOM     16  O   LIG d   1      -8.198  76.012 115.972  0.00  0.00    -0.276 OA
ATOM     17  H   LIG d   1      -6.221  75.108 118.265  0.00  0.00     0.149 HD
ENDBRANCH   6  13
BRANCH   5  18
ATOM     18  N   LIG d   1      -6.013  74.497 114.529  0.00  0.00     0.381 N 
ATOM     19  H   LIG d   1      -5.627  73.964 113.775  0.00  0.00    -0.090 HD
ATOM     20  H   LIG d   1      -6.410  75.338 114.150  0.00  0.00    -0.090 HD
ATOM     21  H   LIG d   1      -6.719  73.967 114.992  0.00  0.00    -0.090 HD
ENDBRANCH   5  18
BRANCH   3  22
ATOM     22  C   LIG d   1      -1.422  75.780 114.990  0.00  0.00     0.382 C 
ATOM     23  O   LIG d   1      -0.540  75.210 115.677  0.00  0.00    -0.241 OA
ATOM     24  O   LIG d   1      -1.112  76.296 113.900  0.00  0.00    -0.241 OA
ENDBRANCH   3  22
TORSDOF 7
ENDMDL
MODEL 7
REMARK VINA RESULT:      -4.7      2.350      3.542
REMARK  7 active torsions:
REMARK  status: ('A' for Active; 'I' for Inactive)
REMARK    1  A    between atoms: C_2  and  C_3 
REMARK    2  A    between atoms: C_3  and  O_6 
REMARK    3  A    between atoms: C_3  and  C_4 
REMARK    4  A    between atoms: C_7  and  O_6 
REMARK    5  A    between atoms: C_9  and  C_10 
REMARK    6  A    between atoms: N_15  and  C_14 
REMARK    7  A    between atoms: N_20  and  C_19 
REMARK       I    between atoms: C_22  and  N_20 
ROOT
ATOM      1  C   LIG d   1      -6.094  76.779 117.273  0.00  0.00     0.161 C 
ATOM      2  C   LIG d   1      -6.812  77.824 117.878  0.00  0.00     0.016 C 
ATOM      3  C   LIG d   1      -8.215  77.807 118.051  0.00  0.00     0.038 C 
ATOM      4  C   LIG d   1      -8.983  76.669 117.764  0.00  0.00     0.028 C 
ATOM      5  C   LIG d   1      -8.372  75.782 116.685  0.00  0.00    -0.047 C 
ATOM      6  C   LIG d   1      -6.902  75.482 117.054  0.00  0.00     0.091 C 
ENDROOT
BRANCH   1   7
ATOM      7  O   LIG d   1      -4.899  76.503 118.030  0.00  0.00    -0.368 OA
BRANCH   7   8
ATOM      8  C   LIG d   1      -3.652  76.931 117.430  0.00  0.00     0.119 C 
BRANCH   8   9
ATOM      9  C   LIG d   1      -2.990  75.689 116.803  0.00  0.00     0.028 C 
ATOM     10  C   LIG d   1      -2.163  76.033 115.552  0.00  0.00     0.006 C 
ENDBRANCH   8   9
BRANCH   8  11
ATOM     11  C   LIG d   1      -2.664  77.425 118.491  0.00  0.00     0.028 C 
ATOM     12  C   LIG d   1      -3.361  77.942 119.760  0.00  0.00     0.006 C 
ENDBRANCH   8  11
ENDBRANCH   7   8
ENDBRANCH   1   7
BRANCH   6  13
ATOM     13  N   LIG d   1      -6.205  74.689 116.009  0.00  0.00    -0.311 N 
ATOM     14  C   LIG d   1      -5.892  75.173 114.808  0.00  0.00     0.210 C 
ATOM     15  C   LIG d   1      -5.193  74.181 113.873  0.00  0.00     0.109 C 
ATOM     16  O   LIG d   1      -6.099  76.339 114.440  0.00  0.00    -0.276 OA
ATOM     17  H   LIG d   1      -5.972  73.741 116.234  0.00  0.00     0.149 HD
ENDBRANCH   6  13
BRANCH   5  18
ATOM     18  N   LIG d   1      -9.203  74.566 116.584  0.00  0.00     0.381 N 
ATOM     19  H   LIG d   1      -9.666  74.545 115.698  0.00  0.00    -0.090 HD
ATOM     20  H   LIG d   1      -9.902  74.590 117.305  0.00  0.00    -0.090 HD
ATOM     21  H   LIG d   1      -8.634  73.755 116.690  0.00  0.00    -0.090 HD
ENDBRANCH   5  18
BRANCH   3  22
ATOM     22  C   LIG d   1      -8.868  78.952 118.479  0.00  0.00     0.382 C 
ATOM     23  O   LIG d   1      -8.247  80.040 118.549  0.00  0.00    -0.241 OA
ATOM     24  O   LIG d   1     -10.060  78.903 118.838  0.00  0.00    -0.241 OA
ENDBRANCH   3  22
TORSDOF 7
ENDMDL
MODEL 8
REMARK VINA RESULT:      -4.6      2.341      5.946
REMARK  7 active torsions:
REMARK  status: ('A' for Active; 'I' for Inactive)
REMARK    1  A    between atoms: C_2  and  C_3 
REMARK    2  A    between atoms: C_3  and  O_6 
REMARK    3  A    between atoms: C_3  and  C_4 
REMARK    4  A    between atoms: C_7  and  O_6 
REMARK    5  A    between atoms: C_9  and  C_10 
REMARK    6  A    between atoms: N_15  and  C_14 
REMARK    7  A    between atoms: N_20  and  C_19 
REMARK       I    between atoms: C_22  and  N_20 
ROOT
ATOM      1  C   LIG d   1      -4.763  75.590 116.266  0.00  0.00     0.161 C 
ATOM      2  C   LIG d   1      -3.532  75.024 115.897  0.00  0.00     0.016 C 
ATOM      3  C   LIG d   1      -2.299  75.395 116.480  0.00  0.00     0.038 C 
ATOM      4  C   LIG d   1      -2.231  76.256 117.586  0.00  0.00     0.028 C 
ATOM      5  C   LIG d   1      -3.396  77.236 117.662  0.00  0.00    -0.047 C 
ATOM      6  C   LIG d   1      -4.722  76.450 117.546  0.00  0.00     0.091 C 
ENDROOT
BRANCH   1   7
ATOM      7  O   LIG d   1      -5.760  74.556 116.388  0.00  0.00    -0.368 OA
BRANCH   7   8
ATOM      8  C   LIG d   1      -6.674  74.416 115.273  0.00  0.00     0.119 C 
BRANCH   8   9
ATOM      9  C   LIG d   1      -6.700  75.762 114.524  0.00  0.00     0.028 C 
ATOM     10  C   LIG d   1      -5.908  75.717 113.207  0.00  0.00     0.006 C 
ENDBRANCH   8   9
BRANCH   8  11
ATOM     11  C   LIG d   1      -8.110  74.192 115.755  0.00  0.00     0.028 C 
ATOM     12  C   LIG d   1      -8.283  74.459 117.258  0.00  0.00     0.006 C 
ENDBRANCH   8  11
ENDBRANCH   7   8
ENDBRANCH   1   7
BRANCH   6  13
ATOM     13  N   LIG d   1      -5.911  77.342 117.528  0.00  0.00    -0.311 N 
ATOM     14  C   LIG d   1      -6.632  77.625 118.611  0.00  0.00     0.210 C 
ATOM     15  C   LIG d   1      -7.829  78.550 118.367  0.00  0.00     0.109 C 
ATOM     16  O   LIG d   1      -6.376  77.223 119.756  0.00  0.00    -0.276 OA
ATOM     17  H   LIG d   1      -6.171  77.737 116.645  0.00  0.00     0.149 HD
ENDBRANCH   6  13
BRANCH   5  18
ATOM     18  N   LIG d   1      -3.273  77.977 118.932  0.00  0.00     0.381 N 
ATOM     19  H   LIG d   1      -3.031  78.930 118.745  0.00  0.00    -0.090 HD
ATOM     20  H   LIG d   1      -2.536  77.566 119.478  0.00  0.00    -0.090 HD
ATOM     21  H   LIG d   1      -4.132  77.937 119.435  0.00  0.00    -0.090 HD
ENDBRANCH   5  18
BRANCH   3  22
ATOM     22  C   LIG d   1      -1.112  74.934 115.931  0.00  0.00     0.382 C 
ATOM     23  O   LIG d   1      -0.363  74.180 116.599  0.00  0.00    -0.241 OA
ATOM     24  O   LIG d   1      -0.759  75.297 114.793  0.00  0.00    -0.241 OA
ENDBRANCH   3  22
TORSDOF 7
ENDMDL
MODEL 9
REMARK VINA RESULT:      -4.5      1.882      2.839
REMARK  7 active torsions:
REMARK  status: ('A' for Active; 'I' for Inactive)
REMARK    1  A    between atoms: C_2  and  C_3 
REMARK    2  A    between atoms: C_3  and  O_6 
REMARK    3  A    between atoms: C_3  and  C_4 
REMARK    4  A    between atoms: C_7  and  O_6 
REMARK    5  A    between atoms: C_9  and  C_10 
REMARK    6  A    between atoms: N_15  and  C_14 
REMARK    7  A    between atoms: N_20  and  C_19 
REMARK       I    between atoms: C_22  and  N_20 
ROOT
ATOM      1  C   LIG d   1      -3.513  76.447 116.936  0.00  0.00     0.161 C 
ATOM      2  C   LIG d   1      -4.779  76.666 117.504  0.00  0.00     0.016 C 
ATOM      3  C   LIG d   1      -5.976  76.145 116.961  0.00  0.00     0.038 C 
ATOM      4  C   LIG d   1      -5.972  75.239 115.890  0.00  0.00     0.028 C 
ATOM      5  C   LIG d   1      -4.762  75.390 114.973  0.00  0.00    -0.047 C 
ATOM      6  C   LIG d   1      -3.477  75.370 115.831  0.00  0.00     0.091 C 
ENDROOT
BRANCH   1   7
ATOM      7  O   LIG d   1      -2.560  76.136 117.971  0.00  0.00    -0.368 OA
BRANCH   7   8
ATOM      8  C   LIG d   1      -1.918  77.268 118.608  0.00  0.00     0.119 C 
BRANCH   8   9
ATOM      9  C   LIG d   1      -0.763  77.720 117.695  0.00  0.00     0.028 C 
ATOM     10  C   LIG d   1      -0.146  79.055 118.145  0.00  0.00     0.006 C 
ENDBRANCH   8   9
BRANCH   8  11
ATOM     11  C   LIG d   1      -1.257  76.862 119.929  0.00  0.00     0.028 C 
ATOM     12  C   LIG d   1      -0.596  75.476 119.863  0.00  0.00     0.006 C 
ENDBRANCH   8  11
ENDBRANCH   7   8
ENDBRANCH   1   7
BRANCH   6  13
ATOM     13  N   LIG d   1      -2.251  75.597 115.022  0.00  0.00    -0.311 N 
ATOM     14  C   LIG d   1      -1.084  75.010 115.279  0.00  0.00     0.210 C 
ATOM     15  C   LIG d   1       0.057  75.398 114.333  0.00  0.00     0.109 C 
ATOM     16  O   LIG d   1      -0.893  74.181 116.181  0.00  0.00    -0.276 OA
ATOM     17  H   LIG d   1      -2.325  76.232 114.251  0.00  0.00     0.149 HD
ENDBRANCH   6  13
BRANCH   5  18
ATOM     18  N   LIG d   1      -4.814  74.298 113.983  0.00  0.00     0.381 N 
ATOM     19  H   LIG d   1      -5.528  73.645 114.237  0.00  0.00    -0.090 HD
ATOM     20  H   LIG d   1      -3.932  73.817 113.984  0.00  0.00    -0.090 HD
ATOM     21  H   LIG d   1      -4.999  74.668 113.077  0.00  0.00    -0.090 HD
ENDBRANCH   5  18
BRANCH   3  22
ATOM     22  C   LIG d   1      -7.198  76.563 117.465  0.00  0.00     0.382 C 
ATOM     23  O   LIG d   1      -8.126  75.733 117.626  0.00  0.00    -0.241 OA
ATOM     24  O   LIG d   1      -7.399  77.765 117.720  0.00  0.00    -0.241 OA
ENDBRANCH   3  22
TORSDOF 7
ENDMDL
