MODEL 1
REMARK VINA RESULT:      -4.9      0.000      0.000
REMARK  7 active torsions:
REMARK  status: ('A' for Active; 'I' for Inactive)
REMARK    1  A    between atoms: C_2  and  C_3 
REMARK    2  A    between atoms: C_3  and  O_6 
REMARK    3  A    between atoms: C_3  and  C_4 
REMARK    4  A    between atoms: C_7  and  O_6 
REMARK    5  A    between atoms: C_9  and  C_10 
REMARK    6  A    between atoms: N_15  and  C_14 
REMARK    7  A    between atoms: N_20  and  C_19 
REMARK       I    between atoms: C_22  and  N_20 
ROOT
ATOM      1  C   LIG d   1      -5.367  77.620 116.882  0.00  0.00     0.161 C 
ATOM      2  C   LIG d   1      -6.226  78.406 117.668  0.00  0.00     0.016 C 
ATOM      3  C   LIG d   1      -5.934  79.737 118.046  0.00  0.00     0.038 C 
ATOM      4  C   LIG d   1      -4.825  80.427 117.534  0.00  0.00     0.028 C 
ATOM      5  C   LIG d   1      -3.669  79.511 117.144  0.00  0.00    -0.047 C 
ATOM      6  C   LIG d   1      -4.205  78.392 116.222  0.00  0.00     0.091 C 
ENDROOT
BRANCH   1   7
ATOM      7  O   LIG d   1      -6.129  76.912 115.884  0.00  0.00    -0.368 OA
BRANCH   7   8
ATOM      8  C   LIG d   1      -6.410  75.519 116.166  0.00  0.00     0.119 C 
BRANCH   8   9
ATOM      9  C   LIG d   1      -5.741  74.679 115.061  0.00  0.00     0.028 C 
ATOM     10  C   LIG d   1      -5.793  75.368 113.687  0.00  0.00     0.006 C 
ENDBRANCH   8   9
BRANCH   8  11
ATOM     11  C   LIG d   1      -7.908  75.219 116.052  0.00  0.00     0.028 C 
ATOM     12  C   LIG d   1      -8.421  74.312 117.182  0.00  0.00     0.006 C 
ENDBRANCH   8  11
ENDBRANCH   7   8
ENDBRANCH   1   7
BRANCH   6  13
ATOM     13  N   LIG d   1      -3.156  77.403 115.862  0.00  0.00    -0.311 N 
ATOM     14  C   LIG d   1      -2.774  77.164 114.609  0.00  0.00     0.210 C 
ATOM     15  C   LIG d   1      -1.690  76.091 114.457  0.00  0.00     0.109 C 
ATOM     16  O   LIG d   1      -3.206  77.761 113.611  0.00  0.00    -0.276 OA
ATOM     17  H   LIG d   1      -2.729  76.896 116.613  0.00  0.00     0.149 HD
ENDBRANCH   6  13
BRANCH   5  18
ATOM     18  N   LIG d   1      -2.638  80.346 116.499  0.00  0.00     0.381 N 
ATOM     19  H   LIG d   1      -1.982  79.763 116.019  0.00  0.00    -0.090 HD
ATOM     20  H   LIG d   1      -2.143  80.858 117.209  0.00  0.00    -0.090 HD
ATOM     21  H   LIG d   1      -3.062  80.979 115.858  0.00  0.00    -0.090 HD
ENDBRANCH   5  18
BRANCH   3  22
ATOM     22  C   LIG d   1      -6.736  80.378 118.977  0.00  0.00     0.382 C 
ATOM     23  O   LIG d   1      -7.296  79.716 119.884  0.00  0.00    -0.241 OA
ATOM     24  O   LIG d   1      -6.942  81.604 118.896  0.00  0.00    -0.241 OA
ENDBRANCH   3  22
TORSDOF 7
ENDMDL
MODEL 2
REMARK VINA RESULT:      -4.8      4.521      7.066
REMARK  7 active torsions:
REMARK  status: ('A' for Active; 'I' for Inactive)
REMARK    1  A    between atoms: C_2  and  C_3 
REMARK    2  A    between atoms: C_3  and  O_6 
REMARK    3  A    between atoms: C_3  and  C_4 
REMARK    4  A    between atoms: C_7  and  O_6 
REMARK    5  A    between atoms: C_9  and  C_10 
REMARK    6  A    between atoms: N_15  and  C_14 
REMARK    7  A    between atoms: N_20  and  C_19 
REMARK       I    between atoms: C_22  and  N_20 
ROOT
ATOM      1  C   LIG d   1      -1.657  81.040 114.164  0.00  0.00     0.161 C 
ATOM      2  C   LIG d   1      -1.506  82.360 113.710  0.00  0.00     0.016 C 
ATOM      3  C   LIG d   1      -0.979  82.691 112.440  0.00  0.00     0.038 C 
ATOM      4  C   LIG d   1      -0.706  81.712 111.473  0.00  0.00     0.028 C 
ATOM      5  C   LIG d   1      -0.368  80.349 112.069  0.00  0.00    -0.047 C 
ATOM      6  C   LIG d   1      -1.469  79.957 113.081  0.00  0.00     0.091 C 
ENDROOT
BRANCH   1   7
ATOM      7  O   LIG d   1      -2.939  80.888 114.807  0.00  0.00    -0.368 OA
BRANCH   7   8
ATOM      8  C   LIG d   1      -2.915  80.726 116.246  0.00  0.00     0.119 C 
BRANCH   8   9
ATOM      9  C   LIG d   1      -3.350  82.066 116.870  0.00  0.00     0.028 C 
ATOM     10  C   LIG d   1      -2.172  82.835 117.490  0.00  0.00     0.006 C 
ENDBRANCH   8   9
BRANCH   8  11
ATOM     11  C   LIG d   1      -1.491  80.485 116.756  0.00  0.00     0.028 C 
ATOM     12  C   LIG d   1      -1.330  79.125 117.454  0.00  0.00     0.006 C 
ENDBRANCH   8  11
ENDBRANCH   7   8
ENDBRANCH   1   7
BRANCH   6  13
ATOM     13  N   LIG d   1      -1.173  78.676 113.772  0.00  0.00    -0.311 N 
ATOM     14  C   LIG d   1      -2.085  77.728 113.983  0.00  0.00     0.210 C 
ATOM     15  C   LIG d   1      -1.574  76.494 114.732  0.00  0.00     0.109 C 
ATOM     16  O   LIG d   1      -3.261  77.779 113.592  0.00  0.00    -0.276 OA
ATOM     17  H   LIG d   1      -0.235  78.537 114.095  0.00  0.00     0.149 HD
ENDBRANCH   6  13
BRANCH   5  18
ATOM     18  N   LIG d   1      -0.242  79.393 110.953  0.00  0.00     0.381 N 
ATOM     19  H   LIG d   1      -1.104  78.901 110.829  0.00  0.00    -0.090 HD
ATOM     20  H   LIG d   1       0.474  78.725 111.177  0.00  0.00    -0.090 HD
ATOM     21  H   LIG d   1      -0.004  79.877 110.115  0.00  0.00    -0.090 HD
ENDBRANCH   5  18
BRANCH   3  22
ATOM     22  C   LIG d   1      -0.682  84.012 112.142  0.00  0.00     0.382 C 
ATOM     23  O   LIG d   1      -1.118  84.530 111.086  0.00  0.00    -0.241 OA
ATOM     24  O   LIG d   1       0.054  84.679 112.894  0.00  0.00    -0.241 OA
ENDBRANCH   3  22
TORSDOF 7
ENDMDL
MODEL 3
REMARK VINA RESULT:      -4.8      1.349      2.138
REMARK  7 active torsions:
REMARK  status: ('A' for Active; 'I' for Inactive)
REMARK    1  A    between atoms: C_2  and  C_3 
REMARK    2  A    between atoms: C_3  and  O_6 
REMARK    3  A    between atoms: C_3  and  C_4 
REMARK    4  A    between atoms: C_7  and  O_6 
REMARK    5  A    between atoms: C_9  and  C_10 
REMARK    6  A    between atoms: N_15  and  C_14 
REMARK    7  A    between atoms: N_20  and  C_19 
REMARK       I    between atoms: C_22  and  N_20 
ROOT
ATOM      1  C   LIG d   1      -4.437  76.584 117.142  0.00  0.00     0.161 C 
ATOM      2  C   LIG d   1      -5.332  77.568 117.593  0.00  0.00     0.016 C 
ATOM      3  C   LIG d   1      -5.130  78.953 117.394  0.00  0.00     0.038 C 
ATOM      4  C   LIG d   1      -4.087  79.443 116.594  0.00  0.00     0.028 C 
ATOM      5  C   LIG d   1      -2.877  78.516 116.541  0.00  0.00    -0.047 C 
ATOM      6  C   LIG d   1      -3.351  77.092 116.171  0.00  0.00     0.091 C 
ENDROOT
BRANCH   1   7
ATOM      7  O   LIG d   1      -5.169  75.493 116.549  0.00  0.00    -0.368 OA
BRANCH   7   8
ATOM      8  C   LIG d   1      -6.468  75.821 115.999  0.00  0.00     0.119 C 
BRANCH   8   9
ATOM      9  C   LIG d   1      -7.478  74.799 116.556  0.00  0.00     0.028 C 
ATOM     10  C   LIG d   1      -8.716  75.473 117.172  0.00  0.00     0.006 C 
ENDBRANCH   8   9
BRANCH   8  11
ATOM     11  C   LIG d   1      -6.495  75.631 114.480  0.00  0.00     0.028 C 
ATOM     12  C   LIG d   1      -5.315  74.792 113.964  0.00  0.00     0.006 C 
ENDBRANCH   8  11
ENDBRANCH   7   8
ENDBRANCH   1   7
BRANCH   6  13
ATOM     13  N   LIG d   1      -2.241  76.105 116.180  0.00  0.00    -0.311 N 
ATOM     14  C   LIG d   1      -1.567  75.749 115.088  0.00  0.00     0.210 C 
ATOM     15  C   LIG d   1      -0.473  74.701 115.316  0.00  0.00     0.109 C 
ATOM     16  O   LIG d   1      -1.749  76.227 113.958  0.00  0.00    -0.276 OA
ATOM     17  H   LIG d   1      -2.006  75.691 117.061  0.00  0.00     0.149 HD
ENDBRANCH   6  13
BRANCH   5  18
ATOM     18  N   LIG d   1      -1.925  79.081 115.566  0.00  0.00     0.381 N 
ATOM     19  H   LIG d   1      -2.019  80.077 115.538  0.00  0.00    -0.090 HD
ATOM     20  H   LIG d   1      -2.141  78.718 114.654  0.00  0.00    -0.090 HD
ATOM     21  H   LIG d   1      -0.993  78.835 115.818  0.00  0.00    -0.090 HD
ENDBRANCH   5  18
BRANCH   3  22
ATOM     22  C   LIG d   1      -5.954  79.867 118.033  0.00  0.00     0.382 C 
ATOM     23  O   LIG d   1      -6.040  79.865 119.285  0.00  0.00    -0.241 OA
ATOM     24  O   LIG d   1      -6.648  80.663 117.372  0.00  0.00    -0.241 OA
ENDBRANCH   3  22
TORSDOF 7
ENDMDL
MODEL 4
REMARK VINA RESULT:      -4.7      1.908      2.728
REMARK  7 active torsions:
REMARK  status: ('A' for Active; 'I' for Inactive)
REMARK    1  A    between atoms: C_2  and  C_3 
REMARK    2  A    between atoms: C_3  and  O_6 
REMARK    3  A    between atoms: C_3  and  C_4 
REMARK    4  A    between atoms: C_7  and  O_6 
REMARK    5  A    between atoms: C_9  and  C_10 
REMARK    6  A    between atoms: N_15  and  C_14 
REMARK    7  A    between atoms: N_20  and  C_19 
REMARK       I    between atoms: C_22  and  N_20 
ROOT
ATOM      1  C   LIG d   1      -5.728  77.601 117.151  0.00  0.00     0.161 C 
ATOM      2  C   LIG d   1      -7.043  77.435 117.616  0.00  0.00     0.016 C 
ATOM      3  C   LIG d   1      -7.789  78.468 118.229  0.00  0.00     0.038 C 
ATOM      4  C   LIG d   1      -7.319  79.789 118.282  0.00  0.00     0.028 C 
ATOM      5  C   LIG d   1      -5.798  79.892 118.280  0.00  0.00    -0.047 C 
ATOM      6  C   LIG d   1      -5.240  79.064 117.100  0.00  0.00     0.091 C 
ENDROOT
BRANCH   1   7
ATOM      7  O   LIG d   1      -5.585  76.979 115.858  0.00  0.00    -0.368 OA
BRANCH   7   8
ATOM      8  C   LIG d   1      -4.524  76.000 115.736  0.00  0.00     0.119 C 
BRANCH   8   9
ATOM      9  C   LIG d   1      -3.800  76.266 114.402  0.00  0.00     0.028 C 
ATOM     10  C   LIG d   1      -2.379  75.678 114.378  0.00  0.00     0.006 C 
ENDBRANCH   8   9
BRANCH   8  11
ATOM     11  C   LIG d   1      -5.087  74.581 115.616  0.00  0.00     0.028 C 
ATOM     12  C   LIG d   1      -6.574  74.560 115.229  0.00  0.00     0.006 C 
ENDBRANCH   8  11
ENDBRANCH   7   8
ENDBRANCH   1   7
BRANCH   6  13
ATOM     13  N   LIG d   1      -3.755  79.042 117.075  0.00  0.00    -0.311 N 
ATOM     14  C   LIG d   1      -3.033  79.451 116.033  0.00  0.00     0.210 C 
ATOM     15  C   LIG d   1      -1.516  79.325 116.207  0.00  0.00     0.109 C 
ATOM     16  O   LIG d   1      -3.504  79.936 114.993  0.00  0.00    -0.276 OA
ATOM     17  H   LIG d   1      -3.290  78.692 117.890  0.00  0.00     0.149 HD
ENDBRANCH   6  13
BRANCH   5  18
ATOM     18  N   LIG d   1      -5.448  81.323 118.198  0.00  0.00     0.381 N 
ATOM     19  H   LIG d   1      -5.019  81.616 119.053  0.00  0.00    -0.090 HD
ATOM     20  H   LIG d   1      -6.290  81.856 118.069  0.00  0.00    -0.090 HD
ATOM     21  H   LIG d   1      -4.827  81.479 117.436  0.00  0.00    -0.090 HD
ENDBRANCH   5  18
BRANCH   3  22
ATOM     22  C   LIG d   1      -9.002  78.175 118.833  0.00  0.00     0.382 C 
ATOM     23  O   LIG d   1     -10.059  78.692 118.397  0.00  0.00    -0.241 OA
ATOM     24  O   LIG d   1      -9.047  77.437 119.834  0.00  0.00    -0.241 OA
ENDBRANCH   3  22
TORSDOF 7
ENDMDL
MODEL 5
REMARK VINA RESULT:      -4.5      2.834      4.862
REMARK  7 active torsions:
REMARK  status: ('A' for Active; 'I' for Inactive)
REMARK    1  A    between atoms: C_2  and  C_3 
REMARK    2  A    between atoms: C_3  and  O_6 
REMARK    3  A    between atoms: C_3  and  C_4 
REMARK    4  A    between atoms: C_7  and  O_6 
REMARK    5  A    between atoms: C_9  and  C_10 
REMARK    6  A    between atoms: N_15  and  C_14 
REMARK    7  A    between atoms: N_20  and  C_19 
REMARK       I    between atoms: C_22  and  N_20 
ROOT
ATOM      1  C   LIG d   1      -2.795  76.811 114.663  0.00  0.00     0.161 C 
ATOM      2  C   LIG d   1      -2.343  75.759 115.476  0.00  0.00     0.016 C 
ATOM      3  C   LIG d   1      -1.383  75.924 116.501  0.00  0.00     0.038 C 
ATOM      4  C   LIG d   1      -0.918  77.190 116.884  0.00  0.00     0.028 C 
ATOM      5  C   LIG d   1      -0.965  78.219 115.759  0.00  0.00    -0.047 C 
ATOM      6  C   LIG d   1      -2.382  78.220 115.140  0.00  0.00     0.091 C 
ENDROOT
BRANCH   1   7
ATOM      7  O   LIG d   1      -4.226  76.733 114.513  0.00  0.00    -0.368 OA
BRANCH   7   8
ATOM      8  C   LIG d   1      -4.932  75.971 115.522  0.00  0.00     0.119 C 
BRANCH   8   9
ATOM      9  C   LIG d   1      -6.010  75.137 114.803  0.00  0.00     0.028 C 
ATOM     10  C   LIG d   1      -7.399  75.294 115.444  0.00  0.00     0.006 C 
ENDBRANCH   8   9
BRANCH   8  11
ATOM     11  C   LIG d   1      -5.701  76.890 116.477  0.00  0.00     0.028 C 
ATOM     12  C   LIG d   1      -4.893  77.253 117.734  0.00  0.00     0.006 C 
ENDBRANCH   8  11
ENDBRANCH   7   8
ENDBRANCH   1   7
BRANCH   6  13
ATOM     13  N   LIG d   1      -2.491  79.138 113.976  0.00  0.00    -0.311 N 
ATOM     14  C   LIG d   1      -2.941  80.388 114.069  0.00  0.00     0.210 C 
ATOM     15  C   LIG d   1      -2.991  81.157 112.745  0.00  0.00     0.109 C 
ATOM     16  O   LIG d   1      -3.273  80.944 115.127  0.00  0.00    -0.276 OA
ATOM     17  H   LIG d   1      -2.213  78.779 113.084  0.00  0.00     0.149 HD
ENDBRANCH   6  13
BRANCH   5  18
ATOM     18  N   LIG d   1      -0.584  79.524 116.332  0.00  0.00     0.381 N 
ATOM     19  H   LIG d   1       0.154  79.928 115.792  0.00  0.00    -0.090 HD
ATOM     20  H   LIG d   1      -0.249  79.382 117.269  0.00  0.00    -0.090 HD
ATOM     21  H   LIG d   1      -1.371  80.135 116.342  0.00  0.00    -0.090 HD
ENDBRANCH   5  18
BRANCH   3  22
ATOM     22  C   LIG d   1      -0.848  74.808 117.127  0.00  0.00     0.382 C 
ATOM     23  O   LIG d   1      -1.283  74.451 118.249  0.00  0.00    -0.241 OA
ATOM     24  O   LIG d   1       0.093  74.181 116.606  0.00  0.00    -0.241 OA
ENDBRANCH   3  22
TORSDOF 7
ENDMDL
MODEL 6
REMARK VINA RESULT:      -4.5      3.168      4.636
REMARK  7 active torsions:
REMARK  status: ('A' for Active; 'I' for Inactive)
REMARK    1  A    between atoms: C_2  and  C_3 
REMARK    2  A    between atoms: C_3  and  O_6 
REMARK    3  A    between atoms: C_3  and  C_4 
REMARK    4  A    between atoms: C_7  and  O_6 
REMARK    5  A    between atoms: C_9  and  C_10 
REMARK    6  A    between atoms: N_15  and  C_14 
REMARK    7  A    between atoms: N_20  and  C_19 
REMARK       I    between atoms: C_22  and  N_20 
ROOT
ATOM      1  C   LIG d   1      -3.063  79.945 115.987  0.00  0.00     0.161 C 
ATOM      2  C   LIG d   1      -2.922  81.341 116.056  0.00  0.00     0.016 C 
ATOM      3  C   LIG d   1      -2.147  82.092 115.142  0.00  0.00     0.038 C 
ATOM      4  C   LIG d   1      -1.579  81.509 113.999  0.00  0.00     0.028 C 
ATOM      5  C   LIG d   1      -1.275  80.024 114.163  0.00  0.00    -0.047 C 
ATOM      6  C   LIG d   1      -2.542  79.307 114.682  0.00  0.00     0.091 C 
ENDROOT
BRANCH   1   7
ATOM      7  O   LIG d   1      -4.440  79.582 116.207  0.00  0.00    -0.368 OA
BRANCH   7   8
ATOM      8  C   LIG d   1      -4.801  79.248 117.570  0.00  0.00     0.119 C 
BRANCH   8   9
ATOM      9  C   LIG d   1      -4.899  77.713 117.661  0.00  0.00     0.028 C 
ATOM     10  C   LIG d   1      -5.911  77.130 116.660  0.00  0.00     0.006 C 
ENDBRANCH   8   9
BRANCH   8  11
ATOM     11  C   LIG d   1      -6.200  79.765 117.918  0.00  0.00     0.028 C 
ATOM     12  C   LIG d   1      -6.295  81.299 117.881  0.00  0.00     0.006 C 
ENDBRANCH   8  11
ENDBRANCH   7   8
ENDBRANCH   1   7
BRANCH   6  13
ATOM     13  N   LIG d   1      -2.307  77.864 114.951  0.00  0.00    -0.311 N 
ATOM     14  C   LIG d   1      -3.017  76.888 114.388  0.00  0.00     0.210 C 
ATOM     15  C   LIG d   1      -2.624  75.471 114.817  0.00  0.00     0.109 C 
ATOM     16  O   LIG d   1      -3.915  77.060 113.549  0.00  0.00    -0.276 OA
ATOM     17  H   LIG d   1      -1.576  77.633 115.595  0.00  0.00     0.149 HD
ENDBRANCH   6  13
BRANCH   5  18
ATOM     18  N   LIG d   1      -0.817  79.516 112.856  0.00  0.00     0.381 N 
ATOM     19  H   LIG d   1      -1.454  79.802 112.139  0.00  0.00    -0.090 HD
ATOM     20  H   LIG d   1      -0.805  78.511 112.884  0.00  0.00    -0.090 HD
ATOM     21  H   LIG d   1       0.096  79.861 112.656  0.00  0.00    -0.090 HD
ENDBRANCH   5  18
BRANCH   3  22
ATOM     22  C   LIG d   1      -1.901  83.433 115.389  0.00  0.00     0.382 C 
ATOM     23  O   LIG d   1      -2.354  84.308 114.612  0.00  0.00    -0.241 OA
ATOM     24  O   LIG d   1      -1.194  83.779 116.355  0.00  0.00    -0.241 OA
ENDBRANCH   3  22
TORSDOF 7
ENDMDL
MODEL 7
REMARK VINA RESULT:      -4.4      2.866      6.756
REMARK  7 active torsions:
REMARK  status: ('A' for Active; 'I' for Inactive)
REMARK    1  A    between atoms: C_2  and  C_3 
REMARK    2  A    between atoms: C_3  and  O_6 
REMARK    3  A    between atoms: C_3  and  C_4 
REMARK    4  A    between atoms: C_7  and  O_6 
REMARK    5  A    between atoms: C_9  and  C_10 
REMARK    6  A    between atoms: N_15  and  C_14 
REMARK    7  A    between atoms: N_20  and  C_19 
REMARK       I    between atoms: C_22  and  N_20 
ROOT
ATOM      1  C   LIG d   1      -2.926  79.277 115.602  0.00  0.00     0.161 C 
ATOM      2  C   LIG d   1      -2.328  78.142 115.030  0.00  0.00     0.016 C 
ATOM      3  C   LIG d   1      -2.599  76.821 115.457  0.00  0.00     0.038 C 
ATOM      4  C   LIG d   1      -3.605  76.536 116.392  0.00  0.00     0.028 C 
ATOM      5  C   LIG d   1      -3.878  77.684 117.358  0.00  0.00    -0.047 C 
ATOM      6  C   LIG d   1      -4.109  78.979 116.547  0.00  0.00     0.091 C 
ENDROOT
BRANCH   1   7
ATOM      7  O   LIG d   1      -3.331  80.191 114.564  0.00  0.00    -0.368 OA
BRANCH   7   8
ATOM      8  C   LIG d   1      -2.422  81.285 114.287  0.00  0.00     0.119 C 
BRANCH   8   9
ATOM      9  C   LIG d   1      -2.981  82.540 114.984  0.00  0.00     0.028 C 
ATOM     10  C   LIG d   1      -2.200  82.900 116.259  0.00  0.00     0.006 C 
ENDBRANCH   8   9
BRANCH   8  11
ATOM     11  C   LIG d   1      -2.400  81.626 112.794  0.00  0.00     0.028 C 
ATOM     12  C   LIG d   1      -1.268  82.597 112.422  0.00  0.00     0.006 C 
ENDBRANCH   8  11
ENDBRANCH   7   8
ENDBRANCH   1   7
BRANCH   6  13
ATOM     13  N   LIG d   1      -4.299  80.167 117.418  0.00  0.00    -0.311 N 
ATOM     14  C   LIG d   1      -5.496  80.646 117.754  0.00  0.00     0.210 C 
ATOM     15  C   LIG d   1      -5.467  81.892 118.646  0.00  0.00     0.109 C 
ATOM     16  O   LIG d   1      -6.579  80.138 117.426  0.00  0.00    -0.276 OA
ATOM     17  H   LIG d   1      -3.474  80.623 117.755  0.00  0.00     0.149 HD
ENDBRANCH   6  13
BRANCH   5  18
ATOM     18  N   LIG d   1      -5.039  77.304 118.184  0.00  0.00     0.381 N 
ATOM     19  H   LIG d   1      -5.363  76.396 117.918  0.00  0.00    -0.090 HD
ATOM     20  H   LIG d   1      -5.781  77.963 118.024  0.00  0.00    -0.090 HD
ATOM     21  H   LIG d   1      -4.787  77.305 119.148  0.00  0.00    -0.090 HD
ENDBRANCH   5  18
BRANCH   3  22
ATOM     22  C   LIG d   1      -1.829  75.772 114.977  0.00  0.00     0.382 C 
ATOM     23  O   LIG d   1      -1.596  75.677 113.748  0.00  0.00    -0.241 OA
ATOM     24  O   LIG d   1      -1.403  74.895 115.752  0.00  0.00    -0.241 OA
ENDBRANCH   3  22
TORSDOF 7
ENDMDL
MODEL 8
REMARK VINA RESULT:      -4.4      3.981      6.163
REMARK  7 active torsions:
REMARK  status: ('A' for Active; 'I' for Inactive)
REMARK    1  A    between atoms: C_2  and  C_3 
REMARK    2  A    between atoms: C_3  and  O_6 
REMARK    3  A    between atoms: C_3  and  C_4 
REMARK    4  A    between atoms: C_7  and  O_6 
REMARK    5  A    between atoms: C_9  and  C_10 
REMARK    6  A    between atoms: N_15  and  C_14 
REMARK    7  A    between atoms: N_20  and  C_19 
REMARK       I    between atoms: C_22  and  N_20 
ROOT
ATOM      1  C   LIG d   1      -1.644  80.047 116.118  0.00  0.00     0.161 C 
ATOM      2  C   LIG d   1      -2.206  80.817 115.086  0.00  0.00     0.016 C 
ATOM      3  C   LIG d   1      -2.488  80.305 113.799  0.00  0.00     0.038 C 
ATOM      4  C   LIG d   1      -2.366  78.940 113.501  0.00  0.00     0.028 C 
ATOM      5  C   LIG d   1      -1.327  78.224 114.357  0.00  0.00    -0.047 C 
ATOM      6  C   LIG d   1      -1.607  78.529 115.846  0.00  0.00     0.091 C 
ENDROOT
BRANCH   1   7
ATOM      7  O   LIG d   1      -2.328  80.318 117.358  0.00  0.00    -0.368 OA
BRANCH   7   8
ATOM      8  C   LIG d   1      -3.040  81.577 117.431  0.00  0.00     0.119 C 
BRANCH   8   9
ATOM      9  C   LIG d   1      -2.340  82.444 118.496  0.00  0.00     0.028 C 
ATOM     10  C   LIG d   1      -1.141  83.220 117.925  0.00  0.00     0.006 C 
ENDBRANCH   8   9
BRANCH   8  11
ATOM     11  C   LIG d   1      -4.469  81.380 117.945  0.00  0.00     0.028 C 
ATOM     12  C   LIG d   1      -4.758  79.929 118.362  0.00  0.00     0.006 C 
ENDBRANCH   8  11
ENDBRANCH   7   8
ENDBRANCH   1   7
BRANCH   6  13
ATOM     13  N   LIG d   1      -0.586  77.935 116.748  0.00  0.00    -0.311 N 
ATOM     14  C   LIG d   1      -0.722  76.741 117.323  0.00  0.00     0.210 C 
ATOM     15  C   LIG d   1       0.439  76.326 118.232  0.00  0.00     0.109 C 
ATOM     16  O   LIG d   1      -1.678  75.973 117.140  0.00  0.00    -0.276 OA
ATOM     17  H   LIG d   1       0.236  78.477 116.926  0.00  0.00     0.149 HD
ENDBRANCH   6  13
BRANCH   5  18
ATOM     18  N   LIG d   1      -1.402  76.785 114.037  0.00  0.00     0.381 N 
ATOM     19  H   LIG d   1      -1.946  76.312 114.731  0.00  0.00    -0.090 HD
ATOM     20  H   LIG d   1      -0.473  76.401 114.050  0.00  0.00    -0.090 HD
ATOM     21  H   LIG d   1      -1.811  76.657 113.138  0.00  0.00    -0.090 HD
ENDBRANCH   5  18
BRANCH   3  22
ATOM     22  C   LIG d   1      -2.860  81.171 112.782  0.00  0.00     0.382 C 
ATOM     23  O   LIG d   1      -2.011  81.549 111.939  0.00  0.00    -0.241 OA
ATOM     24  O   LIG d   1      -4.023  81.613 112.722  0.00  0.00    -0.241 OA
ENDBRANCH   3  22
TORSDOF 7
ENDMDL
MODEL 9
REMARK VINA RESULT:      -4.3      3.603      4.899
REMARK  7 active torsions:
REMARK  status: ('A' for Active; 'I' for Inactive)
REMARK    1  A    between atoms: C_2  and  C_3 
REMARK    2  A    between atoms: C_3  and  O_6 
REMARK    3  A    between atoms: C_3  and  C_4 
REMARK    4  A    between atoms: C_7  and  O_6 
REMARK    5  A    between atoms: C_9  and  C_10 
REMARK    6  A    between atoms: N_15  and  C_14 
REMARK    7  A    between atoms: N_20  and  C_19 
REMARK       I    between atoms: C_22  and  N_20 
ROOT
ATOM      1  C   LIG d   1      -2.683  78.687 115.328  0.00  0.00     0.161 C 
ATOM      2  C   LIG d   1      -2.985  79.386 114.148  0.00  0.00     0.016 C 
ATOM      3  C   LIG d   1      -2.397  80.625 113.804  0.00  0.00     0.038 C 
ATOM      4  C   LIG d   1      -1.347  81.179 114.551  0.00  0.00     0.028 C 
ATOM      5  C   LIG d   1      -1.361  80.762 116.018  0.00  0.00    -0.047 C 
ATOM      6  C   LIG d   1      -1.459  79.222 116.101  0.00  0.00     0.091 C 
ENDROOT
BRANCH   1   7
ATOM      7  O   LIG d   1      -2.519  77.285 115.038  0.00  0.00    -0.368 OA
BRANCH   7   8
ATOM      8  C   LIG d   1      -3.615  76.421 115.428  0.00  0.00     0.119 C 
BRANCH   8   9
ATOM      9  C   LIG d   1      -3.052  75.374 116.409  0.00  0.00     0.028 C 
ATOM     10  C   LIG d   1      -1.592  75.003 116.098  0.00  0.00     0.006 C 
ENDBRANCH   8   9
BRANCH   8  11
ATOM     11  C   LIG d   1      -4.142  75.618 114.236  0.00  0.00     0.028 C 
ATOM     12  C   LIG d   1      -5.661  75.392 114.295  0.00  0.00     0.006 C 
ENDBRANCH   8  11
ENDBRANCH   7   8
ENDBRANCH   1   7
BRANCH   6  13
ATOM     13  N   LIG d   1      -1.563  78.735 117.501  0.00  0.00    -0.311 N 
ATOM     14  C   LIG d   1      -0.671  77.920 118.062  0.00  0.00     0.210 C 
ATOM     15  C   LIG d   1      -0.978  77.524 119.509  0.00  0.00     0.109 C 
ATOM     16  O   LIG d   1       0.362  77.513 117.509  0.00  0.00    -0.276 OA
ATOM     17  H   LIG d   1      -2.354  79.041 118.033  0.00  0.00     0.149 HD
ENDBRANCH   6  13
BRANCH   5  18
ATOM     18  N   LIG d   1      -0.138  81.299 116.645  0.00  0.00     0.381 N 
ATOM     19  H   LIG d   1      -0.023  80.902 117.556  0.00  0.00    -0.090 HD
ATOM     20  H   LIG d   1      -0.234  82.294 116.744  0.00  0.00    -0.090 HD
ATOM     21  H   LIG d   1       0.655  81.088 116.081  0.00  0.00    -0.090 HD
ENDBRANCH   5  18
BRANCH   3  22
ATOM     22  C   LIG d   1      -2.887  81.342 112.723  0.00  0.00     0.382 C 
ATOM     23  O   LIG d   1      -2.092  81.845 111.893  0.00  0.00    -0.241 OA
ATOM     24  O   LIG d   1      -4.111  81.530 112.593  0.00  0.00    -0.241 OA
ENDBRANCH   3  22
TORSDOF 7
ENDMDL
