MODEL 1
REMARK VINA RESULT:      -5.4      0.000      0.000
REMARK  7 active torsions:
REMARK  status: ('A' for Active; 'I' for Inactive)
REMARK    1  A    between atoms: C_2  and  C_3 
REMARK    2  A    between atoms: C_3  and  O_6 
REMARK    3  A    between atoms: C_3  and  C_4 
REMARK    4  A    between atoms: C_7  and  O_6 
REMARK    5  A    between atoms: C_9  and  C_10 
REMARK    6  A    between atoms: N_15  and  C_14 
REMARK    7  A    between atoms: N_20  and  C_19 
REMARK       I    between atoms: C_22  and  N_20 
ROOT
ATOM      1  C   LIG d   1      -1.390  79.776 115.468  0.00  0.00     0.161 C 
ATOM      2  C   LIG d   1      -1.658  81.121 115.165  0.00  0.00     0.016 C 
ATOM      3  C   LIG d   1      -2.004  81.573 113.871  0.00  0.00     0.038 C 
ATOM      4  C   LIG d   1      -2.254  80.683 112.817  0.00  0.00     0.028 C 
ATOM      5  C   LIG d   1      -1.505  79.361 112.949  0.00  0.00    -0.047 C 
ATOM      6  C   LIG d   1      -1.767  78.775 114.356  0.00  0.00     0.091 C 
ENDROOT
BRANCH   1   7
ATOM      7  O   LIG d   1      -2.036  79.416 116.706  0.00  0.00    -0.368 OA
BRANCH   7   8
ATOM      8  C   LIG d   1      -3.100  80.293 117.148  0.00  0.00     0.119 C 
BRANCH   8   9
ATOM      9  C   LIG d   1      -2.904  80.534 118.658  0.00  0.00     0.028 C 
ATOM     10  C   LIG d   1      -1.521  81.125 118.982  0.00  0.00     0.006 C 
ENDBRANCH   8   9
BRANCH   8  11
ATOM     11  C   LIG d   1      -4.469  79.618 117.020  0.00  0.00     0.028 C 
ATOM     12  C   LIG d   1      -5.619  80.500 117.532  0.00  0.00     0.006 C 
ENDBRANCH   8  11
ENDBRANCH   7   8
ENDBRANCH   1   7
BRANCH   6  13
ATOM     13  N   LIG d   1      -1.003  77.524 114.599  0.00  0.00    -0.311 N 
ATOM     14  C   LIG d   1      -1.511  76.307 114.413  0.00  0.00     0.210 C 
ATOM     15  C   LIG d   1      -0.561  75.151 114.742  0.00  0.00     0.109 C 
ATOM     16  O   LIG d   1      -2.648  76.074 113.975  0.00  0.00    -0.276 OA
ATOM     17  H   LIG d   1      -0.062  77.620 114.926  0.00  0.00     0.149 HD
ENDBRANCH   6  13
BRANCH   5  18
ATOM     18  N   LIG d   1      -1.963  78.478 111.860  0.00  0.00     0.381 N 
ATOM     19  H   LIG d   1      -2.023  78.996 111.007  0.00  0.00    -0.090 HD
ATOM     20  H   LIG d   1      -2.880  78.134 112.085  0.00  0.00    -0.090 HD
ATOM     21  H   LIG d   1      -1.332  77.715 111.752  0.00  0.00    -0.090 HD
ENDBRANCH   5  18
BRANCH   3  22
ATOM     22  C   LIG d   1      -2.064  82.934 113.612  0.00  0.00     0.382 C 
ATOM     23  O   LIG d   1      -1.661  83.381 112.511  0.00  0.00    -0.241 OA
ATOM     24  O   LIG d   1      -2.474  83.726 114.482  0.00  0.00    -0.241 OA
ENDBRANCH   3  22
TORSDOF 7
ENDMDL
MODEL 2
REMARK VINA RESULT:      -5.4      0.951      1.560
REMARK  7 active torsions:
REMARK  status: ('A' for Active; 'I' for Inactive)
REMARK    1  A    between atoms: C_2  and  C_3 
REMARK    2  A    between atoms: C_3  and  O_6 
REMARK    3  A    between atoms: C_3  and  C_4 
REMARK    4  A    between atoms: C_7  and  O_6 
REMARK    5  A    between atoms: C_9  and  C_10 
REMARK    6  A    between atoms: N_15  and  C_14 
REMARK    7  A    between atoms: N_20  and  C_19 
REMARK       I    between atoms: C_22  and  N_20 
ROOT
ATOM      1  C   LIG d   1      -1.616  79.590 115.444  0.00  0.00     0.161 C 
ATOM      2  C   LIG d   1      -1.899  80.947 115.217  0.00  0.00     0.016 C 
ATOM      3  C   LIG d   1      -2.142  81.488 113.933  0.00  0.00     0.038 C 
ATOM      4  C   LIG d   1      -2.268  80.673 112.798  0.00  0.00     0.028 C 
ATOM      5  C   LIG d   1      -1.491  79.365 112.902  0.00  0.00    -0.047 C 
ATOM      6  C   LIG d   1      -1.859  78.667 114.231  0.00  0.00     0.091 C 
ENDROOT
BRANCH   1   7
ATOM      7  O   LIG d   1      -2.358  79.121 116.587  0.00  0.00    -0.368 OA
BRANCH   7   8
ATOM      8  C   LIG d   1      -3.771  78.883 116.376  0.00  0.00     0.119 C 
BRANCH   8   9
ATOM      9  C   LIG d   1      -4.545  79.904 117.233  0.00  0.00     0.028 C 
ATOM     10  C   LIG d   1      -3.716  80.424 118.418  0.00  0.00     0.006 C 
ENDBRANCH   8   9
BRANCH   8  11
ATOM     11  C   LIG d   1      -4.190  77.509 116.905  0.00  0.00     0.028 C 
ATOM     12  C   LIG d   1      -3.065  76.797 117.673  0.00  0.00     0.006 C 
ENDBRANCH   8  11
ENDBRANCH   7   8
ENDBRANCH   1   7
BRANCH   6  13
ATOM     13  N   LIG d   1      -1.080  77.421 114.452  0.00  0.00    -0.311 N 
ATOM     14  C   LIG d   1      -1.610  76.202 114.369  0.00  0.00     0.210 C 
ATOM     15  C   LIG d   1      -0.636  75.053 114.652  0.00  0.00     0.109 C 
ATOM     16  O   LIG d   1      -2.786  75.961 114.057  0.00  0.00    -0.276 OA
ATOM     17  H   LIG d   1      -0.111  77.523 114.679  0.00  0.00     0.149 HD
ENDBRANCH   6  13
BRANCH   5  18
ATOM     18  N   LIG d   1      -1.821  78.555 111.714  0.00  0.00     0.381 N 
ATOM     19  H   LIG d   1      -2.638  78.007 111.894  0.00  0.00    -0.090 HD
ATOM     20  H   LIG d   1      -1.057  77.931 111.523  0.00  0.00    -0.090 HD
ATOM     21  H   LIG d   1      -1.978  79.149 110.929  0.00  0.00    -0.090 HD
ENDBRANCH   5  18
BRANCH   3  22
ATOM     22  C   LIG d   1      -2.221  82.862 113.770  0.00  0.00     0.382 C 
ATOM     23  O   LIG d   1      -2.814  83.562 114.626  0.00  0.00    -0.241 OA
ATOM     24  O   LIG d   1      -1.746  83.407 112.755  0.00  0.00    -0.241 OA
ENDBRANCH   3  22
TORSDOF 7
ENDMDL
MODEL 3
REMARK VINA RESULT:      -5.2      4.629      6.723
REMARK  7 active torsions:
REMARK  status: ('A' for Active; 'I' for Inactive)
REMARK    1  A    between atoms: C_2  and  C_3 
REMARK    2  A    between atoms: C_3  and  O_6 
REMARK    3  A    between atoms: C_3  and  C_4 
REMARK    4  A    between atoms: C_7  and  O_6 
REMARK    5  A    between atoms: C_9  and  C_10 
REMARK    6  A    between atoms: N_15  and  C_14 
REMARK    7  A    between atoms: N_20  and  C_19 
REMARK       I    between atoms: C_22  and  N_20 
ROOT
ATOM      1  C   LIG d   1      -6.716  77.509 117.767  0.00  0.00     0.161 C 
ATOM      2  C   LIG d   1      -7.866  78.225 118.139  0.00  0.00     0.016 C 
ATOM      3  C   LIG d   1      -7.928  79.637 118.170  0.00  0.00     0.038 C 
ATOM      4  C   LIG d   1      -6.882  80.435 117.682  0.00  0.00     0.028 C 
ATOM      5  C   LIG d   1      -5.516  79.764 117.771  0.00  0.00    -0.047 C 
ATOM      6  C   LIG d   1      -5.602  78.362 117.125  0.00  0.00     0.091 C 
ENDROOT
BRANCH   1   7
ATOM      7  O   LIG d   1      -7.079  76.421 116.894  0.00  0.00    -0.368 OA
BRANCH   7   8
ATOM      8  C   LIG d   1      -6.903  75.087 117.431  0.00  0.00     0.119 C 
BRANCH   8   9
ATOM      9  C   LIG d   1      -5.917  74.343 116.509  0.00  0.00     0.028 C 
ATOM     10  C   LIG d   1      -5.856  74.955 115.099  0.00  0.00     0.006 C 
ENDBRANCH   8   9
BRANCH   8  11
ATOM     11  C   LIG d   1      -8.205  74.283 117.364  0.00  0.00     0.028 C 
ATOM     12  C   LIG d   1      -9.303  74.992 116.557  0.00  0.00     0.006 C 
ENDBRANCH   8  11
ENDBRANCH   7   8
ENDBRANCH   1   7
BRANCH   6  13
ATOM     13  N   LIG d   1      -4.330  77.604 117.244  0.00  0.00    -0.311 N 
ATOM     14  C   LIG d   1      -3.430  77.524 116.266  0.00  0.00     0.210 C 
ATOM     15  C   LIG d   1      -2.197  76.674 116.589  0.00  0.00     0.109 C 
ATOM     16  O   LIG d   1      -3.521  78.101 115.172  0.00  0.00    -0.276 OA
ATOM     17  H   LIG d   1      -4.160  77.130 118.110  0.00  0.00     0.149 HD
ENDBRANCH   6  13
BRANCH   5  18
ATOM     18  N   LIG d   1      -4.541  80.648 117.104  0.00  0.00     0.381 N 
ATOM     19  H   LIG d   1      -4.725  81.601 117.349  0.00  0.00    -0.090 HD
ATOM     20  H   LIG d   1      -4.643  80.553 116.109  0.00  0.00    -0.090 HD
ATOM     21  H   LIG d   1      -3.615  80.401 117.375  0.00  0.00    -0.090 HD
ENDBRANCH   5  18
BRANCH   3  22
ATOM     22  C   LIG d   1      -9.030  80.265 118.731  0.00  0.00     0.382 C 
ATOM     23  O   LIG d   1      -9.982  79.580 119.176  0.00  0.00    -0.241 OA
ATOM     24  O   LIG d   1      -9.103  81.508 118.756  0.00  0.00    -0.241 OA
ENDBRANCH   3  22
TORSDOF 7
ENDMDL
MODEL 4
REMARK VINA RESULT:      -4.9      2.659      5.131
REMARK  7 active torsions:
REMARK  status: ('A' for Active; 'I' for Inactive)
REMARK    1  A    between atoms: C_2  and  C_3 
REMARK    2  A    between atoms: C_3  and  O_6 
REMARK    3  A    between atoms: C_3  and  C_4 
REMARK    4  A    between atoms: C_7  and  O_6 
REMARK    5  A    between atoms: C_9  and  C_10 
REMARK    6  A    between atoms: N_15  and  C_14 
REMARK    7  A    between atoms: N_20  and  C_19 
REMARK       I    between atoms: C_22  and  N_20 
ROOT
ATOM      1  C   LIG d   1      -2.666  78.066 115.890  0.00  0.00     0.161 C 
ATOM      2  C   LIG d   1      -2.635  77.830 114.506  0.00  0.00     0.016 C 
ATOM      3  C   LIG d   1      -2.603  78.863 113.541  0.00  0.00     0.038 C 
ATOM      4  C   LIG d   1      -2.448  80.210 113.901  0.00  0.00     0.028 C 
ATOM      5  C   LIG d   1      -2.983  80.530 115.293  0.00  0.00    -0.047 C 
ATOM      6  C   LIG d   1      -2.385  79.526 116.304  0.00  0.00     0.091 C 
ENDROOT
BRANCH   1   7
ATOM      7  O   LIG d   1      -1.755  77.171 116.559  0.00  0.00    -0.368 OA
BRANCH   7   8
ATOM      8  C   LIG d   1      -1.866  75.770 116.208  0.00  0.00     0.119 C 
BRANCH   8   9
ATOM      9  C   LIG d   1      -2.570  75.054 117.377  0.00  0.00     0.028 C 
ATOM     10  C   LIG d   1      -1.595  74.666 118.501  0.00  0.00     0.006 C 
ENDBRANCH   8   9
BRANCH   8  11
ATOM     11  C   LIG d   1      -0.487  75.112 116.101  0.00  0.00     0.028 C 
ATOM     12  C   LIG d   1      -0.110  74.750 114.656  0.00  0.00     0.006 C 
ENDBRANCH   8  11
ENDBRANCH   7   8
ENDBRANCH   1   7
BRANCH   6  13
ATOM     13  N   LIG d   1      -2.922  79.715 117.677  0.00  0.00    -0.311 N 
ATOM     14  C   LIG d   1      -2.383  80.547 118.566  0.00  0.00     0.210 C 
ATOM     15  C   LIG d   1      -3.081  80.577 119.930  0.00  0.00     0.109 C 
ATOM     16  O   LIG d   1      -1.413  81.288 118.345  0.00  0.00    -0.276 OA
ATOM     17  H   LIG d   1      -3.727  79.177 117.930  0.00  0.00     0.149 HD
ENDBRANCH   6  13
BRANCH   5  18
ATOM     18  N   LIG d   1      -2.633  81.931 115.593  0.00  0.00     0.381 N 
ATOM     19  H   LIG d   1      -3.382  82.534 115.317  0.00  0.00    -0.090 HD
ATOM     20  H   LIG d   1      -1.815  82.182 115.067  0.00  0.00    -0.090 HD
ATOM     21  H   LIG d   1      -2.455  82.037 116.568  0.00  0.00    -0.090 HD
ENDBRANCH   5  18
BRANCH   3  22
ATOM     22  C   LIG d   1      -2.769  78.555 112.199  0.00  0.00     0.382 C 
ATOM     23  O   LIG d   1      -2.058  79.122 111.334  0.00  0.00    -0.241 OA
ATOM     24  O   LIG d   1      -3.649  77.751 111.839  0.00  0.00    -0.241 OA
ENDBRANCH   3  22
TORSDOF 7
ENDMDL
MODEL 5
REMARK VINA RESULT:      -4.9      3.628      5.135
REMARK  7 active torsions:
REMARK  status: ('A' for Active; 'I' for Inactive)
REMARK    1  A    between atoms: C_2  and  C_3 
REMARK    2  A    between atoms: C_3  and  O_6 
REMARK    3  A    between atoms: C_3  and  C_4 
REMARK    4  A    between atoms: C_7  and  O_6 
REMARK    5  A    between atoms: C_9  and  C_10 
REMARK    6  A    between atoms: N_15  and  C_14 
REMARK    7  A    between atoms: N_20  and  C_19 
REMARK       I    between atoms: C_22  and  N_20 
ROOT
ATOM      1  C   LIG d   1      -3.036  75.937 116.568  0.00  0.00     0.161 C 
ATOM      2  C   LIG d   1      -3.293  76.812 115.500  0.00  0.00     0.016 C 
ATOM      3  C   LIG d   1      -2.394  77.018 114.429  0.00  0.00     0.038 C 
ATOM      4  C   LIG d   1      -1.235  76.243 114.275  0.00  0.00     0.028 C 
ATOM      5  C   LIG d   1      -0.686  75.705 115.592  0.00  0.00    -0.047 C 
ATOM      6  C   LIG d   1      -1.827  75.000 116.361  0.00  0.00     0.091 C 
ENDROOT
BRANCH   1   7
ATOM      7  O   LIG d   1      -4.219  75.169 116.866  0.00  0.00    -0.368 OA
BRANCH   7   8
ATOM      8  C   LIG d   1      -5.448  75.626 116.249  0.00  0.00     0.119 C 
BRANCH   8   9
ATOM      9  C   LIG d   1      -6.370  76.133 117.374  0.00  0.00     0.028 C 
ATOM     10  C   LIG d   1      -6.436  77.669 117.432  0.00  0.00     0.006 C 
ENDBRANCH   8   9
BRANCH   8  11
ATOM     11  C   LIG d   1      -6.206  74.468 115.594  0.00  0.00     0.028 C 
ATOM     12  C   LIG d   1      -7.685  74.413 116.011  0.00  0.00     0.006 C 
ENDBRANCH   8  11
ENDBRANCH   7   8
ENDBRANCH   1   7
BRANCH   6  13
ATOM     13  N   LIG d   1      -1.397  74.518 117.699  0.00  0.00    -0.311 N 
ATOM     14  C   LIG d   1      -0.860  75.310 118.625  0.00  0.00     0.210 C 
ATOM     15  C   LIG d   1      -0.468  74.607 119.929  0.00  0.00     0.109 C 
ATOM     16  O   LIG d   1      -0.701  76.534 118.504  0.00  0.00    -0.276 OA
ATOM     17  H   LIG d   1      -1.518  73.544 117.894  0.00  0.00     0.149 HD
ENDBRANCH   6  13
BRANCH   5  18
ATOM     18  N   LIG d   1       0.438  74.805 115.273  0.00  0.00     0.381 N 
ATOM     19  H   LIG d   1       0.701  74.918 114.314  0.00  0.00    -0.090 HD
ATOM     20  H   LIG d   1       0.141  73.854 115.408  0.00  0.00    -0.090 HD
ATOM     21  H   LIG d   1       1.214  75.005 115.864  0.00  0.00    -0.090 HD
ENDBRANCH   5  18
BRANCH   3  22
ATOM     22  C   LIG d   1      -2.631  78.036 113.518  0.00  0.00     0.382 C 
ATOM     23  O   LIG d   1      -3.270  79.056 113.871  0.00  0.00    -0.241 OA
ATOM     24  O   LIG d   1      -2.252  77.928 112.337  0.00  0.00    -0.241 OA
ENDBRANCH   3  22
TORSDOF 7
ENDMDL
MODEL 6
REMARK VINA RESULT:      -4.9      2.147      4.784
REMARK  7 active torsions:
REMARK  status: ('A' for Active; 'I' for Inactive)
REMARK    1  A    between atoms: C_2  and  C_3 
REMARK    2  A    between atoms: C_3  and  O_6 
REMARK    3  A    between atoms: C_3  and  C_4 
REMARK    4  A    between atoms: C_7  and  O_6 
REMARK    5  A    between atoms: C_9  and  C_10 
REMARK    6  A    between atoms: N_15  and  C_14 
REMARK    7  A    between atoms: N_20  and  C_19 
REMARK       I    between atoms: C_22  and  N_20 
ROOT
ATOM      1  C   LIG d   1      -2.122  79.790 114.885  0.00  0.00     0.161 C 
ATOM      2  C   LIG d   1      -2.583  78.497 115.183  0.00  0.00     0.016 C 
ATOM      3  C   LIG d   1      -2.706  77.472 114.217  0.00  0.00     0.038 C 
ATOM      4  C   LIG d   1      -2.229  77.628 112.907  0.00  0.00     0.028 C 
ATOM      5  C   LIG d   1      -2.222  79.078 112.433  0.00  0.00    -0.047 C 
ATOM      6  C   LIG d   1      -1.493  79.945 113.485  0.00  0.00     0.091 C 
ENDROOT
BRANCH   1   7
ATOM      7  O   LIG d   1      -1.197  80.225 115.901  0.00  0.00    -0.368 OA
BRANCH   7   8
ATOM      8  C   LIG d   1      -1.575  81.411 116.642  0.00  0.00     0.119 C 
BRANCH   8   9
ATOM      9  C   LIG d   1      -0.277  82.098 117.110  0.00  0.00     0.028 C 
ATOM     10  C   LIG d   1       0.415  82.877 115.978  0.00  0.00     0.006 C 
ENDBRANCH   8   9
BRANCH   8  11
ATOM     11  C   LIG d   1      -2.327  81.050 117.926  0.00  0.00     0.028 C 
ATOM     12  C   LIG d   1      -1.391  80.845 119.128  0.00  0.00     0.006 C 
ENDBRANCH   8  11
ENDBRANCH   7   8
ENDBRANCH   1   7
BRANCH   6  13
ATOM     13  N   LIG d   1      -1.513  81.391 113.140  0.00  0.00    -0.311 N 
ATOM     14  C   LIG d   1      -0.551  81.992 112.443  0.00  0.00     0.210 C 
ATOM     15  C   LIG d   1      -0.759  83.493 112.215  0.00  0.00     0.109 C 
ATOM     16  O   LIG d   1       0.439  81.419 111.963  0.00  0.00    -0.276 OA
ATOM     17  H   LIG d   1      -2.296  81.925 113.463  0.00  0.00     0.149 HD
ENDBRANCH   6  13
BRANCH   5  18
ATOM     18  N   LIG d   1      -1.574  79.110 111.108  0.00  0.00     0.381 N 
ATOM     19  H   LIG d   1      -1.023  79.940 111.021  0.00  0.00    -0.090 HD
ATOM     20  H   LIG d   1      -2.286  79.129 110.399  0.00  0.00    -0.090 HD
ATOM     21  H   LIG d   1      -0.999  78.306 110.990  0.00  0.00    -0.090 HD
ENDBRANCH   5  18
BRANCH   3  22
ATOM     22  C   LIG d   1      -3.348  76.289 114.548  0.00  0.00     0.382 C 
ATOM     23  O   LIG d   1      -3.150  75.760 115.668  0.00  0.00    -0.241 OA
ATOM     24  O   LIG d   1      -4.088  75.720 113.723  0.00  0.00    -0.241 OA
ENDBRANCH   3  22
TORSDOF 7
ENDMDL
MODEL 7
REMARK VINA RESULT:      -4.8      4.367      6.094
REMARK  7 active torsions:
REMARK  status: ('A' for Active; 'I' for Inactive)
REMARK    1  A    between atoms: C_2  and  C_3 
REMARK    2  A    between atoms: C_3  and  O_6 
REMARK    3  A    between atoms: C_3  and  C_4 
REMARK    4  A    between atoms: C_7  and  O_6 
REMARK    5  A    between atoms: C_9  and  C_10 
REMARK    6  A    between atoms: N_15  and  C_14 
REMARK    7  A    between atoms: N_20  and  C_19 
REMARK       I    between atoms: C_22  and  N_20 
ROOT
ATOM      1  C   LIG d   1      -5.535  76.886 118.469  0.00  0.00     0.161 C 
ATOM      2  C   LIG d   1      -6.447  77.945 118.330  0.00  0.00     0.016 C 
ATOM      3  C   LIG d   1      -6.089  79.221 117.837  0.00  0.00     0.038 C 
ATOM      4  C   LIG d   1      -4.818  79.479 117.303  0.00  0.00     0.028 C 
ATOM      5  C   LIG d   1      -3.724  78.592 117.888  0.00  0.00    -0.047 C 
ATOM      6  C   LIG d   1      -4.169  77.115 117.789  0.00  0.00     0.091 C 
ENDROOT
BRANCH   1   7
ATOM      7  O   LIG d   1      -6.132  75.662 117.996  0.00  0.00    -0.368 OA
BRANCH   7   8
ATOM      8  C   LIG d   1      -7.561  75.698 117.763  0.00  0.00     0.119 C 
BRANCH   8   9
ATOM      9  C   LIG d   1      -8.222  74.766 118.796  0.00  0.00     0.028 C 
ATOM     10  C   LIG d   1      -9.226  75.505 119.697  0.00  0.00     0.006 C 
ENDBRANCH   8   9
BRANCH   8  11
ATOM     11  C   LIG d   1      -7.918  75.107 116.396  0.00  0.00     0.028 C 
ATOM     12  C   LIG d   1      -6.733  75.112 115.417  0.00  0.00     0.006 C 
ENDBRANCH   8  11
ENDBRANCH   7   8
ENDBRANCH   1   7
BRANCH   6  13
ATOM     13  N   LIG d   1      -3.193  76.185 118.415  0.00  0.00    -0.311 N 
ATOM     14  C   LIG d   1      -2.405  75.371 117.716  0.00  0.00     0.210 C 
ATOM     15  C   LIG d   1      -1.486  74.480 118.558  0.00  0.00     0.109 C 
ATOM     16  O   LIG d   1      -2.355  75.325 116.477  0.00  0.00    -0.276 OA
ATOM     17  H   LIG d   1      -3.145  76.180 119.415  0.00  0.00     0.149 HD
ENDBRANCH   6  13
BRANCH   5  18
ATOM     18  N   LIG d   1      -2.480  78.871 117.146  0.00  0.00     0.381 N 
ATOM     19  H   LIG d   1      -2.003  79.645 117.565  0.00  0.00    -0.090 HD
ATOM     20  H   LIG d   1      -2.713  79.119 116.201  0.00  0.00    -0.090 HD
ATOM     21  H   LIG d   1      -1.891  78.067 117.152  0.00  0.00    -0.090 HD
ENDBRANCH   5  18
BRANCH   3  22
ATOM     22  C   LIG d   1      -6.997  80.266 117.911  0.00  0.00     0.382 C 
ATOM     23  O   LIG d   1      -6.746  81.265 118.626  0.00  0.00    -0.241 OA
ATOM     24  O   LIG d   1      -8.084  80.203 117.306  0.00  0.00    -0.241 OA
ENDBRANCH   3  22
TORSDOF 7
ENDMDL
MODEL 8
REMARK VINA RESULT:      -4.7      3.241      4.874
REMARK  7 active torsions:
REMARK  status: ('A' for Active; 'I' for Inactive)
REMARK    1  A    between atoms: C_2  and  C_3 
REMARK    2  A    between atoms: C_3  and  O_6 
REMARK    3  A    between atoms: C_3  and  C_4 
REMARK    4  A    between atoms: C_7  and  O_6 
REMARK    5  A    between atoms: C_9  and  C_10 
REMARK    6  A    between atoms: N_15  and  C_14 
REMARK    7  A    between atoms: N_20  and  C_19 
REMARK       I    between atoms: C_22  and  N_20 
ROOT
ATOM      1  C   LIG d   1      -3.767  76.730 117.152  0.00  0.00     0.161 C 
ATOM      2  C   LIG d   1      -4.645  77.756 117.540  0.00  0.00     0.016 C 
ATOM      3  C   LIG d   1      -4.557  79.080 117.054  0.00  0.00     0.038 C 
ATOM      4  C   LIG d   1      -3.673  79.435 116.024  0.00  0.00     0.028 C 
ATOM      5  C   LIG d   1      -2.430  78.554 115.963  0.00  0.00    -0.047 C 
ATOM      6  C   LIG d   1      -2.866  77.071 115.947  0.00  0.00     0.091 C 
ENDROOT
BRANCH   1   7
ATOM      7  O   LIG d   1      -4.510  75.522 116.896  0.00  0.00    -0.368 OA
BRANCH   7   8
ATOM      8  C   LIG d   1      -5.829  75.694 116.320  0.00  0.00     0.119 C 
BRANCH   8   9
ATOM      9  C   LIG d   1      -6.846  75.082 117.303  0.00  0.00     0.028 C 
ATOM     10  C   LIG d   1      -8.171  75.863 117.337  0.00  0.00     0.006 C 
ENDBRANCH   8   9
BRANCH   8  11
ATOM     11  C   LIG d   1      -5.982  74.890 115.026  0.00  0.00     0.028 C 
ATOM     12  C   LIG d   1      -4.962  75.295 113.950  0.00  0.00     0.006 C 
ENDBRANCH   8  11
ENDBRANCH   7   8
ENDBRANCH   1   7
BRANCH   6  13
ATOM     13  N   LIG d   1      -1.709  76.139 115.972  0.00  0.00    -0.311 N 
ATOM     14  C   LIG d   1      -1.127  75.663 114.873  0.00  0.00     0.210 C 
ATOM     15  C   LIG d   1       0.038  74.700 115.124  0.00  0.00     0.109 C 
ATOM     16  O   LIG d   1      -1.443  75.972 113.715  0.00  0.00    -0.276 OA
ATOM     17  H   LIG d   1      -1.367  75.861 116.871  0.00  0.00     0.149 HD
ENDBRANCH   6  13
BRANCH   5  18
ATOM     18  N   LIG d   1      -1.665  78.945 114.764  0.00  0.00     0.381 N 
ATOM     19  H   LIG d   1      -0.729  78.598 114.832  0.00  0.00    -0.090 HD
ATOM     20  H   LIG d   1      -1.627  79.948 114.715  0.00  0.00    -0.090 HD
ATOM     21  H   LIG d   1      -2.103  78.581 113.947  0.00  0.00    -0.090 HD
ENDBRANCH   5  18
BRANCH   3  22
ATOM     22  C   LIG d   1      -5.334  80.076 117.627  0.00  0.00     0.382 C 
ATOM     23  O   LIG d   1      -6.428  80.398 117.103  0.00  0.00    -0.241 OA
ATOM     24  O   LIG d   1      -4.934  80.687 118.636  0.00  0.00    -0.241 OA
ENDBRANCH   3  22
TORSDOF 7
ENDMDL
MODEL 9
REMARK VINA RESULT:      -4.7      4.178      6.835
REMARK  7 active torsions:
REMARK  status: ('A' for Active; 'I' for Inactive)
REMARK    1  A    between atoms: C_2  and  C_3 
REMARK    2  A    between atoms: C_3  and  O_6 
REMARK    3  A    between atoms: C_3  and  C_4 
REMARK    4  A    between atoms: C_7  and  O_6 
REMARK    5  A    between atoms: C_9  and  C_10 
REMARK    6  A    between atoms: N_15  and  C_14 
REMARK    7  A    between atoms: N_20  and  C_19 
REMARK       I    between atoms: C_22  and  N_20 
ROOT
ATOM      1  C   LIG d   1      -5.304  76.474 116.931  0.00  0.00     0.161 C 
ATOM      2  C   LIG d   1      -4.180  75.800 116.423  0.00  0.00     0.016 C 
ATOM      3  C   LIG d   1      -2.967  76.447 116.094  0.00  0.00     0.038 C 
ATOM      4  C   LIG d   1      -2.743  77.799 116.394  0.00  0.00     0.028 C 
ATOM      5  C   LIG d   1      -4.022  78.629 116.440  0.00  0.00    -0.047 C 
ATOM      6  C   LIG d   1      -5.041  77.930 117.369  0.00  0.00     0.091 C 
ENDROOT
BRANCH   1   7
ATOM      7  O   LIG d   1      -5.876  75.719 118.017  0.00  0.00    -0.368 OA
BRANCH   7   8
ATOM      8  C   LIG d   1      -6.967  74.830 117.670  0.00  0.00     0.119 C 
BRANCH   8   9
ATOM      9  C   LIG d   1      -7.817  75.537 116.597  0.00  0.00     0.028 C 
ATOM     10  C   LIG d   1      -9.199  74.887 116.421  0.00  0.00     0.006 C 
ENDBRANCH   8   9
BRANCH   8  11
ATOM     11  C   LIG d   1      -7.909  74.615 118.858  0.00  0.00     0.028 C 
ATOM     12  C   LIG d   1      -7.789  75.718 119.922  0.00  0.00     0.006 C 
ENDBRANCH   8  11
ENDBRANCH   7   8
ENDBRANCH   1   7
BRANCH   6  13
ATOM     13  N   LIG d   1      -6.350  78.632 117.405  0.00  0.00    -0.311 N 
ATOM     14  C   LIG d   1      -6.915  79.073 118.528  0.00  0.00     0.210 C 
ATOM     15  C   LIG d   1      -8.275  79.752 118.344  0.00  0.00     0.109 C 
ATOM     16  O   LIG d   1      -6.403  78.996 119.655  0.00  0.00    -0.276 OA
ATOM     17  H   LIG d   1      -6.820  78.765 116.531  0.00  0.00     0.149 HD
ENDBRANCH   6  13
BRANCH   5  18
ATOM     18  N   LIG d   1      -3.658  79.984 116.898  0.00  0.00     0.381 N 
ATOM     19  H   LIG d   1      -4.212  80.234 117.692  0.00  0.00    -0.090 HD
ATOM     20  H   LIG d   1      -3.850  80.638 116.160  0.00  0.00    -0.090 HD
ATOM     21  H   LIG d   1      -2.691  80.014 117.136  0.00  0.00    -0.090 HD
ENDBRANCH   5  18
BRANCH   3  22
ATOM     22  C   LIG d   1      -1.977  75.749 115.420  0.00  0.00     0.382 C 
ATOM     23  O   LIG d   1      -1.100  75.125 116.065  0.00  0.00    -0.241 OA
ATOM     24  O   LIG d   1      -1.922  75.773 114.176  0.00  0.00    -0.241 OA
ENDBRANCH   3  22
TORSDOF 7
ENDMDL
