MODEL 1
REMARK VINA RESULT:      -5.6      0.000      0.000
REMARK  7 active torsions:
REMARK  status: ('A' for Active; 'I' for Inactive)
REMARK    1  A    between atoms: C_2  and  C_3 
REMARK    2  A    between atoms: C_3  and  O_6 
REMARK    3  A    between atoms: C_3  and  C_4 
REMARK    4  A    between atoms: C_7  and  O_6 
REMARK    5  A    between atoms: C_9  and  C_10 
REMARK    6  A    between atoms: N_15  and  C_14 
REMARK    7  A    between atoms: N_20  and  C_19 
REMARK       I    between atoms: C_22  and  N_20 
ROOT
ATOM      1  C   LIG d   1      -2.771  78.038 116.509  0.00  0.00     0.161 C 
ATOM      2  C   LIG d   1      -3.059  78.859 115.406  0.00  0.00     0.016 C 
ATOM      3  C   LIG d   1      -2.369  78.777 114.174  0.00  0.00     0.038 C 
ATOM      4  C   LIG d   1      -1.439  77.760 113.912  0.00  0.00     0.028 C 
ATOM      5  C   LIG d   1      -0.756  77.225 115.166  0.00  0.00    -0.047 C 
ATOM      6  C   LIG d   1      -1.837  76.849 116.205  0.00  0.00     0.091 C 
ENDROOT
BRANCH   1   7
ATOM      7  O   LIG d   1      -3.998  77.572 117.104  0.00  0.00    -0.368 OA
BRANCH   7   8
ATOM      8  C   LIG d   1      -5.166  77.579 116.246  0.00  0.00     0.119 C 
BRANCH   8   9
ATOM      9  C   LIG d   1      -6.374  77.986 117.111  0.00  0.00     0.028 C 
ATOM     10  C   LIG d   1      -7.423  76.866 117.218  0.00  0.00     0.006 C 
ENDBRANCH   8   9
BRANCH   8  11
ATOM     11  C   LIG d   1      -5.489  76.172 115.734  0.00  0.00     0.028 C 
ATOM     12  C   LIG d   1      -5.080  75.963 114.268  0.00  0.00     0.006 C 
ENDBRANCH   8  11
ENDBRANCH   7   8
ENDBRANCH   1   7
BRANCH   6  13
ATOM     13  N   LIG d   1      -1.251  76.396 117.493  0.00  0.00    -0.311 N 
ATOM     14  C   LIG d   1      -0.975  75.122 117.766  0.00  0.00     0.210 C 
ATOM     15  C   LIG d   1      -0.394  74.869 119.160  0.00  0.00     0.109 C 
ATOM     16  O   LIG d   1      -1.127  74.180 116.973  0.00  0.00    -0.276 OA
ATOM     17  H   LIG d   1      -1.067  77.098 118.183  0.00  0.00     0.149 HD
ENDBRANCH   6  13
BRANCH   5  18
ATOM     18  N   LIG d   1       0.082  76.080 114.763  0.00  0.00     0.381 N 
ATOM     19  H   LIG d   1      -0.365  75.576 114.023  0.00  0.00    -0.090 HD
ATOM     20  H   LIG d   1       0.187  75.461 115.548  0.00  0.00    -0.090 HD
ATOM     21  H   LIG d   1       0.976  76.400 114.462  0.00  0.00    -0.090 HD
ENDBRANCH   5  18
BRANCH   3  22
ATOM     22  C   LIG d   1      -2.578  79.745 113.204  0.00  0.00     0.382 C 
ATOM     23  O   LIG d   1      -2.047  79.624 112.073  0.00  0.00    -0.241 OA
ATOM     24  O   LIG d   1      -3.254  80.759 113.459  0.00  0.00    -0.241 OA
ENDBRANCH   3  22
TORSDOF 7
ENDMDL
MODEL 2
REMARK VINA RESULT:      -5.3      3.352      5.221
REMARK  7 active torsions:
REMARK  status: ('A' for Active; 'I' for Inactive)
REMARK    1  A    between atoms: C_2  and  C_3 
REMARK    2  A    between atoms: C_3  and  O_6 
REMARK    3  A    between atoms: C_3  and  C_4 
REMARK    4  A    between atoms: C_7  and  O_6 
REMARK    5  A    between atoms: C_9  and  C_10 
REMARK    6  A    between atoms: N_15  and  C_14 
REMARK    7  A    between atoms: N_20  and  C_19 
REMARK       I    between atoms: C_22  and  N_20 
ROOT
ATOM      1  C   LIG d   1      -6.726  77.583 117.264  0.00  0.00     0.161 C 
ATOM      2  C   LIG d   1      -6.581  76.841 116.080  0.00  0.00     0.016 C 
ATOM      3  C   LIG d   1      -5.336  76.616 115.450  0.00  0.00     0.038 C 
ATOM      4  C   LIG d   1      -4.124  76.993 116.048  0.00  0.00     0.028 C 
ATOM      5  C   LIG d   1      -4.258  78.185 116.990  0.00  0.00    -0.047 C 
ATOM      6  C   LIG d   1      -5.404  77.908 117.990  0.00  0.00     0.091 C 
ENDROOT
BRANCH   1   7
ATOM      7  O   LIG d   1      -7.635  76.908 118.155  0.00  0.00    -0.368 OA
BRANCH   7   8
ATOM      8  C   LIG d   1      -9.025  77.307 118.072  0.00  0.00     0.119 C 
BRANCH   8   9
ATOM      9  C   LIG d   1      -9.305  78.260 119.250  0.00  0.00     0.028 C 
ATOM     10  C   LIG d   1      -9.727  79.663 118.783  0.00  0.00     0.006 C 
ENDBRANCH   8   9
BRANCH   8  11
ATOM     11  C   LIG d   1      -9.962  76.114 118.284  0.00  0.00     0.028 C 
ATOM     12  C   LIG d   1      -9.683  74.958 117.310  0.00  0.00     0.006 C 
ENDBRANCH   8  11
ENDBRANCH   7   8
ENDBRANCH   1   7
BRANCH   6  13
ATOM     13  N   LIG d   1      -5.658  79.060 118.894  0.00  0.00    -0.311 N 
ATOM     14  C   LIG d   1      -6.089  80.245 118.467  0.00  0.00     0.210 C 
ATOM     15  C   LIG d   1      -6.267  81.301 119.562  0.00  0.00     0.109 C 
ATOM     16  O   LIG d   1      -6.371  80.514 117.289  0.00  0.00    -0.276 OA
ATOM     17  H   LIG d   1      -5.485  78.920 119.870  0.00  0.00     0.149 HD
ENDBRANCH   6  13
BRANCH   5  18
ATOM     18  N   LIG d   1      -2.953  78.383 117.647  0.00  0.00     0.381 N 
ATOM     19  H   LIG d   1      -2.999  79.170 118.263  0.00  0.00    -0.090 HD
ATOM     20  H   LIG d   1      -2.260  78.573 116.944  0.00  0.00    -0.090 HD
ATOM     21  H   LIG d   1      -2.701  77.566 118.159  0.00  0.00    -0.090 HD
ENDBRANCH   5  18
BRANCH   3  22
ATOM     22  C   LIG d   1      -5.297  76.042 114.189  0.00  0.00     0.382 C 
ATOM     23  O   LIG d   1      -5.645  76.709 113.185  0.00  0.00    -0.241 OA
ATOM     24  O   LIG d   1      -4.961  74.851 114.047  0.00  0.00    -0.241 OA
ENDBRANCH   3  22
TORSDOF 7
ENDMDL
MODEL 3
REMARK VINA RESULT:      -5.2      1.079      1.536
REMARK  7 active torsions:
REMARK  status: ('A' for Active; 'I' for Inactive)
REMARK    1  A    between atoms: C_2  and  C_3 
REMARK    2  A    between atoms: C_3  and  O_6 
REMARK    3  A    between atoms: C_3  and  C_4 
REMARK    4  A    between atoms: C_7  and  O_6 
REMARK    5  A    between atoms: C_9  and  C_10 
REMARK    6  A    between atoms: N_15  and  C_14 
REMARK    7  A    between atoms: N_20  and  C_19 
REMARK       I    between atoms: C_22  and  N_20 
ROOT
ATOM      1  C   LIG d   1      -2.899  78.174 116.180  0.00  0.00     0.161 C 
ATOM      2  C   LIG d   1      -3.070  79.090 115.128  0.00  0.00     0.016 C 
ATOM      3  C   LIG d   1      -2.324  79.044 113.928  0.00  0.00     0.038 C 
ATOM      4  C   LIG d   1      -1.456  77.982 113.634  0.00  0.00     0.028 C 
ATOM      5  C   LIG d   1      -0.879  77.310 114.875  0.00  0.00    -0.047 C 
ATOM      6  C   LIG d   1      -2.036  76.943 115.832  0.00  0.00     0.091 C 
ENDROOT
BRANCH   1   7
ATOM      7  O   LIG d   1      -4.185  77.760 116.680  0.00  0.00    -0.368 OA
BRANCH   7   8
ATOM      8  C   LIG d   1      -5.034  78.810 117.205  0.00  0.00     0.119 C 
BRANCH   8   9
ATOM      9  C   LIG d   1      -4.464  79.224 118.576  0.00  0.00     0.028 C 
ATOM     10  C   LIG d   1      -5.444  78.942 119.727  0.00  0.00     0.006 C 
ENDBRANCH   8   9
BRANCH   8  11
ATOM     11  C   LIG d   1      -6.447  78.294 117.492  0.00  0.00     0.028 C 
ATOM     12  C   LIG d   1      -6.713  76.911 116.876  0.00  0.00     0.006 C 
ENDBRANCH   8  11
ENDBRANCH   7   8
ENDBRANCH   1   7
BRANCH   6  13
ATOM     13  N   LIG d   1      -1.552  76.358 117.109  0.00  0.00    -0.311 N 
ATOM     14  C   LIG d   1      -1.383  75.050 117.299  0.00  0.00     0.210 C 
ATOM     15  C   LIG d   1      -0.895  74.658 118.697  0.00  0.00     0.109 C 
ATOM     16  O   LIG d   1      -1.561  74.181 116.432  0.00  0.00    -0.276 OA
ATOM     17  H   LIG d   1      -1.354  76.994 117.856  0.00  0.00     0.149 HD
ENDBRANCH   6  13
BRANCH   5  18
ATOM     18  N   LIG d   1      -0.104  76.137 114.428  0.00  0.00     0.381 N 
ATOM     19  H   LIG d   1       0.835  76.411 114.219  0.00  0.00    -0.090 HD
ATOM     20  H   LIG d   1      -0.521  75.773 113.589  0.00  0.00    -0.090 HD
ATOM     21  H   LIG d   1      -0.104  75.438 115.138  0.00  0.00    -0.090 HD
ENDBRANCH   5  18
BRANCH   3  22
ATOM     22  C   LIG d   1      -2.412  80.091 113.023  0.00  0.00     0.382 C 
ATOM     23  O   LIG d   1      -1.485  80.291 112.202  0.00  0.00    -0.241 OA
ATOM     24  O   LIG d   1      -3.388  80.866 113.047  0.00  0.00    -0.241 OA
ENDBRANCH   3  22
TORSDOF 7
ENDMDL
MODEL 4
REMARK VINA RESULT:      -5.1      4.070      7.430
REMARK  7 active torsions:
REMARK  status: ('A' for Active; 'I' for Inactive)
REMARK    1  A    between atoms: C_2  and  C_3 
REMARK    2  A    between atoms: C_3  and  O_6 
REMARK    3  A    between atoms: C_3  and  C_4 
REMARK    4  A    between atoms: C_7  and  O_6 
REMARK    5  A    between atoms: C_9  and  C_10 
REMARK    6  A    between atoms: N_15  and  C_14 
REMARK    7  A    between atoms: N_20  and  C_19 
REMARK       I    between atoms: C_22  and  N_20 
ROOT
ATOM      1  C   LIG d   1      -6.599  78.108 117.706  0.00  0.00     0.161 C 
ATOM      2  C   LIG d   1      -6.942  76.811 117.289  0.00  0.00     0.016 C 
ATOM      3  C   LIG d   1      -8.216  76.236 117.503  0.00  0.00     0.038 C 
ATOM      4  C   LIG d   1      -9.288  76.980 118.018  0.00  0.00     0.028 C 
ATOM      5  C   LIG d   1      -8.849  78.133 118.916  0.00  0.00    -0.047 C 
ATOM      6  C   LIG d   1      -7.788  78.974 118.170  0.00  0.00     0.091 C 
ENDROOT
BRANCH   1   7
ATOM      7  O   LIG d   1      -5.868  78.779 116.661  0.00  0.00    -0.368 OA
BRANCH   7   8
ATOM      8  C   LIG d   1      -4.476  79.068 116.941  0.00  0.00     0.119 C 
BRANCH   8   9
ATOM      9  C   LIG d   1      -3.623  78.132 116.063  0.00  0.00     0.028 C 
ATOM     10  C   LIG d   1      -2.900  78.884 114.933  0.00  0.00     0.006 C 
ENDBRANCH   8   9
BRANCH   8  11
ATOM     11  C   LIG d   1      -4.113  78.711 118.386  0.00  0.00     0.028 C 
ATOM     12  C   LIG d   1      -3.536  79.903 119.167  0.00  0.00     0.006 C 
ENDBRANCH   8  11
ENDBRANCH   7   8
ENDBRANCH   1   7
BRANCH   6  13
ATOM     13  N   LIG d   1      -7.244  80.073 119.009  0.00  0.00    -0.311 N 
ATOM     14  C   LIG d   1      -7.201  81.345 118.614  0.00  0.00     0.210 C 
ATOM     15  C   LIG d   1      -6.582  82.315 119.625  0.00  0.00     0.109 C 
ATOM     16  O   LIG d   1      -7.647  81.766 117.536  0.00  0.00    -0.276 OA
ATOM     17  H   LIG d   1      -6.890  79.825 119.912  0.00  0.00     0.149 HD
ENDBRANCH   6  13
BRANCH   5  18
ATOM     18  N   LIG d   1     -10.055  78.905 119.270  0.00  0.00     0.381 N 
ATOM     19  H   LIG d   1     -10.519  79.210 118.438  0.00  0.00    -0.090 HD
ATOM     20  H   LIG d   1      -9.778  79.718 119.792  0.00  0.00    -0.090 HD
ATOM     21  H   LIG d   1     -10.671  78.344 119.817  0.00  0.00    -0.090 HD
ENDBRANCH   5  18
BRANCH   3  22
ATOM     22  C   LIG d   1      -8.417  74.890 117.238  0.00  0.00     0.382 C 
ATOM     23  O   LIG d   1      -7.476  74.193 116.787  0.00  0.00    -0.241 OA
ATOM     24  O   LIG d   1      -9.538  74.374 117.401  0.00  0.00    -0.241 OA
ENDBRANCH   3  22
TORSDOF 7
ENDMDL
MODEL 5
REMARK VINA RESULT:      -5.0      2.156      4.712
REMARK  7 active torsions:
REMARK  status: ('A' for Active; 'I' for Inactive)
REMARK    1  A    between atoms: C_2  and  C_3 
REMARK    2  A    between atoms: C_3  and  O_6 
REMARK    3  A    between atoms: C_3  and  C_4 
REMARK    4  A    between atoms: C_7  and  O_6 
REMARK    5  A    between atoms: C_9  and  C_10 
REMARK    6  A    between atoms: N_15  and  C_14 
REMARK    7  A    between atoms: N_20  and  C_19 
REMARK       I    between atoms: C_22  and  N_20 
ROOT
ATOM      1  C   LIG d   1      -2.666  77.438 115.536  0.00  0.00     0.161 C 
ATOM      2  C   LIG d   1      -2.565  77.417 116.937  0.00  0.00     0.016 C 
ATOM      3  C   LIG d   1      -1.564  78.110 117.656  0.00  0.00     0.038 C 
ATOM      4  C   LIG d   1      -0.681  79.000 117.027  0.00  0.00     0.028 C 
ATOM      5  C   LIG d   1      -0.423  78.663 115.562  0.00  0.00    -0.047 C 
ATOM      6  C   LIG d   1      -1.779  78.492 114.840  0.00  0.00     0.091 C 
ENDROOT
BRANCH   1   7
ATOM      7  O   LIG d   1      -4.043  77.607 115.147  0.00  0.00    -0.368 OA
BRANCH   7   8
ATOM      8  C   LIG d   1      -4.990  76.681 115.736  0.00  0.00     0.119 C 
BRANCH   8   9
ATOM      9  C   LIG d   1      -5.580  75.833 114.593  0.00  0.00     0.028 C 
ATOM     10  C   LIG d   1      -5.298  74.331 114.771  0.00  0.00     0.006 C 
ENDBRANCH   8   9
BRANCH   8  11
ATOM     11  C   LIG d   1      -6.183  77.419 116.351  0.00  0.00     0.028 C 
ATOM     12  C   LIG d   1      -7.149  76.479 117.088  0.00  0.00     0.006 C 
ENDBRANCH   8  11
ENDBRANCH   7   8
ENDBRANCH   1   7
BRANCH   6  13
ATOM     13  N   LIG d   1      -1.618  78.079 113.422  0.00  0.00    -0.311 N 
ATOM     14  C   LIG d   1      -2.260  78.661 112.411  0.00  0.00     0.210 C 
ATOM     15  C   LIG d   1      -1.966  78.067 111.029  0.00  0.00     0.109 C 
ATOM     16  O   LIG d   1      -3.021  79.634 112.523  0.00  0.00    -0.276 OA
ATOM     17  H   LIG d   1      -0.996  77.317 113.236  0.00  0.00     0.149 HD
ENDBRANCH   6  13
BRANCH   5  18
ATOM     18  N   LIG d   1       0.402  79.746 114.994  0.00  0.00     0.381 N 
ATOM     19  H   LIG d   1       0.554  80.453 115.685  0.00  0.00    -0.090 HD
ATOM     20  H   LIG d   1      -0.090  80.159 114.222  0.00  0.00    -0.090 HD
ATOM     21  H   LIG d   1       1.276  79.381 114.684  0.00  0.00    -0.090 HD
ENDBRANCH   5  18
BRANCH   3  22
ATOM     22  C   LIG d   1      -1.415  77.885 119.016  0.00  0.00     0.382 C 
ATOM     23  O   LIG d   1      -0.267  77.764 119.509  0.00  0.00    -0.241 OA
ATOM     24  O   LIG d   1      -2.414  77.757 119.749  0.00  0.00    -0.241 OA
ENDBRANCH   3  22
TORSDOF 7
ENDMDL
MODEL 6
REMARK VINA RESULT:      -4.7      3.138      5.940
REMARK  7 active torsions:
REMARK  status: ('A' for Active; 'I' for Inactive)
REMARK    1  A    between atoms: C_2  and  C_3 
REMARK    2  A    between atoms: C_3  and  O_6 
REMARK    3  A    between atoms: C_3  and  C_4 
REMARK    4  A    between atoms: C_7  and  O_6 
REMARK    5  A    between atoms: C_9  and  C_10 
REMARK    6  A    between atoms: N_15  and  C_14 
REMARK    7  A    between atoms: N_20  and  C_19 
REMARK       I    between atoms: C_22  and  N_20 
ROOT
ATOM      1  C   LIG d   1      -6.415  77.944 117.289  0.00  0.00     0.161 C 
ATOM      2  C   LIG d   1      -7.601  77.288 117.657  0.00  0.00     0.016 C 
ATOM      3  C   LIG d   1      -7.932  75.982 117.230  0.00  0.00     0.038 C 
ATOM      4  C   LIG d   1      -7.023  75.180 116.523  0.00  0.00     0.028 C 
ATOM      5  C   LIG d   1      -6.020  75.982 115.701  0.00  0.00    -0.047 C 
ATOM      6  C   LIG d   1      -5.361  77.044 116.610  0.00  0.00     0.091 C 
ENDROOT
BRANCH   1   7
ATOM      7  O   LIG d   1      -5.845  78.604 118.437  0.00  0.00    -0.368 OA
BRANCH   7   8
ATOM      8  C   LIG d   1      -5.716  80.044 118.346  0.00  0.00     0.119 C 
BRANCH   8   9
ATOM      9  C   LIG d   1      -4.537  80.461 119.246  0.00  0.00     0.028 C 
ATOM     10  C   LIG d   1      -3.218  79.785 118.836  0.00  0.00     0.006 C 
ENDBRANCH   8   9
BRANCH   8  11
ATOM     11  C   LIG d   1      -6.943  80.751 118.930  0.00  0.00     0.028 C 
ATOM     12  C   LIG d   1      -7.464  81.883 118.030  0.00  0.00     0.006 C 
ENDBRANCH   8  11
ENDBRANCH   7   8
ENDBRANCH   1   7
BRANCH   6  13
ATOM     13  N   LIG d   1      -4.428  77.928 115.865  0.00  0.00    -0.311 N 
ATOM     14  C   LIG d   1      -3.116  77.709 115.785  0.00  0.00     0.210 C 
ATOM     15  C   LIG d   1      -2.333  78.754 114.984  0.00  0.00     0.109 C 
ATOM     16  O   LIG d   1      -2.532  76.731 116.275  0.00  0.00    -0.276 OA
ATOM     17  H   LIG d   1      -4.822  78.729 115.410  0.00  0.00     0.149 HD
ENDBRANCH   6  13
BRANCH   5  18
ATOM     18  N   LIG d   1      -5.051  75.030 115.128  0.00  0.00     0.381 N 
ATOM     19  H   LIG d   1      -4.442  74.692 115.846  0.00  0.00    -0.090 HD
ATOM     20  H   LIG d   1      -4.494  75.506 114.441  0.00  0.00    -0.090 HD
ATOM     21  H   LIG d   1      -5.532  74.266 114.705  0.00  0.00    -0.090 HD
ENDBRANCH   5  18
BRANCH   3  22
ATOM     22  C   LIG d   1      -9.201  75.479 117.475  0.00  0.00     0.382 C 
ATOM     23  O   LIG d   1      -9.506  74.327 117.084  0.00  0.00    -0.241 OA
ATOM     24  O   LIG d   1     -10.059  76.181 118.044  0.00  0.00    -0.241 OA
ENDBRANCH   3  22
TORSDOF 7
ENDMDL
MODEL 7
REMARK VINA RESULT:      -4.5      2.833      4.436
REMARK  7 active torsions:
REMARK  status: ('A' for Active; 'I' for Inactive)
REMARK    1  A    between atoms: C_2  and  C_3 
REMARK    2  A    between atoms: C_3  and  O_6 
REMARK    3  A    between atoms: C_3  and  C_4 
REMARK    4  A    between atoms: C_7  and  O_6 
REMARK    5  A    between atoms: C_9  and  C_10 
REMARK    6  A    between atoms: N_15  and  C_14 
REMARK    7  A    between atoms: N_20  and  C_19 
REMARK       I    between atoms: C_22  and  N_20 
ROOT
ATOM      1  C   LIG d   1      -4.929  77.981 117.591  0.00  0.00     0.161 C 
ATOM      2  C   LIG d   1      -4.320  78.987 118.360  0.00  0.00     0.016 C 
ATOM      3  C   LIG d   1      -3.010  79.462 118.123  0.00  0.00     0.038 C 
ATOM      4  C   LIG d   1      -2.270  79.066 116.998  0.00  0.00     0.028 C 
ATOM      5  C   LIG d   1      -2.646  77.682 116.482  0.00  0.00    -0.047 C 
ATOM      6  C   LIG d   1      -4.179  77.616 116.293  0.00  0.00     0.091 C 
ENDROOT
BRANCH   1   7
ATOM      7  O   LIG d   1      -6.291  78.348 117.296  0.00  0.00    -0.368 OA
BRANCH   7   8
ATOM      8  C   LIG d   1      -7.310  77.729 118.120  0.00  0.00     0.119 C 
BRANCH   8   9
ATOM      9  C   LIG d   1      -7.910  76.561 117.314  0.00  0.00     0.028 C 
ATOM     10  C   LIG d   1      -9.275  76.110 117.861  0.00  0.00     0.006 C 
ENDBRANCH   8   9
BRANCH   8  11
ATOM     11  C   LIG d   1      -8.478  78.687 118.375  0.00  0.00     0.028 C 
ATOM     12  C   LIG d   1      -8.040  80.160 118.427  0.00  0.00     0.006 C 
ENDBRANCH   8  11
ENDBRANCH   7   8
ENDBRANCH   1   7
BRANCH   6  13
ATOM     13  N   LIG d   1      -4.641  76.269 115.870  0.00  0.00    -0.311 N 
ATOM     14  C   LIG d   1      -4.842  75.928 114.598  0.00  0.00     0.210 C 
ATOM     15  C   LIG d   1      -5.338  74.495 114.383  0.00  0.00     0.109 C 
ATOM     16  O   LIG d   1      -4.626  76.667 113.626  0.00  0.00    -0.276 OA
ATOM     17  H   LIG d   1      -4.810  75.597 116.593  0.00  0.00     0.149 HD
ENDBRANCH   6  13
BRANCH   5  18
ATOM     18  N   LIG d   1      -1.899  77.454 115.231  0.00  0.00     0.381 N 
ATOM     19  H   LIG d   1      -2.382  76.786 114.665  0.00  0.00    -0.090 HD
ATOM     20  H   LIG d   1      -0.994  77.080 115.457  0.00  0.00    -0.090 HD
ATOM     21  H   LIG d   1      -1.797  78.311 114.734  0.00  0.00    -0.090 HD
ENDBRANCH   5  18
BRANCH   3  22
ATOM     22  C   LIG d   1      -2.411  80.314 119.039  0.00  0.00     0.382 C 
ATOM     23  O   LIG d   1      -1.162  80.430 119.064  0.00  0.00    -0.241 OA
ATOM     24  O   LIG d   1      -3.102  80.934 119.869  0.00  0.00    -0.241 OA
ENDBRANCH   3  22
TORSDOF 7
ENDMDL
MODEL 8
REMARK VINA RESULT:      -4.5      2.775      5.362
REMARK  7 active torsions:
REMARK  status: ('A' for Active; 'I' for Inactive)
REMARK    1  A    between atoms: C_2  and  C_3 
REMARK    2  A    between atoms: C_3  and  O_6 
REMARK    3  A    between atoms: C_3  and  C_4 
REMARK    4  A    between atoms: C_7  and  O_6 
REMARK    5  A    between atoms: C_9  and  C_10 
REMARK    6  A    between atoms: N_15  and  C_14 
REMARK    7  A    between atoms: N_20  and  C_19 
REMARK       I    between atoms: C_22  and  N_20 
ROOT
ATOM      1  C   LIG d   1      -5.111  78.315 116.574  0.00  0.00     0.161 C 
ATOM      2  C   LIG d   1      -6.267  78.042 117.325  0.00  0.00     0.016 C 
ATOM      3  C   LIG d   1      -7.046  76.875 117.156  0.00  0.00     0.038 C 
ATOM      4  C   LIG d   1      -6.636  75.823 116.325  0.00  0.00     0.028 C 
ATOM      5  C   LIG d   1      -5.743  76.273 115.174  0.00  0.00    -0.047 C 
ATOM      6  C   LIG d   1      -4.586  77.128 115.741  0.00  0.00     0.091 C 
ENDROOT
BRANCH   1   7
ATOM      7  O   LIG d   1      -4.074  78.818 117.440  0.00  0.00    -0.368 OA
BRANCH   7   8
ATOM      8  C   LIG d   1      -3.684  77.954 118.535  0.00  0.00     0.119 C 
BRANCH   8   9
ATOM      9  C   LIG d   1      -3.630  78.818 119.810  0.00  0.00     0.028 C 
ATOM     10  C   LIG d   1      -3.995  80.287 119.539  0.00  0.00     0.006 C 
ENDBRANCH   8   9
BRANCH   8  11
ATOM     11  C   LIG d   1      -2.260  77.422 118.345  0.00  0.00     0.028 C 
ATOM     12  C   LIG d   1      -1.373  78.372 117.525  0.00  0.00     0.006 C 
ENDBRANCH   8  11
ENDBRANCH   7   8
ENDBRANCH   1   7
BRANCH   6  13
ATOM     13  N   LIG d   1      -3.712  77.679 114.673  0.00  0.00    -0.311 N 
ATOM     14  C   LIG d   1      -2.597  77.081 114.256  0.00  0.00     0.210 C 
ATOM     15  C   LIG d   1      -1.834  77.830 113.159  0.00  0.00     0.109 C 
ATOM     16  O   LIG d   1      -2.185  75.987 114.668  0.00  0.00    -0.276 OA
ATOM     17  H   LIG d   1      -3.988  78.549 114.261  0.00  0.00     0.149 HD
ENDBRANCH   6  13
BRANCH   5  18
ATOM     18  N   LIG d   1      -5.277  75.063 114.470  0.00  0.00     0.381 N 
ATOM     19  H   LIG d   1      -5.445  74.256 115.038  0.00  0.00    -0.090 HD
ATOM     20  H   LIG d   1      -4.287  75.139 114.314  0.00  0.00    -0.090 HD
ATOM     21  H   LIG d   1      -5.752  74.971 113.600  0.00  0.00    -0.090 HD
ENDBRANCH   5  18
BRANCH   3  22
ATOM     22  C   LIG d   1      -8.273  76.770 117.795  0.00  0.00     0.382 C 
ATOM     23  O   LIG d   1      -8.908  77.805 118.108  0.00  0.00    -0.241 OA
ATOM     24  O   LIG d   1      -8.732  75.653 118.101  0.00  0.00    -0.241 OA
ENDBRANCH   3  22
TORSDOF 7
ENDMDL
MODEL 9
REMARK VINA RESULT:      -4.5      3.592      5.904
REMARK  7 active torsions:
REMARK  status: ('A' for Active; 'I' for Inactive)
REMARK    1  A    between atoms: C_2  and  C_3 
REMARK    2  A    between atoms: C_3  and  O_6 
REMARK    3  A    between atoms: C_3  and  C_4 
REMARK    4  A    between atoms: C_7  and  O_6 
REMARK    5  A    between atoms: C_9  and  C_10 
REMARK    6  A    between atoms: N_15  and  C_14 
REMARK    7  A    between atoms: N_20  and  C_19 
REMARK       I    between atoms: C_22  and  N_20 
ROOT
ATOM      1  C   LIG d   1      -6.860  77.937 117.486  0.00  0.00     0.161 C 
ATOM      2  C   LIG d   1      -5.684  77.765 116.738  0.00  0.00     0.016 C 
ATOM      3  C   LIG d   1      -4.515  78.535 116.939  0.00  0.00     0.038 C 
ATOM      4  C   LIG d   1      -4.393  79.433 118.011  0.00  0.00     0.028 C 
ATOM      5  C   LIG d   1      -5.729  80.002 118.479  0.00  0.00    -0.047 C 
ATOM      6  C   LIG d   1      -6.710  78.835 118.732  0.00  0.00     0.091 C 
ENDROOT
BRANCH   1   7
ATOM      7  O   LIG d   1      -7.396  76.651 117.857  0.00  0.00    -0.368 OA
BRANCH   7   8
ATOM      8  C   LIG d   1      -7.886  75.828 116.770  0.00  0.00     0.119 C 
BRANCH   8   9
ATOM      9  C   LIG d   1      -9.400  75.634 116.982  0.00  0.00     0.028 C 
ATOM     10  C   LIG d   1      -9.763  74.180 117.326  0.00  0.00     0.006 C 
ENDBRANCH   8   9
BRANCH   8  11
ATOM     11  C   LIG d   1      -7.286  74.419 116.823  0.00  0.00     0.028 C 
ATOM     12  C   LIG d   1      -6.230  74.180 115.733  0.00  0.00     0.006 C 
ENDBRANCH   8  11
ENDBRANCH   7   8
ENDBRANCH   1   7
BRANCH   6  13
ATOM     13  N   LIG d   1      -8.067  79.307 119.112  0.00  0.00    -0.311 N 
ATOM     14  C   LIG d   1      -8.647  80.379 118.575  0.00  0.00     0.210 C 
ATOM     15  C   LIG d   1     -10.040  80.704 119.124  0.00  0.00     0.109 C 
ATOM     16  O   LIG d   1      -8.153  81.074 117.674  0.00  0.00    -0.276 OA
ATOM     17  H   LIG d   1      -8.552  78.784 119.814  0.00  0.00     0.149 HD
ENDBRANCH   6  13
BRANCH   5  18
ATOM     18  N   LIG d   1      -5.470  80.812 119.684  0.00  0.00     0.381 N 
ATOM     19  H   LIG d   1      -5.711  80.289 120.502  0.00  0.00    -0.090 HD
ATOM     20  H   LIG d   1      -6.048  81.634 119.653  0.00  0.00    -0.090 HD
ATOM     21  H   LIG d   1      -4.509  81.073 119.719  0.00  0.00    -0.090 HD
ENDBRANCH   5  18
BRANCH   3  22
ATOM     22  C   LIG d   1      -3.465  78.440 116.038  0.00  0.00     0.382 C 
ATOM     23  O   LIG d   1      -3.408  79.220 115.058  0.00  0.00    -0.241 OA
ATOM     24  O   LIG d   1      -2.600  77.553 116.168  0.00  0.00    -0.241 OA
ENDBRANCH   3  22
TORSDOF 7
ENDMDL
