MODEL 1
REMARK VINA RESULT:      -5.2      0.000      0.000
REMARK  7 active torsions:
REMARK  status: ('A' for Active; 'I' for Inactive)
REMARK    1  A    between atoms: C_2  and  C_3 
REMARK    2  A    between atoms: C_3  and  O_6 
REMARK    3  A    between atoms: C_3  and  C_4 
REMARK    4  A    between atoms: C_7  and  O_6 
REMARK    5  A    between atoms: C_9  and  C_10 
REMARK    6  A    between atoms: N_15  and  C_14 
REMARK    7  A    between atoms: N_20  and  C_19 
REMARK       I    between atoms: C_22  and  N_20 
ROOT
ATOM      1  C   LIG d   1      -4.231  78.509 116.509  0.00  0.00     0.161 C 
ATOM      2  C   LIG d   1      -4.122  77.397 115.657  0.00  0.00     0.016 C 
ATOM      3  C   LIG d   1      -5.158  76.453 115.473  0.00  0.00     0.038 C 
ATOM      4  C   LIG d   1      -6.437  76.640 116.018  0.00  0.00     0.028 C 
ATOM      5  C   LIG d   1      -6.436  77.482 117.290  0.00  0.00    -0.047 C 
ATOM      6  C   LIG d   1      -5.657  78.790 117.025  0.00  0.00     0.091 C 
ENDROOT
BRANCH   1   7
ATOM      7  O   LIG d   1      -3.694  79.677 115.858  0.00  0.00    -0.368 OA
BRANCH   7   8
ATOM      8  C   LIG d   1      -2.298  79.966 116.118  0.00  0.00     0.119 C 
BRANCH   8   9
ATOM      9  C   LIG d   1      -2.239  81.275 116.928  0.00  0.00     0.028 C 
ATOM     10  C   LIG d   1      -2.148  81.024 118.443  0.00  0.00     0.006 C 
ENDBRANCH   8   9
BRANCH   8  11
ATOM     11  C   LIG d   1      -1.539  80.258 114.820  0.00  0.00     0.028 C 
ATOM     12  C   LIG d   1      -2.452  80.784 113.701  0.00  0.00     0.006 C 
ENDBRANCH   8  11
ENDBRANCH   7   8
ENDBRANCH   1   7
BRANCH   6  13
ATOM     13  N   LIG d   1      -5.536  79.634 118.243  0.00  0.00    -0.311 N 
ATOM     14  C   LIG d   1      -6.040  80.864 118.336  0.00  0.00     0.210 C 
ATOM     15  C   LIG d   1      -5.786  81.568 119.672  0.00  0.00     0.109 C 
ATOM     16  O   LIG d   1      -6.702  81.426 117.450  0.00  0.00    -0.276 OA
ATOM     17  H   LIG d   1      -5.042  79.244 119.021  0.00  0.00     0.149 HD
ENDBRANCH   6  13
BRANCH   5  18
ATOM     18  N   LIG d   1      -7.842  77.713 117.672  0.00  0.00     0.381 N 
ATOM     19  H   LIG d   1      -7.924  78.589 118.150  0.00  0.00    -0.090 HD
ATOM     20  H   LIG d   1      -8.133  76.984 118.299  0.00  0.00    -0.090 HD
ATOM     21  H   LIG d   1      -8.421  77.714 116.861  0.00  0.00    -0.090 HD
ENDBRANCH   5  18
BRANCH   3  22
ATOM     22  C   LIG d   1      -4.907  75.285 114.770  0.00  0.00     0.382 C 
ATOM     23  O   LIG d   1      -3.992  74.511 115.145  0.00  0.00    -0.241 OA
ATOM     24  O   LIG d   1      -5.553  75.016 113.740  0.00  0.00    -0.241 OA
ENDBRANCH   3  22
TORSDOF 7
ENDMDL
MODEL 2
REMARK VINA RESULT:      -5.1      2.865      5.931
REMARK  7 active torsions:
REMARK  status: ('A' for Active; 'I' for Inactive)
REMARK    1  A    between atoms: C_2  and  C_3 
REMARK    2  A    between atoms: C_3  and  O_6 
REMARK    3  A    between atoms: C_3  and  C_4 
REMARK    4  A    between atoms: C_7  and  O_6 
REMARK    5  A    between atoms: C_9  and  C_10 
REMARK    6  A    between atoms: N_15  and  C_14 
REMARK    7  A    between atoms: N_20  and  C_19 
REMARK       I    between atoms: C_22  and  N_20 
ROOT
ATOM      1  C   LIG d   1      -2.739  79.881 115.463  0.00  0.00     0.161 C 
ATOM      2  C   LIG d   1      -2.490  81.118 114.847  0.00  0.00     0.016 C 
ATOM      3  C   LIG d   1      -2.038  81.247 113.513  0.00  0.00     0.038 C 
ATOM      4  C   LIG d   1      -1.950  80.143 112.651  0.00  0.00     0.028 C 
ATOM      5  C   LIG d   1      -1.707  78.825 113.378  0.00  0.00    -0.047 C 
ATOM      6  C   LIG d   1      -2.754  78.672 114.504  0.00  0.00     0.091 C 
ENDROOT
BRANCH   1   7
ATOM      7  O   LIG d   1      -3.971  79.945 116.208  0.00  0.00    -0.368 OA
BRANCH   7   8
ATOM      8  C   LIG d   1      -3.911  80.635 117.480  0.00  0.00     0.119 C 
BRANCH   8   9
ATOM      9  C   LIG d   1      -2.757  80.014 118.290  0.00  0.00     0.028 C 
ATOM     10  C   LIG d   1      -1.833  81.078 118.906  0.00  0.00     0.006 C 
ENDBRANCH   8   9
BRANCH   8  11
ATOM     11  C   LIG d   1      -5.172  80.381 118.312  0.00  0.00     0.028 C 
ATOM     12  C   LIG d   1      -6.292  81.392 118.020  0.00  0.00     0.006 C 
ENDBRANCH   8  11
ENDBRANCH   7   8
ENDBRANCH   1   7
BRANCH   6  13
ATOM     13  N   LIG d   1      -2.536  77.449 115.319  0.00  0.00    -0.311 N 
ATOM     14  C   LIG d   1      -3.091  76.271 115.037  0.00  0.00     0.210 C 
ATOM     15  C   LIG d   1      -2.751  75.144 116.017  0.00  0.00     0.109 C 
ATOM     16  O   LIG d   1      -3.807  76.045 114.050  0.00  0.00    -0.276 OA
ATOM     17  H   LIG d   1      -1.943  77.535 116.121  0.00  0.00     0.149 HD
ENDBRANCH   6  13
BRANCH   5  18
ATOM     18  N   LIG d   1      -1.773  77.745 112.375  0.00  0.00     0.381 N 
ATOM     19  H   LIG d   1      -1.084  77.897 111.667  0.00  0.00    -0.090 HD
ATOM     20  H   LIG d   1      -2.680  77.759 111.941  0.00  0.00    -0.090 HD
ATOM     21  H   LIG d   1      -1.621  76.863 112.813  0.00  0.00    -0.090 HD
ENDBRANCH   5  18
BRANCH   3  22
ATOM     22  C   LIG d   1      -1.632  82.485 113.041  0.00  0.00     0.382 C 
ATOM     23  O   LIG d   1      -1.544  82.688 111.806  0.00  0.00    -0.241 OA
ATOM     24  O   LIG d   1      -1.310  83.389 113.835  0.00  0.00    -0.241 OA
ENDBRANCH   3  22
TORSDOF 7
ENDMDL
MODEL 3
REMARK VINA RESULT:      -4.9      2.994      5.910
REMARK  7 active torsions:
REMARK  status: ('A' for Active; 'I' for Inactive)
REMARK    1  A    between atoms: C_2  and  C_3 
REMARK    2  A    between atoms: C_3  and  O_6 
REMARK    3  A    between atoms: C_3  and  C_4 
REMARK    4  A    between atoms: C_7  and  O_6 
REMARK    5  A    between atoms: C_9  and  C_10 
REMARK    6  A    between atoms: N_15  and  C_14 
REMARK    7  A    between atoms: N_20  and  C_19 
REMARK       I    between atoms: C_22  and  N_20 
ROOT
ATOM      1  C   LIG d   1      -2.020  79.224 115.703  0.00  0.00     0.161 C 
ATOM      2  C   LIG d   1      -2.284  80.496 115.169  0.00  0.00     0.016 C 
ATOM      3  C   LIG d   1      -2.488  80.735 113.790  0.00  0.00     0.038 C 
ATOM      4  C   LIG d   1      -2.591  79.686 112.864  0.00  0.00     0.028 C 
ATOM      5  C   LIG d   1      -1.830  78.432 113.281  0.00  0.00    -0.047 C 
ATOM      6  C   LIG d   1      -2.239  78.053 114.722  0.00  0.00     0.091 C 
ENDROOT
BRANCH   1   7
ATOM      7  O   LIG d   1      -2.796  79.026 116.901  0.00  0.00    -0.368 OA
BRANCH   7   8
ATOM      8  C   LIG d   1      -4.233  78.966 116.727  0.00  0.00     0.119 C 
BRANCH   8   9
ATOM      9  C   LIG d   1      -4.854  80.057 117.620  0.00  0.00     0.028 C 
ATOM     10  C   LIG d   1      -3.810  80.749 118.513  0.00  0.00     0.006 C 
ENDBRANCH   8   9
BRANCH   8  11
ATOM     11  C   LIG d   1      -4.803  77.643 117.248  0.00  0.00     0.028 C 
ATOM     12  C   LIG d   1      -3.909  76.988 118.313  0.00  0.00     0.006 C 
ENDBRANCH   8  11
ENDBRANCH   7   8
ENDBRANCH   1   7
BRANCH   6  13
ATOM     13  N   LIG d   1      -1.478  76.885 115.239  0.00  0.00    -0.311 N 
ATOM     14  C   LIG d   1      -2.012  75.676 115.401  0.00  0.00     0.210 C 
ATOM     15  C   LIG d   1      -1.058  74.618 115.965  0.00  0.00     0.109 C 
ATOM     16  O   LIG d   1      -3.176  75.370 115.100  0.00  0.00    -0.276 OA
ATOM     17  H   LIG d   1      -0.518  77.037 115.478  0.00  0.00     0.149 HD
ENDBRANCH   6  13
BRANCH   5  18
ATOM     18  N   LIG d   1      -2.135  77.377 112.296  0.00  0.00     0.381 N 
ATOM     19  H   LIG d   1      -2.287  77.788 111.396  0.00  0.00    -0.090 HD
ATOM     20  H   LIG d   1      -2.979  76.907 112.575  0.00  0.00    -0.090 HD
ATOM     21  H   LIG d   1      -1.383  76.726 112.250  0.00  0.00    -0.090 HD
ENDBRANCH   5  18
BRANCH   3  22
ATOM     22  C   LIG d   1      -2.551  82.037 113.320  0.00  0.00     0.382 C 
ATOM     23  O   LIG d   1      -2.032  82.331 112.216  0.00  0.00    -0.241 OA
ATOM     24  O   LIG d   1      -3.080  82.932 114.007  0.00  0.00    -0.241 OA
ENDBRANCH   3  22
TORSDOF 7
ENDMDL
MODEL 4
REMARK VINA RESULT:      -4.7      3.261      5.862
REMARK  7 active torsions:
REMARK  status: ('A' for Active; 'I' for Inactive)
REMARK    1  A    between atoms: C_2  and  C_3 
REMARK    2  A    between atoms: C_3  and  O_6 
REMARK    3  A    between atoms: C_3  and  C_4 
REMARK    4  A    between atoms: C_7  and  O_6 
REMARK    5  A    between atoms: C_9  and  C_10 
REMARK    6  A    between atoms: N_15  and  C_14 
REMARK    7  A    between atoms: N_20  and  C_19 
REMARK       I    between atoms: C_22  and  N_20 
ROOT
ATOM      1  C   LIG d   1      -2.308  79.214 115.833  0.00  0.00     0.161 C 
ATOM      2  C   LIG d   1      -2.630  80.389 115.134  0.00  0.00     0.016 C 
ATOM      3  C   LIG d   1      -2.577  80.495 113.725  0.00  0.00     0.038 C 
ATOM      4  C   LIG d   1      -2.343  79.380 112.906  0.00  0.00     0.028 C 
ATOM      5  C   LIG d   1      -1.519  78.292 113.584  0.00  0.00    -0.047 C 
ATOM      6  C   LIG d   1      -2.159  77.956 114.951  0.00  0.00     0.091 C 
ENDROOT
BRANCH   1   7
ATOM      7  O   LIG d   1      -3.279  78.983 116.874  0.00  0.00    -0.368 OA
BRANCH   7   8
ATOM      8  C   LIG d   1      -2.810  79.159 118.233  0.00  0.00     0.119 C 
BRANCH   8   9
ATOM      9  C   LIG d   1      -1.394  79.764 118.160  0.00  0.00     0.028 C 
ATOM     10  C   LIG d   1      -1.333  81.185 118.745  0.00  0.00     0.006 C 
ENDBRANCH   8   9
BRANCH   8  11
ATOM     11  C   LIG d   1      -2.638  77.812 118.942  0.00  0.00     0.028 C 
ATOM     12  C   LIG d   1      -3.760  76.815 118.607  0.00  0.00     0.006 C 
ENDBRANCH   8  11
ENDBRANCH   7   8
ENDBRANCH   1   7
BRANCH   6  13
ATOM     13  N   LIG d   1      -1.367  76.960 115.718  0.00  0.00    -0.311 N 
ATOM     14  C   LIG d   1      -1.646  75.658 115.736  0.00  0.00     0.210 C 
ATOM     15  C   LIG d   1      -0.716  74.809 116.607  0.00  0.00     0.109 C 
ATOM     16  O   LIG d   1      -2.557  75.121 115.087  0.00  0.00    -0.276 OA
ATOM     17  H   LIG d   1      -0.591  77.305 116.249  0.00  0.00     0.149 HD
ENDBRANCH   6  13
BRANCH   5  18
ATOM     18  N   LIG d   1      -1.469  77.135 112.670  0.00  0.00     0.381 N 
ATOM     19  H   LIG d   1      -2.211  76.501 112.886  0.00  0.00    -0.090 HD
ATOM     20  H   LIG d   1      -0.595  76.656 112.801  0.00  0.00    -0.090 HD
ATOM     21  H   LIG d   1      -1.549  77.443 111.726  0.00  0.00    -0.090 HD
ENDBRANCH   5  18
BRANCH   3  22
ATOM     22  C   LIG d   1      -2.721  81.736 113.123  0.00  0.00     0.382 C 
ATOM     23  O   LIG d   1      -3.775  82.014 112.502  0.00  0.00    -0.241 OA
ATOM     24  O   LIG d   1      -1.791  82.565 113.156  0.00  0.00    -0.241 OA
ENDBRANCH   3  22
TORSDOF 7
ENDMDL
MODEL 5
REMARK VINA RESULT:      -4.7      2.982      5.830
REMARK  7 active torsions:
REMARK  status: ('A' for Active; 'I' for Inactive)
REMARK    1  A    between atoms: C_2  and  C_3 
REMARK    2  A    between atoms: C_3  and  O_6 
REMARK    3  A    between atoms: C_3  and  C_4 
REMARK    4  A    between atoms: C_7  and  O_6 
REMARK    5  A    between atoms: C_9  and  C_10 
REMARK    6  A    between atoms: N_15  and  C_14 
REMARK    7  A    between atoms: N_20  and  C_19 
REMARK       I    between atoms: C_22  and  N_20 
ROOT
ATOM      1  C   LIG d   1      -2.511  79.707 115.090  0.00  0.00     0.161 C 
ATOM      2  C   LIG d   1      -2.010  80.803 114.368  0.00  0.00     0.016 C 
ATOM      3  C   LIG d   1      -1.599  80.723 113.018  0.00  0.00     0.038 C 
ATOM      4  C   LIG d   1      -1.804  79.569 112.247  0.00  0.00     0.028 C 
ATOM      5  C   LIG d   1      -1.840  78.288 113.074  0.00  0.00    -0.047 C 
ATOM      6  C   LIG d   1      -2.846  78.468 114.234  0.00  0.00     0.091 C 
ENDROOT
BRANCH   1   7
ATOM      7  O   LIG d   1      -3.662  80.112 115.856  0.00  0.00    -0.368 OA
BRANCH   7   8
ATOM      8  C   LIG d   1      -3.473  80.205 117.290  0.00  0.00     0.119 C 
BRANCH   8   9
ATOM      9  C   LIG d   1      -4.770  80.781 117.892  0.00  0.00     0.028 C 
ATOM     10  C   LIG d   1      -5.225  80.015 119.145  0.00  0.00     0.006 C 
ENDBRANCH   8   9
BRANCH   8  11
ATOM     11  C   LIG d   1      -2.379  81.217 117.643  0.00  0.00     0.028 C 
ATOM     12  C   LIG d   1      -1.591  80.827 118.904  0.00  0.00     0.006 C 
ENDBRANCH   8  11
ENDBRANCH   7   8
ENDBRANCH   1   7
BRANCH   6  13
ATOM     13  N   LIG d   1      -2.881  77.291 115.141  0.00  0.00    -0.311 N 
ATOM     14  C   LIG d   1      -3.642  76.220 114.923  0.00  0.00     0.210 C 
ATOM     15  C   LIG d   1      -3.543  75.128 115.993  0.00  0.00     0.109 C 
ATOM     16  O   LIG d   1      -4.365  76.056 113.929  0.00  0.00    -0.276 OA
ATOM     17  H   LIG d   1      -2.301  77.326 115.956  0.00  0.00     0.149 HD
ENDBRANCH   6  13
BRANCH   5  18
ATOM     18  N   LIG d   1      -2.197  77.182 112.165  0.00  0.00     0.381 N 
ATOM     19  H   LIG d   1      -3.082  76.798 112.430  0.00  0.00    -0.090 HD
ATOM     20  H   LIG d   1      -1.504  76.459 112.245  0.00  0.00    -0.090 HD
ATOM     21  H   LIG d   1      -2.237  77.511 111.226  0.00  0.00    -0.090 HD
ENDBRANCH   5  18
BRANCH   3  22
ATOM     22  C   LIG d   1      -0.938  81.795 112.436  0.00  0.00     0.382 C 
ATOM     23  O   LIG d   1      -1.595  82.725 111.909  0.00  0.00    -0.241 OA
ATOM     24  O   LIG d   1       0.307  81.821 112.393  0.00  0.00    -0.241 OA
ENDBRANCH   3  22
TORSDOF 7
ENDMDL
MODEL 6
REMARK VINA RESULT:      -4.5      2.590      6.170
REMARK  7 active torsions:
REMARK  status: ('A' for Active; 'I' for Inactive)
REMARK    1  A    between atoms: C_2  and  C_3 
REMARK    2  A    between atoms: C_3  and  O_6 
REMARK    3  A    between atoms: C_3  and  C_4 
REMARK    4  A    between atoms: C_7  and  O_6 
REMARK    5  A    between atoms: C_9  and  C_10 
REMARK    6  A    between atoms: N_15  and  C_14 
REMARK    7  A    between atoms: N_20  and  C_19 
REMARK       I    between atoms: C_22  and  N_20 
ROOT
ATOM      1  C   LIG d   1      -4.345  77.142 117.803  0.00  0.00     0.161 C 
ATOM      2  C   LIG d   1      -5.086  78.303 118.083  0.00  0.00     0.016 C 
ATOM      3  C   LIG d   1      -4.764  79.576 117.560  0.00  0.00     0.038 C 
ATOM      4  C   LIG d   1      -3.761  79.749 116.594  0.00  0.00     0.028 C 
ATOM      5  C   LIG d   1      -2.664  78.693 116.664  0.00  0.00    -0.047 C 
ATOM      6  C   LIG d   1      -3.315  77.291 116.664  0.00  0.00     0.091 C 
ENDROOT
BRANCH   1   7
ATOM      7  O   LIG d   1      -5.240  76.046 117.530  0.00  0.00    -0.368 OA
BRANCH   7   8
ATOM      8  C   LIG d   1      -6.114  76.206 116.385  0.00  0.00     0.119 C 
BRANCH   8   9
ATOM      9  C   LIG d   1      -7.514  75.714 116.799  0.00  0.00     0.028 C 
ATOM     10  C   LIG d   1      -7.627  74.180 116.778  0.00  0.00     0.006 C 
ENDBRANCH   8   9
BRANCH   8  11
ATOM     11  C   LIG d   1      -5.690  75.297 115.228  0.00  0.00     0.028 C 
ATOM     12  C   LIG d   1      -5.755  76.000 113.863  0.00  0.00     0.006 C 
ENDBRANCH   8  11
ENDBRANCH   7   8
ENDBRANCH   1   7
BRANCH   6  13
ATOM     13  N   LIG d   1      -2.316  76.201 116.815  0.00  0.00    -0.311 N 
ATOM     14  C   LIG d   1      -1.825  75.509 115.789  0.00  0.00     0.210 C 
ATOM     15  C   LIG d   1      -0.821  74.416 116.168  0.00  0.00     0.109 C 
ATOM     16  O   LIG d   1      -2.101  75.718 114.598  0.00  0.00    -0.276 OA
ATOM     17  H   LIG d   1      -2.013  75.986 117.745  0.00  0.00     0.149 HD
ENDBRANCH   6  13
BRANCH   5  18
ATOM     18  N   LIG d   1      -1.761  78.911 115.518  0.00  0.00     0.381 N 
ATOM     19  H   LIG d   1      -0.816  78.976 115.839  0.00  0.00    -0.090 HD
ATOM     20  H   LIG d   1      -2.004  79.779 115.074  0.00  0.00    -0.090 HD
ATOM     21  H   LIG d   1      -1.847  78.161 114.868  0.00  0.00    -0.090 HD
ENDBRANCH   5  18
BRANCH   3  22
ATOM     22  C   LIG d   1      -5.423  80.700 118.034  0.00  0.00     0.382 C 
ATOM     23  O   LIG d   1      -6.472  81.096 117.470  0.00  0.00    -0.241 OA
ATOM     24  O   LIG d   1      -4.958  81.349 118.990  0.00  0.00    -0.241 OA
ENDBRANCH   3  22
TORSDOF 7
ENDMDL
MODEL 7
REMARK VINA RESULT:      -4.5      3.646      4.660
REMARK  7 active torsions:
REMARK  status: ('A' for Active; 'I' for Inactive)
REMARK    1  A    between atoms: C_2  and  C_3 
REMARK    2  A    between atoms: C_3  and  O_6 
REMARK    3  A    between atoms: C_3  and  C_4 
REMARK    4  A    between atoms: C_7  and  O_6 
REMARK    5  A    between atoms: C_9  and  C_10 
REMARK    6  A    between atoms: N_15  and  C_14 
REMARK    7  A    between atoms: N_20  and  C_19 
REMARK       I    between atoms: C_22  and  N_20 
ROOT
ATOM      1  C   LIG d   1      -2.504  78.737 115.306  0.00  0.00     0.161 C 
ATOM      2  C   LIG d   1      -3.386  77.657 115.140  0.00  0.00     0.016 C 
ATOM      3  C   LIG d   1      -3.730  77.120 113.878  0.00  0.00     0.038 C 
ATOM      4  C   LIG d   1      -3.092  77.533 112.698  0.00  0.00     0.028 C 
ATOM      5  C   LIG d   1      -2.567  78.963 112.762  0.00  0.00    -0.047 C 
ATOM      6  C   LIG d   1      -1.713  79.128 114.040  0.00  0.00     0.091 C 
ENDROOT
BRANCH   1   7
ATOM      7  O   LIG d   1      -1.601  78.467 116.397  0.00  0.00    -0.368 OA
BRANCH   7   8
ATOM      8  C   LIG d   1      -1.398  77.071 116.725  0.00  0.00     0.119 C 
BRANCH   8   9
ATOM      9  C   LIG d   1      -1.252  76.971 118.256  0.00  0.00     0.028 C 
ATOM     10  C   LIG d   1      -2.597  76.721 118.958  0.00  0.00     0.006 C 
ENDBRANCH   8   9
BRANCH   8  11
ATOM     11  C   LIG d   1      -0.073  76.552 116.157  0.00  0.00     0.028 C 
ATOM     12  C   LIG d   1      -0.259  75.717 114.880  0.00  0.00     0.006 C 
ENDBRANCH   8  11
ENDBRANCH   7   8
ENDBRANCH   1   7
BRANCH   6  13
ATOM     13  N   LIG d   1      -1.230  80.521 114.223  0.00  0.00    -0.311 N 
ATOM     14  C   LIG d   1      -1.976  81.595 113.968  0.00  0.00     0.210 C 
ATOM     15  C   LIG d   1      -1.277  82.938 114.205  0.00  0.00     0.109 C 
ATOM     16  O   LIG d   1      -3.159  81.563 113.598  0.00  0.00    -0.276 OA
ATOM     17  H   LIG d   1      -0.291  80.639 114.549  0.00  0.00     0.149 HD
ENDBRANCH   6  13
BRANCH   5  18
ATOM     18  N   LIG d   1      -1.807  79.214 111.522  0.00  0.00     0.381 N 
ATOM     19  H   LIG d   1      -0.874  78.867 111.621  0.00  0.00    -0.090 HD
ATOM     20  H   LIG d   1      -1.760  80.206 111.365  0.00  0.00    -0.090 HD
ATOM     21  H   LIG d   1      -2.255  78.769 110.752  0.00  0.00    -0.090 HD
ENDBRANCH   5  18
BRANCH   3  22
ATOM     22  C   LIG d   1      -4.750  76.186 113.783  0.00  0.00     0.382 C 
ATOM     23  O   LIG d   1      -4.622  75.060 114.321  0.00  0.00    -0.241 OA
ATOM     24  O   LIG d   1      -5.779  76.440 113.128  0.00  0.00    -0.241 OA
ENDBRANCH   3  22
TORSDOF 7
ENDMDL
MODEL 8
REMARK VINA RESULT:      -4.4      2.280      5.744
REMARK  7 active torsions:
REMARK  status: ('A' for Active; 'I' for Inactive)
REMARK    1  A    between atoms: C_2  and  C_3 
REMARK    2  A    between atoms: C_3  and  O_6 
REMARK    3  A    between atoms: C_3  and  C_4 
REMARK    4  A    between atoms: C_7  and  O_6 
REMARK    5  A    between atoms: C_9  and  C_10 
REMARK    6  A    between atoms: N_15  and  C_14 
REMARK    7  A    between atoms: N_20  and  C_19 
REMARK       I    between atoms: C_22  and  N_20 
ROOT
ATOM      1  C   LIG d   1      -5.338  79.278 117.549  0.00  0.00     0.161 C 
ATOM      2  C   LIG d   1      -4.453  80.356 117.386  0.00  0.00     0.016 C 
ATOM      3  C   LIG d   1      -3.272  80.283 116.612  0.00  0.00     0.038 C 
ATOM      4  C   LIG d   1      -2.972  79.164 115.820  0.00  0.00     0.028 C 
ATOM      5  C   LIG d   1      -3.576  77.868 116.349  0.00  0.00    -0.047 C 
ATOM      6  C   LIG d   1      -5.086  78.085 116.603  0.00  0.00     0.091 C 
ENDROOT
BRANCH   1   7
ATOM      7  O   LIG d   1      -6.698  79.739 117.422  0.00  0.00    -0.368 OA
BRANCH   7   8
ATOM      8  C   LIG d   1      -7.493  79.720 118.633  0.00  0.00     0.119 C 
BRANCH   8   9
ATOM      9  C   LIG d   1      -8.629  78.699 118.425  0.00  0.00     0.028 C 
ATOM     10  C   LIG d   1      -9.986  79.221 118.928  0.00  0.00     0.006 C 
ENDBRANCH   8   9
BRANCH   8  11
ATOM     11  C   LIG d   1      -8.192  81.063 118.862  0.00  0.00     0.028 C 
ATOM     12  C   LIG d   1      -7.203  82.218 119.087  0.00  0.00     0.006 C 
ENDBRANCH   8  11
ENDBRANCH   7   8
ENDBRANCH   1   7
BRANCH   6  13
ATOM     13  N   LIG d   1      -5.737  76.891 117.201  0.00  0.00    -0.311 N 
ATOM     14  C   LIG d   1      -6.374  75.967 116.484  0.00  0.00     0.210 C 
ATOM     15  C   LIG d   1      -6.992  74.827 117.300  0.00  0.00     0.109 C 
ATOM     16  O   LIG d   1      -6.459  75.966 115.247  0.00  0.00    -0.276 OA
ATOM     17  H   LIG d   1      -5.690  76.796 118.197  0.00  0.00     0.149 HD
ENDBRANCH   6  13
BRANCH   5  18
ATOM     18  N   LIG d   1      -3.303  76.811 115.357  0.00  0.00     0.381 N 
ATOM     19  H   LIG d   1      -3.012  77.224 114.494  0.00  0.00    -0.090 HD
ATOM     20  H   LIG d   1      -4.148  76.295 115.190  0.00  0.00    -0.090 HD
ATOM     21  H   LIG d   1      -2.593  76.200 115.697  0.00  0.00    -0.090 HD
ENDBRANCH   5  18
BRANCH   3  22
ATOM     22  C   LIG d   1      -2.355  81.322 116.657  0.00  0.00     0.382 C 
ATOM     23  O   LIG d   1      -1.619  81.466 117.662  0.00  0.00    -0.241 OA
ATOM     24  O   LIG d   1      -2.287  82.145 115.724  0.00  0.00    -0.241 OA
ENDBRANCH   3  22
TORSDOF 7
ENDMDL
MODEL 9
REMARK VINA RESULT:      -4.3      2.281      2.935
REMARK  7 active torsions:
REMARK  status: ('A' for Active; 'I' for Inactive)
REMARK    1  A    between atoms: C_2  and  C_3 
REMARK    2  A    between atoms: C_3  and  O_6 
REMARK    3  A    between atoms: C_3  and  C_4 
REMARK    4  A    between atoms: C_7  and  O_6 
REMARK    5  A    between atoms: C_9  and  C_10 
REMARK    6  A    between atoms: N_15  and  C_14 
REMARK    7  A    between atoms: N_20  and  C_19 
REMARK       I    between atoms: C_22  and  N_20 
ROOT
ATOM      1  C   LIG d   1      -3.697  78.209 116.220  0.00  0.00     0.161 C 
ATOM      2  C   LIG d   1      -3.106  78.137 114.948  0.00  0.00     0.016 C 
ATOM      3  C   LIG d   1      -3.491  77.199 113.963  0.00  0.00     0.038 C 
ATOM      4  C   LIG d   1      -4.604  76.361 114.131  0.00  0.00     0.028 C 
ATOM      5  C   LIG d   1      -4.913  76.051 115.592  0.00  0.00    -0.047 C 
ATOM      6  C   LIG d   1      -4.987  77.377 116.382  0.00  0.00     0.091 C 
ENDROOT
BRANCH   1   7
ATOM      7  O   LIG d   1      -3.941  79.586 116.569  0.00  0.00    -0.368 OA
BRANCH   7   8
ATOM      8  C   LIG d   1      -3.137  80.123 117.647  0.00  0.00     0.119 C 
BRANCH   8   9
ATOM      9  C   LIG d   1      -4.076  80.920 118.573  0.00  0.00     0.028 C 
ATOM     10  C   LIG d   1      -5.525  80.946 118.057  0.00  0.00     0.006 C 
ENDBRANCH   8   9
BRANCH   8  11
ATOM     11  C   LIG d   1      -2.118  81.142 117.128  0.00  0.00     0.028 C 
ATOM     12  C   LIG d   1      -2.444  81.642 115.712  0.00  0.00     0.006 C 
ENDBRANCH   8  11
ENDBRANCH   7   8
ENDBRANCH   1   7
BRANCH   6  13
ATOM     13  N   LIG d   1      -5.202  77.159 117.837  0.00  0.00    -0.311 N 
ATOM     14  C   LIG d   1      -6.402  77.194 118.414  0.00  0.00     0.210 C 
ATOM     15  C   LIG d   1      -6.398  76.963 119.928  0.00  0.00     0.109 C 
ATOM     16  O   LIG d   1      -7.472  77.362 117.810  0.00  0.00    -0.276 OA
ATOM     17  H   LIG d   1      -4.390  76.985 118.397  0.00  0.00     0.149 HD
ENDBRANCH   6  13
BRANCH   5  18
ATOM     18  N   LIG d   1      -6.173  75.285 115.628  0.00  0.00     0.381 N 
ATOM     19  H   LIG d   1      -6.515  75.240 116.567  0.00  0.00    -0.090 HD
ATOM     20  H   LIG d   1      -5.993  74.348 115.313  0.00  0.00    -0.090 HD
ATOM     21  H   LIG d   1      -6.851  75.717 115.040  0.00  0.00    -0.090 HD
ENDBRANCH   5  18
BRANCH   3  22
ATOM     22  C   LIG d   1      -2.735  77.064 112.809  0.00  0.00     0.382 C 
ATOM     23  O   LIG d   1      -1.538  76.695 112.883  0.00  0.00    -0.241 OA
ATOM     24  O   LIG d   1      -3.220  77.349 111.698  0.00  0.00    -0.241 OA
ENDBRANCH   3  22
TORSDOF 7
ENDMDL
