MODEL 1
REMARK VINA RESULT:      -5.5      0.000      0.000
REMARK  7 active torsions:
REMARK  status: ('A' for Active; 'I' for Inactive)
REMARK    1  A    between atoms: C_2  and  C_3 
REMARK    2  A    between atoms: C_3  and  O_6 
REMARK    3  A    between atoms: C_3  and  C_4 
REMARK    4  A    between atoms: C_7  and  O_6 
REMARK    5  A    between atoms: C_9  and  C_10 
REMARK    6  A    between atoms: N_15  and  C_14 
REMARK    7  A    between atoms: N_20  and  C_19 
REMARK       I    between atoms: C_22  and  N_20 
ROOT
ATOM      1  C   LIG d   1      -2.637  78.420 114.955  0.00  0.00     0.161 C 
ATOM      2  C   LIG d   1      -2.891  79.629 114.287  0.00  0.00     0.016 C 
ATOM      3  C   LIG d   1      -2.409  79.918 112.989  0.00  0.00     0.038 C 
ATOM      4  C   LIG d   1      -1.763  78.950 112.206  0.00  0.00     0.028 C 
ATOM      5  C   LIG d   1      -1.045  77.886 113.029  0.00  0.00    -0.047 C 
ATOM      6  C   LIG d   1      -2.029  77.309 114.073  0.00  0.00     0.091 C 
ENDROOT
BRANCH   1   7
ATOM      7  O   LIG d   1      -3.843  77.951 115.590  0.00  0.00    -0.368 OA
BRANCH   7   8
ATOM      8  C   LIG d   1      -4.240  78.648 116.797  0.00  0.00     0.119 C 
BRANCH   8   9
ATOM      9  C   LIG d   1      -3.093  78.501 117.815  0.00  0.00     0.028 C 
ATOM     10  C   LIG d   1      -2.959  77.064 118.346  0.00  0.00     0.006 C 
ENDBRANCH   8   9
BRANCH   8  11
ATOM     11  C   LIG d   1      -5.452  77.980 117.453  0.00  0.00     0.028 C 
ATOM     12  C   LIG d   1      -6.254  77.107 116.474  0.00  0.00     0.006 C 
ENDBRANCH   8  11
ENDBRANCH   7   8
ENDBRANCH   1   7
BRANCH   6  13
ATOM     13  N   LIG d   1      -1.383  76.321 114.976  0.00  0.00    -0.311 N 
ATOM     14  C   LIG d   1      -1.934  75.152 115.297  0.00  0.00     0.210 C 
ATOM     15  C   LIG d   1      -1.109  74.291 116.258  0.00  0.00     0.109 C 
ATOM     16  O   LIG d   1      -3.012  74.732 114.850  0.00  0.00    -0.276 OA
ATOM     17  H   LIG d   1      -0.491  76.568 115.358  0.00  0.00     0.149 HD
ENDBRANCH   6  13
BRANCH   5  18
ATOM     18  N   LIG d   1      -0.534  76.867 112.092  0.00  0.00     0.381 N 
ATOM     19  H   LIG d   1       0.464  76.927 112.038  0.00  0.00    -0.090 HD
ATOM     20  H   LIG d   1      -0.911  77.048 111.179  0.00  0.00    -0.090 HD
ATOM     21  H   LIG d   1      -0.803  75.958 112.397  0.00  0.00    -0.090 HD
ENDBRANCH   5  18
BRANCH   3  22
ATOM     22  C   LIG d   1      -2.537  81.200 112.478  0.00  0.00     0.382 C 
ATOM     23  O   LIG d   1      -1.513  81.869 112.199  0.00  0.00    -0.241 OA
ATOM     24  O   LIG d   1      -3.663  81.713 112.334  0.00  0.00    -0.241 OA
ENDBRANCH   3  22
TORSDOF 7
ENDMDL
MODEL 2
REMARK VINA RESULT:      -5.2      1.032      1.722
REMARK  7 active torsions:
REMARK  status: ('A' for Active; 'I' for Inactive)
REMARK    1  A    between atoms: C_2  and  C_3 
REMARK    2  A    between atoms: C_3  and  O_6 
REMARK    3  A    between atoms: C_3  and  C_4 
REMARK    4  A    between atoms: C_7  and  O_6 
REMARK    5  A    between atoms: C_9  and  C_10 
REMARK    6  A    between atoms: N_15  and  C_14 
REMARK    7  A    between atoms: N_20  and  C_19 
REMARK       I    between atoms: C_22  and  N_20 
ROOT
ATOM      1  C   LIG d   1      -3.017  78.309 115.439  0.00  0.00     0.161 C 
ATOM      2  C   LIG d   1      -3.089  79.434 114.601  0.00  0.00     0.016 C 
ATOM      3  C   LIG d   1      -2.316  79.580 113.426  0.00  0.00     0.038 C 
ATOM      4  C   LIG d   1      -1.523  78.537 112.926  0.00  0.00     0.028 C 
ATOM      5  C   LIG d   1      -1.032  77.578 114.005  0.00  0.00    -0.047 C 
ATOM      6  C   LIG d   1      -2.241  77.113 114.850  0.00  0.00     0.091 C 
ENDROOT
BRANCH   1   7
ATOM      7  O   LIG d   1      -4.345  77.903 115.826  0.00  0.00    -0.368 OA
BRANCH   7   8
ATOM      8  C   LIG d   1      -4.693  78.105 117.218  0.00  0.00     0.119 C 
BRANCH   8   9
ATOM      9  C   LIG d   1      -5.762  79.213 117.271  0.00  0.00     0.028 C 
ATOM     10  C   LIG d   1      -5.473  80.256 118.364  0.00  0.00     0.006 C 
ENDBRANCH   8   9
BRANCH   8  11
ATOM     11  C   LIG d   1      -3.504  78.650 118.016  0.00  0.00     0.028 C 
ATOM     12  C   LIG d   1      -3.009  77.669 119.090  0.00  0.00     0.006 C 
ENDBRANCH   8  11
ENDBRANCH   7   8
ENDBRANCH   1   7
BRANCH   6  13
ATOM     13  N   LIG d   1      -1.838  76.237 115.981  0.00  0.00    -0.311 N 
ATOM     14  C   LIG d   1      -2.468  75.106 116.294  0.00  0.00     0.210 C 
ATOM     15  C   LIG d   1      -1.903  74.365 117.509  0.00  0.00     0.109 C 
ATOM     16  O   LIG d   1      -3.422  74.630 115.660  0.00  0.00    -0.276 OA
ATOM     17  H   LIG d   1      -1.054  76.532 116.530  0.00  0.00     0.149 HD
ENDBRANCH   6  13
BRANCH   5  18
ATOM     18  N   LIG d   1      -0.336  76.466 113.331  0.00  0.00     0.381 N 
ATOM     19  H   LIG d   1       0.196  76.817 112.560  0.00  0.00    -0.090 HD
ATOM     20  H   LIG d   1      -1.021  75.822 112.974  0.00  0.00    -0.090 HD
ATOM     21  H   LIG d   1       0.265  76.000 113.974  0.00  0.00    -0.090 HD
ENDBRANCH   5  18
BRANCH   3  22
ATOM     22  C   LIG d   1      -2.300  80.797 112.761  0.00  0.00     0.382 C 
ATOM     23  O   LIG d   1      -1.206  81.347 112.486  0.00  0.00    -0.241 OA
ATOM     24  O   LIG d   1      -3.366  81.372 112.471  0.00  0.00    -0.241 OA
ENDBRANCH   3  22
TORSDOF 7
ENDMDL
MODEL 3
REMARK VINA RESULT:      -5.2      1.938      2.631
REMARK  7 active torsions:
REMARK  status: ('A' for Active; 'I' for Inactive)
REMARK    1  A    between atoms: C_2  and  C_3 
REMARK    2  A    between atoms: C_3  and  O_6 
REMARK    3  A    between atoms: C_3  and  C_4 
REMARK    4  A    between atoms: C_7  and  O_6 
REMARK    5  A    between atoms: C_9  and  C_10 
REMARK    6  A    between atoms: N_15  and  C_14 
REMARK    7  A    between atoms: N_20  and  C_19 
REMARK       I    between atoms: C_22  and  N_20 
ROOT
ATOM      1  C   LIG d   1      -3.391  77.035 114.967  0.00  0.00     0.161 C 
ATOM      2  C   LIG d   1      -3.436  77.585 113.675  0.00  0.00     0.016 C 
ATOM      3  C   LIG d   1      -2.293  77.750 112.859  0.00  0.00     0.038 C 
ATOM      4  C   LIG d   1      -1.041  77.232 113.224  0.00  0.00     0.028 C 
ATOM      5  C   LIG d   1      -0.848  77.120 114.732  0.00  0.00    -0.047 C 
ATOM      6  C   LIG d   1      -2.052  76.364 115.338  0.00  0.00     0.091 C 
ENDROOT
BRANCH   1   7
ATOM      7  O   LIG d   1      -4.482  76.109 115.142  0.00  0.00    -0.368 OA
BRANCH   7   8
ATOM      8  C   LIG d   1      -5.758  76.689 115.508  0.00  0.00     0.119 C 
BRANCH   8   9
ATOM      9  C   LIG d   1      -5.653  77.152 116.974  0.00  0.00     0.028 C 
ATOM     10  C   LIG d   1      -5.707  78.683 117.111  0.00  0.00     0.006 C 
ENDBRANCH   8   9
BRANCH   8  11
ATOM     11  C   LIG d   1      -6.872  75.639 115.493  0.00  0.00     0.028 C 
ATOM     12  C   LIG d   1      -7.999  75.951 116.490  0.00  0.00     0.006 C 
ENDBRANCH   8  11
ENDBRANCH   7   8
ENDBRANCH   1   7
BRANCH   6  13
ATOM     13  N   LIG d   1      -1.984  76.284 116.820  0.00  0.00    -0.311 N 
ATOM     14  C   LIG d   1      -1.532  75.217 117.477  0.00  0.00     0.210 C 
ATOM     15  C   LIG d   1      -1.566  75.335 119.004  0.00  0.00     0.109 C 
ATOM     16  O   LIG d   1      -1.076  74.196 116.939  0.00  0.00    -0.276 OA
ATOM     17  H   LIG d   1      -2.305  77.080 117.335  0.00  0.00     0.149 HD
ENDBRANCH   6  13
BRANCH   5  18
ATOM     18  N   LIG d   1       0.440  76.441 114.967  0.00  0.00     0.381 N 
ATOM     19  H   LIG d   1       1.030  77.019 115.531  0.00  0.00    -0.090 HD
ATOM     20  H   LIG d   1       0.894  76.291 114.084  0.00  0.00    -0.090 HD
ATOM     21  H   LIG d   1       0.286  75.567 115.422  0.00  0.00    -0.090 HD
ENDBRANCH   5  18
BRANCH   3  22
ATOM     22  C   LIG d   1      -2.389  78.474 111.681  0.00  0.00     0.382 C 
ATOM     23  O   LIG d   1      -2.286  79.724 111.703  0.00  0.00    -0.241 OA
ATOM     24  O   LIG d   1      -2.622  77.897 110.602  0.00  0.00    -0.241 OA
ENDBRANCH   3  22
TORSDOF 7
ENDMDL
MODEL 4
REMARK VINA RESULT:      -5.1      2.702      5.147
REMARK  7 active torsions:
REMARK  status: ('A' for Active; 'I' for Inactive)
REMARK    1  A    between atoms: C_2  and  C_3 
REMARK    2  A    between atoms: C_3  and  O_6 
REMARK    3  A    between atoms: C_3  and  C_4 
REMARK    4  A    between atoms: C_7  and  O_6 
REMARK    5  A    between atoms: C_9  and  C_10 
REMARK    6  A    between atoms: N_15  and  C_14 
REMARK    7  A    between atoms: N_20  and  C_19 
REMARK       I    between atoms: C_22  and  N_20 
ROOT
ATOM      1  C   LIG d   1      -1.542  75.954 115.044  0.00  0.00     0.161 C 
ATOM      2  C   LIG d   1      -1.345  75.624 116.395  0.00  0.00     0.016 C 
ATOM      3  C   LIG d   1      -0.698  76.478 117.318  0.00  0.00     0.038 C 
ATOM      4  C   LIG d   1      -0.337  77.792 116.985  0.00  0.00     0.028 C 
ATOM      5  C   LIG d   1      -0.061  77.986 115.498  0.00  0.00    -0.047 C 
ATOM      6  C   LIG d   1      -1.254  77.428 114.689  0.00  0.00     0.091 C 
ENDROOT
BRANCH   1   7
ATOM      7  O   LIG d   1      -2.879  75.594 114.643  0.00  0.00    -0.368 OA
BRANCH   7   8
ATOM      8  C   LIG d   1      -3.868  75.537 115.701  0.00  0.00     0.119 C 
BRANCH   8   9
ATOM      9  C   LIG d   1      -4.949  74.527 115.270  0.00  0.00     0.028 C 
ATOM     10  C   LIG d   1      -5.536  74.851 113.886  0.00  0.00     0.006 C 
ENDBRANCH   8   9
BRANCH   8  11
ATOM     11  C   LIG d   1      -4.599  76.875 115.852  0.00  0.00     0.028 C 
ATOM     12  C   LIG d   1      -4.463  77.472 117.262  0.00  0.00     0.006 C 
ENDBRANCH   8  11
ENDBRANCH   7   8
ENDBRANCH   1   7
BRANCH   6  13
ATOM     13  N   LIG d   1      -1.029  77.502 113.222  0.00  0.00    -0.311 N 
ATOM     14  C   LIG d   1      -1.941  77.952 112.362  0.00  0.00     0.210 C 
ATOM     15  C   LIG d   1      -1.511  77.925 110.892  0.00  0.00     0.109 C 
ATOM     16  O   LIG d   1      -3.052  78.401 112.680  0.00  0.00    -0.276 OA
ATOM     17  H   LIG d   1      -0.142  77.187 112.881  0.00  0.00     0.149 HD
ENDBRANCH   6  13
BRANCH   5  18
ATOM     18  N   LIG d   1       0.168  79.426 115.272  0.00  0.00     0.381 N 
ATOM     19  H   LIG d   1       0.013  79.931 116.121  0.00  0.00    -0.090 HD
ATOM     20  H   LIG d   1      -0.487  79.755 114.585  0.00  0.00    -0.090 HD
ATOM     21  H   LIG d   1       1.099  79.577 114.952  0.00  0.00    -0.090 HD
ENDBRANCH   5  18
BRANCH   3  22
ATOM     22  C   LIG d   1      -0.371  76.004 118.580  0.00  0.00     0.382 C 
ATOM     23  O   LIG d   1       0.316  76.711 119.356  0.00  0.00    -0.241 OA
ATOM     24  O   LIG d   1      -0.715  74.861 118.934  0.00  0.00    -0.241 OA
ENDBRANCH   3  22
TORSDOF 7
ENDMDL
MODEL 5
REMARK VINA RESULT:      -5.1      2.182      5.195
REMARK  7 active torsions:
REMARK  status: ('A' for Active; 'I' for Inactive)
REMARK    1  A    between atoms: C_2  and  C_3 
REMARK    2  A    between atoms: C_3  and  O_6 
REMARK    3  A    between atoms: C_3  and  C_4 
REMARK    4  A    between atoms: C_7  and  O_6 
REMARK    5  A    between atoms: C_9  and  C_10 
REMARK    6  A    between atoms: N_15  and  C_14 
REMARK    7  A    between atoms: N_20  and  C_19 
REMARK       I    between atoms: C_22  and  N_20 
ROOT
ATOM      1  C   LIG d   1      -3.564  76.546 115.534  0.00  0.00     0.161 C 
ATOM      2  C   LIG d   1      -3.384  76.041 116.833  0.00  0.00     0.016 C 
ATOM      3  C   LIG d   1      -2.157  76.112 117.532  0.00  0.00     0.038 C 
ATOM      4  C   LIG d   1      -1.060  76.832 117.034  0.00  0.00     0.028 C 
ATOM      5  C   LIG d   1      -1.037  76.924 115.512  0.00  0.00    -0.047 C 
ATOM      6  C   LIG d   1      -2.411  77.433 115.019  0.00  0.00     0.091 C 
ENDROOT
BRANCH   1   7
ATOM      7  O   LIG d   1      -4.816  77.256 115.455  0.00  0.00    -0.368 OA
BRANCH   7   8
ATOM      8  C   LIG d   1      -5.863  76.803 116.349  0.00  0.00     0.119 C 
BRANCH   8   9
ATOM      9  C   LIG d   1      -6.951  76.135 115.487  0.00  0.00     0.028 C 
ATOM     10  C   LIG d   1      -8.245  75.872 116.276  0.00  0.00     0.006 C 
ENDBRANCH   8   9
BRANCH   8  11
ATOM     11  C   LIG d   1      -6.557  77.983 117.036  0.00  0.00     0.028 C 
ATOM     12  C   LIG d   1      -5.615  79.175 117.269  0.00  0.00     0.006 C 
ENDBRANCH   8  11
ENDBRANCH   7   8
ENDBRANCH   1   7
BRANCH   6  13
ATOM     13  N   LIG d   1      -2.502  77.472 113.536  0.00  0.00    -0.311 N 
ATOM     14  C   LIG d   1      -2.247  78.562 112.815  0.00  0.00     0.210 C 
ATOM     15  C   LIG d   1      -2.420  78.392 111.303  0.00  0.00     0.109 C 
ATOM     16  O   LIG d   1      -1.862  79.645 113.282  0.00  0.00    -0.276 OA
ATOM     17  H   LIG d   1      -2.778  76.628 113.074  0.00  0.00     0.149 HD
ENDBRANCH   6  13
BRANCH   5  18
ATOM     18  N   LIG d   1       0.077  77.815 115.137  0.00  0.00     0.381 N 
ATOM     19  H   LIG d   1       0.946  77.407 115.419  0.00  0.00    -0.090 HD
ATOM     20  H   LIG d   1      -0.030  78.691 115.617  0.00  0.00    -0.090 HD
ATOM     21  H   LIG d   1       0.077  77.965 114.152  0.00  0.00    -0.090 HD
ENDBRANCH   5  18
BRANCH   3  22
ATOM     22  C   LIG d   1      -2.005  75.424 118.726  0.00  0.00     0.382 C 
ATOM     23  O   LIG d   1      -2.022  76.046 119.815  0.00  0.00    -0.241 OA
ATOM     24  O   LIG d   1      -1.808  74.194 118.725  0.00  0.00    -0.241 OA
ENDBRANCH   3  22
TORSDOF 7
ENDMDL
MODEL 6
REMARK VINA RESULT:      -5.0      3.859      5.169
REMARK  7 active torsions:
REMARK  status: ('A' for Active; 'I' for Inactive)
REMARK    1  A    between atoms: C_2  and  C_3 
REMARK    2  A    between atoms: C_3  and  O_6 
REMARK    3  A    between atoms: C_3  and  C_4 
REMARK    4  A    between atoms: C_7  and  O_6 
REMARK    5  A    between atoms: C_9  and  C_10 
REMARK    6  A    between atoms: N_15  and  C_14 
REMARK    7  A    between atoms: N_20  and  C_19 
REMARK       I    between atoms: C_22  and  N_20 
ROOT
ATOM      1  C   LIG d   1      -5.811  77.494 116.877  0.00  0.00     0.161 C 
ATOM      2  C   LIG d   1      -6.524  78.673 117.148  0.00  0.00     0.016 C 
ATOM      3  C   LIG d   1      -5.952  79.799 117.784  0.00  0.00     0.038 C 
ATOM      4  C   LIG d   1      -4.579  79.878 118.059  0.00  0.00     0.028 C 
ATOM      5  C   LIG d   1      -3.922  78.517 118.262  0.00  0.00    -0.047 C 
ATOM      6  C   LIG d   1      -4.283  77.603 117.068  0.00  0.00     0.091 C 
ENDROOT
BRANCH   1   7
ATOM      7  O   LIG d   1      -6.117  77.032 115.546  0.00  0.00    -0.368 OA
BRANCH   7   8
ATOM      8  C   LIG d   1      -6.982  75.874 115.457  0.00  0.00     0.119 C 
BRANCH   8   9
ATOM      9  C   LIG d   1      -7.791  75.798 116.766  0.00  0.00     0.028 C 
ATOM     10  C   LIG d   1      -9.228  75.299 116.540  0.00  0.00     0.006 C 
ENDBRANCH   8   9
BRANCH   8  11
ATOM     11  C   LIG d   1      -6.171  74.575 115.405  0.00  0.00     0.028 C 
ATOM     12  C   LIG d   1      -5.164  74.548 114.245  0.00  0.00     0.006 C 
ENDBRANCH   8  11
ENDBRANCH   7   8
ENDBRANCH   1   7
BRANCH   6  13
ATOM     13  N   LIG d   1      -3.751  76.224 117.229  0.00  0.00    -0.311 N 
ATOM     14  C   LIG d   1      -2.587  75.824 116.719  0.00  0.00     0.210 C 
ATOM     15  C   LIG d   1      -2.236  74.357 116.984  0.00  0.00     0.109 C 
ATOM     16  O   LIG d   1      -1.798  76.554 116.100  0.00  0.00    -0.276 OA
ATOM     17  H   LIG d   1      -4.313  75.575 117.744  0.00  0.00     0.149 HD
ENDBRANCH   6  13
BRANCH   5  18
ATOM     18  N   LIG d   1      -2.471  78.738 118.402  0.00  0.00     0.381 N 
ATOM     19  H   LIG d   1      -1.979  78.203 117.715  0.00  0.00    -0.090 HD
ATOM     20  H   LIG d   1      -2.181  78.426 119.312  0.00  0.00    -0.090 HD
ATOM     21  H   LIG d   1      -2.261  79.706 118.292  0.00  0.00    -0.090 HD
ENDBRANCH   5  18
BRANCH   3  22
ATOM     22  C   LIG d   1      -6.766  80.846 118.189  0.00  0.00     0.382 C 
ATOM     23  O   LIG d   1      -7.333  81.567 117.333  0.00  0.00    -0.241 OA
ATOM     24  O   LIG d   1      -6.905  81.107 119.399  0.00  0.00    -0.241 OA
ENDBRANCH   3  22
TORSDOF 7
ENDMDL
MODEL 7
REMARK VINA RESULT:      -5.0      3.147      5.653
REMARK  7 active torsions:
REMARK  status: ('A' for Active; 'I' for Inactive)
REMARK    1  A    between atoms: C_2  and  C_3 
REMARK    2  A    between atoms: C_3  and  O_6 
REMARK    3  A    between atoms: C_3  and  C_4 
REMARK    4  A    between atoms: C_7  and  O_6 
REMARK    5  A    between atoms: C_9  and  C_10 
REMARK    6  A    between atoms: N_15  and  C_14 
REMARK    7  A    between atoms: N_20  and  C_19 
REMARK       I    between atoms: C_22  and  N_20 
ROOT
ATOM      1  C   LIG d   1      -5.953  77.344 116.623  0.00  0.00     0.161 C 
ATOM      2  C   LIG d   1      -7.238  76.941 117.022  0.00  0.00     0.016 C 
ATOM      3  C   LIG d   1      -7.850  75.745 116.584  0.00  0.00     0.038 C 
ATOM      4  C   LIG d   1      -7.153  74.789 115.830  0.00  0.00     0.028 C 
ATOM      5  C   LIG d   1      -6.031  75.383 114.986  0.00  0.00    -0.047 C 
ATOM      6  C   LIG d   1      -5.134  76.261 115.890  0.00  0.00     0.091 C 
ENDROOT
BRANCH   1   7
ATOM      7  O   LIG d   1      -5.221  77.841 117.761  0.00  0.00    -0.368 OA
BRANCH   7   8
ATOM      8  C   LIG d   1      -4.778  79.218 117.682  0.00  0.00     0.119 C 
BRANCH   8   9
ATOM      9  C   LIG d   1      -3.352  79.279 118.265  0.00  0.00     0.028 C 
ATOM     10  C   LIG d   1      -2.728  77.884 118.438  0.00  0.00     0.006 C 
ENDBRANCH   8   9
BRANCH   8  11
ATOM     11  C   LIG d   1      -5.622  80.127 118.579  0.00  0.00     0.028 C 
ATOM     12  C   LIG d   1      -6.685  80.915 117.797  0.00  0.00     0.006 C 
ENDBRANCH   8  11
ENDBRANCH   7   8
ENDBRANCH   1   7
BRANCH   6  13
ATOM     13  N   LIG d   1      -4.060  76.948 115.127  0.00  0.00    -0.311 N 
ATOM     14  C   LIG d   1      -2.835  76.449 114.973  0.00  0.00     0.210 C 
ATOM     15  C   LIG d   1      -1.874  77.328 114.167  0.00  0.00     0.109 C 
ATOM     16  O   LIG d   1      -2.463  75.346 115.401  0.00  0.00    -0.276 OA
ATOM     17  H   LIG d   1      -4.286  77.835 114.720  0.00  0.00     0.149 HD
ENDBRANCH   6  13
BRANCH   5  18
ATOM     18  N   LIG d   1      -5.301  74.264 114.361  0.00  0.00     0.381 N 
ATOM     19  H   LIG d   1      -4.322  74.466 114.343  0.00  0.00    -0.090 HD
ATOM     20  H   LIG d   1      -5.619  74.157 113.414  0.00  0.00    -0.090 HD
ATOM     21  H   LIG d   1      -5.465  73.423 114.871  0.00  0.00    -0.090 HD
ENDBRANCH   5  18
BRANCH   3  22
ATOM     22  C   LIG d   1      -9.188  75.513 116.866  0.00  0.00     0.382 C 
ATOM     23  O   LIG d   1      -9.718  74.424 116.539  0.00  0.00    -0.241 OA
ATOM     24  O   LIG d   1      -9.882  76.396 117.405  0.00  0.00    -0.241 OA
ENDBRANCH   3  22
TORSDOF 7
ENDMDL
MODEL 8
REMARK VINA RESULT:      -4.9      3.278      5.159
REMARK  7 active torsions:
REMARK  status: ('A' for Active; 'I' for Inactive)
REMARK    1  A    between atoms: C_2  and  C_3 
REMARK    2  A    between atoms: C_3  and  O_6 
REMARK    3  A    between atoms: C_3  and  C_4 
REMARK    4  A    between atoms: C_7  and  O_6 
REMARK    5  A    between atoms: C_9  and  C_10 
REMARK    6  A    between atoms: N_15  and  C_14 
REMARK    7  A    between atoms: N_20  and  C_19 
REMARK       I    between atoms: C_22  and  N_20 
ROOT
ATOM      1  C   LIG d   1      -5.457  78.478 117.283  0.00  0.00     0.161 C 
ATOM      2  C   LIG d   1      -4.149  78.945 117.070  0.00  0.00     0.016 C 
ATOM      3  C   LIG d   1      -3.196  78.257 116.285  0.00  0.00     0.038 C 
ATOM      4  C   LIG d   1      -3.535  77.124 115.531  0.00  0.00     0.028 C 
ATOM      5  C   LIG d   1      -4.702  76.335 116.115  0.00  0.00    -0.047 C 
ATOM      6  C   LIG d   1      -5.879  77.301 116.378  0.00  0.00     0.091 C 
ENDROOT
BRANCH   1   7
ATOM      7  O   LIG d   1      -6.392  79.568 117.156  0.00  0.00    -0.368 OA
BRANCH   7   8
ATOM      8  C   LIG d   1      -7.042  79.996 118.377  0.00  0.00     0.119 C 
BRANCH   8   9
ATOM      9  C   LIG d   1      -8.529  80.235 118.051  0.00  0.00     0.028 C 
ATOM     10  C   LIG d   1      -9.407  79.018 118.388  0.00  0.00     0.006 C 
ENDBRANCH   8   9
BRANCH   8  11
ATOM     11  C   LIG d   1      -6.508  81.351 118.848  0.00  0.00     0.028 C 
ATOM     12  C   LIG d   1      -7.531  82.486 118.682  0.00  0.00     0.006 C 
ENDBRANCH   8  11
ENDBRANCH   7   8
ENDBRANCH   1   7
BRANCH   6  13
ATOM     13  N   LIG d   1      -7.032  76.626 117.028  0.00  0.00    -0.311 N 
ATOM     14  C   LIG d   1      -8.026  76.055 116.349  0.00  0.00     0.210 C 
ATOM     15  C   LIG d   1      -9.126  75.432 117.213  0.00  0.00     0.109 C 
ATOM     16  O   LIG d   1      -8.084  75.978 115.112  0.00  0.00    -0.276 OA
ATOM     17  H   LIG d   1      -7.050  76.614 118.029  0.00  0.00     0.149 HD
ENDBRANCH   6  13
BRANCH   5  18
ATOM     18  N   LIG d   1      -5.037  75.262 115.159  0.00  0.00     0.381 N 
ATOM     19  H   LIG d   1      -4.204  74.930 114.716  0.00  0.00    -0.090 HD
ATOM     20  H   LIG d   1      -5.643  75.636 114.450  0.00  0.00    -0.090 HD
ATOM     21  H   LIG d   1      -5.491  74.513 115.633  0.00  0.00    -0.090 HD
ENDBRANCH   5  18
BRANCH   3  22
ATOM     22  C   LIG d   1      -1.875  78.680 116.280  0.00  0.00     0.382 C 
ATOM     23  O   LIG d   1      -1.487  79.512 115.426  0.00  0.00    -0.241 OA
ATOM     24  O   LIG d   1      -1.058  78.207 117.092  0.00  0.00    -0.241 OA
ENDBRANCH   3  22
TORSDOF 7
ENDMDL
MODEL 9
REMARK VINA RESULT:      -4.9      2.195      3.254
REMARK  7 active torsions:
REMARK  status: ('A' for Active; 'I' for Inactive)
REMARK    1  A    between atoms: C_2  and  C_3 
REMARK    2  A    between atoms: C_3  and  O_6 
REMARK    3  A    between atoms: C_3  and  C_4 
REMARK    4  A    between atoms: C_7  and  O_6 
REMARK    5  A    between atoms: C_9  and  C_10 
REMARK    6  A    between atoms: N_15  and  C_14 
REMARK    7  A    between atoms: N_20  and  C_19 
REMARK       I    between atoms: C_22  and  N_20 
ROOT
ATOM      1  C   LIG d   1      -3.310  76.589 116.438  0.00  0.00     0.161 C 
ATOM      2  C   LIG d   1      -3.267  77.652 115.520  0.00  0.00     0.016 C 
ATOM      3  C   LIG d   1      -2.278  77.774 114.517  0.00  0.00     0.038 C 
ATOM      4  C   LIG d   1      -1.348  76.755 114.265  0.00  0.00     0.028 C 
ATOM      5  C   LIG d   1      -1.040  75.900 115.490  0.00  0.00    -0.047 C 
ATOM      6  C   LIG d   1      -2.369  75.411 116.108  0.00  0.00     0.091 C 
ENDROOT
BRANCH   1   7
ATOM      7  O   LIG d   1      -4.666  76.122 116.581  0.00  0.00    -0.368 OA
BRANCH   7   8
ATOM      8  C   LIG d   1      -5.687  76.919 115.930  0.00  0.00     0.119 C 
BRANCH   8   9
ATOM      9  C   LIG d   1      -6.679  77.377 117.016  0.00  0.00     0.028 C 
ATOM     10  C   LIG d   1      -7.941  76.498 117.067  0.00  0.00     0.006 C 
ENDBRANCH   8   9
BRANCH   8  11
ATOM     11  C   LIG d   1      -6.513  76.076 114.955  0.00  0.00     0.028 C 
ATOM     12  C   LIG d   1      -5.675  75.512 113.797  0.00  0.00     0.006 C 
ENDBRANCH   8  11
ENDBRANCH   7   8
ENDBRANCH   1   7
BRANCH   6  13
ATOM     13  N   LIG d   1      -2.162  74.637 117.359  0.00  0.00    -0.311 N 
ATOM     14  C   LIG d   1      -1.626  75.157 118.463  0.00  0.00     0.210 C 
ATOM     15  C   LIG d   1      -1.484  74.180 119.634  0.00  0.00     0.109 C 
ATOM     16  O   LIG d   1      -1.286  76.342 118.593  0.00  0.00    -0.276 OA
ATOM     17  H   LIG d   1      -2.439  73.675 117.352  0.00  0.00     0.149 HD
ENDBRANCH   6  13
BRANCH   5  18
ATOM     18  N   LIG d   1      -0.165  74.796 115.053  0.00  0.00     0.381 N 
ATOM     19  H   LIG d   1       0.119  74.255 115.846  0.00  0.00    -0.090 HD
ATOM     20  H   LIG d   1       0.658  75.182 114.625  0.00  0.00    -0.090 HD
ATOM     21  H   LIG d   1      -0.646  74.216 114.401  0.00  0.00    -0.090 HD
ENDBRANCH   5  18
BRANCH   3  22
ATOM     22  C   LIG d   1      -2.189  78.944 113.779  0.00  0.00     0.382 C 
ATOM     23  O   LIG d   1      -3.007  79.165 112.853  0.00  0.00    -0.241 OA
ATOM     24  O   LIG d   1      -1.275  79.761 113.997  0.00  0.00    -0.241 OA
ENDBRANCH   3  22
TORSDOF 7
ENDMDL
