MODEL 1
REMARK VINA RESULT:      -5.3      0.000      0.000
REMARK  7 active torsions:
REMARK  status: ('A' for Active; 'I' for Inactive)
REMARK    1  A    between atoms: C_2  and  C_3 
REMARK    2  A    between atoms: C_3  and  O_6 
REMARK    3  A    between atoms: C_3  and  C_4 
REMARK    4  A    between atoms: C_7  and  O_6 
REMARK    5  A    between atoms: C_9  and  C_10 
REMARK    6  A    between atoms: N_15  and  C_14 
REMARK    7  A    between atoms: N_20  and  C_19 
REMARK       I    between atoms: C_22  and  N_20 
ROOT
ATOM      1  C   LIG d   1      -2.399  80.453 114.998  0.00  0.00     0.161 C 
ATOM      2  C   LIG d   1      -2.091  81.610 114.264  0.00  0.00     0.016 C 
ATOM      3  C   LIG d   1      -1.521  81.582 112.970  0.00  0.00     0.038 C 
ATOM      4  C   LIG d   1      -1.358  80.384 112.258  0.00  0.00     0.028 C 
ATOM      5  C   LIG d   1      -1.186  79.164 113.156  0.00  0.00    -0.047 C 
ATOM      6  C   LIG d   1      -2.331  79.139 114.193  0.00  0.00     0.091 C 
ENDROOT
BRANCH   1   7
ATOM      7  O   LIG d   1      -3.694  80.596 115.616  0.00  0.00    -0.368 OA
BRANCH   7   8
ATOM      8  C   LIG d   1      -3.734  81.369 116.840  0.00  0.00     0.119 C 
BRANCH   8   9
ATOM      9  C   LIG d   1      -2.678  80.780 117.795  0.00  0.00     0.028 C 
ATOM     10  C   LIG d   1      -1.690  81.842 118.305  0.00  0.00     0.006 C 
ENDBRANCH   8   9
BRANCH   8  11
ATOM     11  C   LIG d   1      -5.074  81.199 117.563  0.00  0.00     0.028 C 
ATOM     12  C   LIG d   1      -5.355  82.326 118.570  0.00  0.00     0.006 C 
ENDBRANCH   8  11
ENDBRANCH   7   8
ENDBRANCH   1   7
BRANCH   6  13
ATOM     13  N   LIG d   1      -2.192  78.023 115.165  0.00  0.00    -0.311 N 
ATOM     14  C   LIG d   1      -2.765  76.832 115.001  0.00  0.00     0.210 C 
ATOM     15  C   LIG d   1      -2.509  75.830 116.131  0.00  0.00     0.109 C 
ATOM     16  O   LIG d   1      -3.433  76.499 114.011  0.00  0.00    -0.276 OA
ATOM     17  H   LIG d   1      -1.640  78.196 115.982  0.00  0.00     0.149 HD
ENDBRANCH   6  13
BRANCH   5  18
ATOM     18  N   LIG d   1      -1.165  77.971 112.288  0.00  0.00     0.381 N 
ATOM     19  H   LIG d   1      -0.481  78.089 111.568  0.00  0.00    -0.090 HD
ATOM     20  H   LIG d   1      -2.065  77.869 111.855  0.00  0.00    -0.090 HD
ATOM     21  H   LIG d   1      -0.953  77.161 112.828  0.00  0.00    -0.090 HD
ENDBRANCH   5  18
BRANCH   3  22
ATOM     22  C   LIG d   1      -1.069  82.759 112.392  0.00  0.00     0.382 C 
ATOM     23  O   LIG d   1      -1.495  83.107 111.265  0.00  0.00    -0.241 OA
ATOM     24  O   LIG d   1      -0.209  83.454 112.965  0.00  0.00    -0.241 OA
ENDBRANCH   3  22
TORSDOF 7
ENDMDL
MODEL 2
REMARK VINA RESULT:      -5.2      1.305      2.157
REMARK  7 active torsions:
REMARK  status: ('A' for Active; 'I' for Inactive)
REMARK    1  A    between atoms: C_2  and  C_3 
REMARK    2  A    between atoms: C_3  and  O_6 
REMARK    3  A    between atoms: C_3  and  C_4 
REMARK    4  A    between atoms: C_7  and  O_6 
REMARK    5  A    between atoms: C_9  and  C_10 
REMARK    6  A    between atoms: N_15  and  C_14 
REMARK    7  A    between atoms: N_20  and  C_19 
REMARK       I    between atoms: C_22  and  N_20 
ROOT
ATOM      1  C   LIG d   1      -1.646  80.845 113.954  0.00  0.00     0.161 C 
ATOM      2  C   LIG d   1      -1.571  82.146 113.429  0.00  0.00     0.016 C 
ATOM      3  C   LIG d   1      -0.994  82.447 112.174  0.00  0.00     0.038 C 
ATOM      4  C   LIG d   1      -0.586  81.441 111.286  0.00  0.00     0.028 C 
ATOM      5  C   LIG d   1      -0.180  80.146 111.982  0.00  0.00    -0.047 C 
ATOM      6  C   LIG d   1      -1.307  79.723 112.951  0.00  0.00     0.091 C 
ENDROOT
BRANCH   1   7
ATOM      7  O   LIG d   1      -2.949  80.626 114.530  0.00  0.00    -0.368 OA
BRANCH   7   8
ATOM      8  C   LIG d   1      -2.985  80.418 115.964  0.00  0.00     0.119 C 
BRANCH   8   9
ATOM      9  C   LIG d   1      -3.836  81.549 116.574  0.00  0.00     0.028 C 
ATOM     10  C   LIG d   1      -5.037  81.014 117.372  0.00  0.00     0.006 C 
ENDBRANCH   8   9
BRANCH   8  11
ATOM     11  C   LIG d   1      -1.594  80.576 116.585  0.00  0.00     0.028 C 
ATOM     12  C   LIG d   1      -1.477  81.825 117.473  0.00  0.00     0.006 C 
ENDBRANCH   8  11
ENDBRANCH   7   8
ENDBRANCH   1   7
BRANCH   6  13
ATOM     13  N   LIG d   1      -0.955  78.511 113.735  0.00  0.00    -0.311 N 
ATOM     14  C   LIG d   1      -1.755  77.452 113.847  0.00  0.00     0.210 C 
ATOM     15  C   LIG d   1      -1.208  76.317 114.719  0.00  0.00     0.109 C 
ATOM     16  O   LIG d   1      -2.852  77.331 113.281  0.00  0.00    -0.276 OA
ATOM     17  H   LIG d   1      -0.069  78.511 114.202  0.00  0.00     0.149 HD
ENDBRANCH   6  13
BRANCH   5  18
ATOM     18  N   LIG d   1       0.089  79.143 110.935  0.00  0.00     0.381 N 
ATOM     19  H   LIG d   1      -0.182  78.235 111.257  0.00  0.00    -0.090 HD
ATOM     20  H   LIG d   1       1.076  79.128 110.745  0.00  0.00    -0.090 HD
ATOM     21  H   LIG d   1      -0.413  79.372 110.105  0.00  0.00    -0.090 HD
ENDBRANCH   5  18
BRANCH   3  22
ATOM     22  C   LIG d   1      -0.783  83.769 111.813  0.00  0.00     0.382 C 
ATOM     23  O   LIG d   1      -0.787  84.666 112.690  0.00  0.00    -0.241 OA
ATOM     24  O   LIG d   1      -0.634  84.081 110.617  0.00  0.00    -0.241 OA
ENDBRANCH   3  22
TORSDOF 7
ENDMDL
MODEL 3
REMARK VINA RESULT:      -5.1      4.274      6.468
REMARK  7 active torsions:
REMARK  status: ('A' for Active; 'I' for Inactive)
REMARK    1  A    between atoms: C_2  and  C_3 
REMARK    2  A    between atoms: C_3  and  O_6 
REMARK    3  A    between atoms: C_3  and  C_4 
REMARK    4  A    between atoms: C_7  and  O_6 
REMARK    5  A    between atoms: C_9  and  C_10 
REMARK    6  A    between atoms: N_15  and  C_14 
REMARK    7  A    between atoms: N_20  and  C_19 
REMARK       I    between atoms: C_22  and  N_20 
ROOT
ATOM      1  C   LIG d   1      -5.667  77.225 117.179  0.00  0.00     0.161 C 
ATOM      2  C   LIG d   1      -6.565  78.219 117.603  0.00  0.00     0.016 C 
ATOM      3  C   LIG d   1      -6.167  79.530 117.953  0.00  0.00     0.038 C 
ATOM      4  C   LIG d   1      -4.853  79.983 117.756  0.00  0.00     0.028 C 
ATOM      5  C   LIG d   1      -3.814  78.868 117.808  0.00  0.00    -0.047 C 
ATOM      6  C   LIG d   1      -4.247  77.733 116.853  0.00  0.00     0.091 C 
ENDROOT
BRANCH   1   7
ATOM      7  O   LIG d   1      -6.219  76.518 116.051  0.00  0.00    -0.368 OA
BRANCH   7   8
ATOM      8  C   LIG d   1      -6.195  75.072 116.132  0.00  0.00     0.119 C 
BRANCH   8   9
ATOM      9  C   LIG d   1      -5.473  74.550 114.874  0.00  0.00     0.028 C 
ATOM     10  C   LIG d   1      -5.301  75.638 113.802  0.00  0.00     0.006 C 
ENDBRANCH   8   9
BRANCH   8  11
ATOM     11  C   LIG d   1      -7.608  74.486 116.061  0.00  0.00     0.028 C 
ATOM     12  C   LIG d   1      -8.703  75.562 116.131  0.00  0.00     0.006 C 
ENDBRANCH   8  11
ENDBRANCH   7   8
ENDBRANCH   1   7
BRANCH   6  13
ATOM     13  N   LIG d   1      -3.329  76.566 116.906  0.00  0.00    -0.311 N 
ATOM     14  C   LIG d   1      -2.351  76.362 116.025  0.00  0.00     0.210 C 
ATOM     15  C   LIG d   1      -1.533  75.086 116.251  0.00  0.00     0.109 C 
ATOM     16  O   LIG d   1      -2.062  77.133 115.098  0.00  0.00    -0.276 OA
ATOM     17  H   LIG d   1      -3.473  75.906 117.645  0.00  0.00     0.149 HD
ENDBRANCH   6  13
BRANCH   5  18
ATOM     18  N   LIG d   1      -2.510  79.458 117.451  0.00  0.00     0.381 N 
ATOM     19  H   LIG d   1      -1.905  78.748 117.088  0.00  0.00    -0.090 HD
ATOM     20  H   LIG d   1      -2.087  79.838 118.280  0.00  0.00    -0.090 HD
ATOM     21  H   LIG d   1      -2.635  80.177 116.774  0.00  0.00    -0.090 HD
ENDBRANCH   5  18
BRANCH   3  22
ATOM     22  C   LIG d   1      -7.079  80.391 118.543  0.00  0.00     0.382 C 
ATOM     23  O   LIG d   1      -6.753  81.578 118.789  0.00  0.00    -0.241 OA
ATOM     24  O   LIG d   1      -8.209  79.985 118.874  0.00  0.00    -0.241 OA
ENDBRANCH   3  22
TORSDOF 7
ENDMDL
MODEL 4
REMARK VINA RESULT:      -5.0      2.347      5.161
REMARK  7 active torsions:
REMARK  status: ('A' for Active; 'I' for Inactive)
REMARK    1  A    between atoms: C_2  and  C_3 
REMARK    2  A    between atoms: C_3  and  O_6 
REMARK    3  A    between atoms: C_3  and  C_4 
REMARK    4  A    between atoms: C_7  and  O_6 
REMARK    5  A    between atoms: C_9  and  C_10 
REMARK    6  A    between atoms: N_15  and  C_14 
REMARK    7  A    between atoms: N_20  and  C_19 
REMARK       I    between atoms: C_22  and  N_20 
ROOT
ATOM      1  C   LIG d   1      -2.394  78.512 114.089  0.00  0.00     0.161 C 
ATOM      2  C   LIG d   1      -2.017  78.061 112.813  0.00  0.00     0.016 C 
ATOM      3  C   LIG d   1      -1.514  78.914 111.803  0.00  0.00     0.038 C 
ATOM      4  C   LIG d   1      -1.211  80.261 112.053  0.00  0.00     0.028 C 
ATOM      5  C   LIG d   1      -2.047  80.872 113.173  0.00  0.00    -0.047 C 
ATOM      6  C   LIG d   1      -1.965  79.957 114.417  0.00  0.00     0.091 C 
ENDROOT
BRANCH   1   7
ATOM      7  O   LIG d   1      -1.900  77.603 115.093  0.00  0.00    -0.368 OA
BRANCH   7   8
ATOM      8  C   LIG d   1      -2.237  76.206 114.909  0.00  0.00     0.119 C 
BRANCH   8   9
ATOM      9  C   LIG d   1      -3.600  75.965 115.585  0.00  0.00     0.028 C 
ATOM     10  C   LIG d   1      -4.639  75.372 114.617  0.00  0.00     0.006 C 
ENDBRANCH   8   9
BRANCH   8  11
ATOM     11  C   LIG d   1      -1.252  75.294 115.646  0.00  0.00     0.028 C 
ATOM     12  C   LIG d   1      -0.217  74.652 114.708  0.00  0.00     0.006 C 
ENDBRANCH   8  11
ENDBRANCH   7   8
ENDBRANCH   1   7
BRANCH   6  13
ATOM     13  N   LIG d   1      -2.823  80.439 115.531  0.00  0.00    -0.311 N 
ATOM     14  C   LIG d   1      -2.370  81.192 116.532  0.00  0.00     0.210 C 
ATOM     15  C   LIG d   1      -3.416  81.561 117.588  0.00  0.00     0.109 C 
ATOM     16  O   LIG d   1      -1.208  81.615 116.629  0.00  0.00    -0.276 OA
ATOM     17  H   LIG d   1      -3.786  80.167 115.515  0.00  0.00     0.149 HD
ENDBRANCH   6  13
BRANCH   5  18
ATOM     18  N   LIG d   1      -1.533  82.232 113.421  0.00  0.00     0.381 N 
ATOM     19  H   LIG d   1      -2.059  82.895 112.888  0.00  0.00    -0.090 HD
ATOM     20  H   LIG d   1      -0.575  82.277 113.122  0.00  0.00    -0.090 HD
ATOM     21  H   LIG d   1      -1.597  82.449 114.391  0.00  0.00    -0.090 HD
ENDBRANCH   5  18
BRANCH   3  22
ATOM     22  C   LIG d   1      -1.348  78.430 110.514  0.00  0.00     0.382 C 
ATOM     23  O   LIG d   1      -1.327  79.225 109.544  0.00  0.00    -0.241 OA
ATOM     24  O   LIG d   1      -1.264  77.205 110.306  0.00  0.00    -0.241 OA
ENDBRANCH   3  22
TORSDOF 7
ENDMDL
MODEL 5
REMARK VINA RESULT:      -5.0      2.286      4.619
REMARK  7 active torsions:
REMARK  status: ('A' for Active; 'I' for Inactive)
REMARK    1  A    between atoms: C_2  and  C_3 
REMARK    2  A    between atoms: C_3  and  O_6 
REMARK    3  A    between atoms: C_3  and  C_4 
REMARK    4  A    between atoms: C_7  and  O_6 
REMARK    5  A    between atoms: C_9  and  C_10 
REMARK    6  A    between atoms: N_15  and  C_14 
REMARK    7  A    between atoms: N_20  and  C_19 
REMARK       I    between atoms: C_22  and  N_20 
ROOT
ATOM      1  C   LIG d   1      -2.310  78.315 113.853  0.00  0.00     0.161 C 
ATOM      2  C   LIG d   1      -2.739  79.247 114.812  0.00  0.00     0.016 C 
ATOM      3  C   LIG d   1      -2.611  80.646 114.650  0.00  0.00     0.038 C 
ATOM      4  C   LIG d   1      -2.180  81.216 113.443  0.00  0.00     0.028 C 
ATOM      5  C   LIG d   1      -1.263  80.303 112.635  0.00  0.00    -0.047 C 
ATOM      6  C   LIG d   1      -1.939  78.921 112.483  0.00  0.00     0.091 C 
ENDROOT
BRANCH   1   7
ATOM      7  O   LIG d   1      -3.306  77.285 113.692  0.00  0.00    -0.368 OA
BRANCH   7   8
ATOM      8  C   LIG d   1      -3.534  76.434 114.842  0.00  0.00     0.119 C 
BRANCH   8   9
ATOM      9  C   LIG d   1      -2.247  75.619 115.077  0.00  0.00     0.028 C 
ATOM     10  C   LIG d   1      -1.902  75.485 116.569  0.00  0.00     0.006 C 
ENDBRANCH   8   9
BRANCH   8  11
ATOM     11  C   LIG d   1      -4.625  75.397 114.559  0.00  0.00     0.028 C 
ATOM     12  C   LIG d   1      -5.606  75.230 115.730  0.00  0.00     0.006 C 
ENDBRANCH   8  11
ENDBRANCH   7   8
ENDBRANCH   1   7
BRANCH   6  13
ATOM     13  N   LIG d   1      -1.073  77.941 111.777  0.00  0.00    -0.311 N 
ATOM     14  C   LIG d   1      -1.119  77.736 110.462  0.00  0.00     0.210 C 
ATOM     15  C   LIG d   1      -0.154  76.666 109.941  0.00  0.00     0.109 C 
ATOM     16  O   LIG d   1      -1.844  78.360 109.674  0.00  0.00    -0.276 OA
ATOM     17  H   LIG d   1      -0.432  77.413 112.337  0.00  0.00     0.149 HD
ENDBRANCH   6  13
BRANCH   5  18
ATOM     18  N   LIG d   1      -1.002  80.964 111.343  0.00  0.00     0.381 N 
ATOM     19  H   LIG d   1      -0.306  81.673 111.460  0.00  0.00    -0.090 HD
ATOM     20  H   LIG d   1      -1.848  81.403 111.025  0.00  0.00    -0.090 HD
ATOM     21  H   LIG d   1      -0.695  80.294 110.673  0.00  0.00    -0.090 HD
ENDBRANCH   5  18
BRANCH   3  22
ATOM     22  C   LIG d   1      -2.879  81.488 115.718  0.00  0.00     0.382 C 
ATOM     23  O   LIG d   1      -4.063  81.669 116.093  0.00  0.00    -0.241 OA
ATOM     24  O   LIG d   1      -1.956  82.106 116.283  0.00  0.00    -0.241 OA
ENDBRANCH   3  22
TORSDOF 7
ENDMDL
MODEL 6
REMARK VINA RESULT:      -4.8      4.374      6.711
REMARK  7 active torsions:
REMARK  status: ('A' for Active; 'I' for Inactive)
REMARK    1  A    between atoms: C_2  and  C_3 
REMARK    2  A    between atoms: C_3  and  O_6 
REMARK    3  A    between atoms: C_3  and  C_4 
REMARK    4  A    between atoms: C_7  and  O_6 
REMARK    5  A    between atoms: C_9  and  C_10 
REMARK    6  A    between atoms: N_15  and  C_14 
REMARK    7  A    between atoms: N_20  and  C_19 
REMARK       I    between atoms: C_22  and  N_20 
ROOT
ATOM      1  C   LIG d   1      -3.374  77.179 115.979  0.00  0.00     0.161 C 
ATOM      2  C   LIG d   1      -2.538  76.050 115.961  0.00  0.00     0.016 C 
ATOM      3  C   LIG d   1      -1.597  75.763 116.976  0.00  0.00     0.038 C 
ATOM      4  C   LIG d   1      -1.534  76.509 118.163  0.00  0.00     0.028 C 
ATOM      5  C   LIG d   1      -2.009  77.949 117.998  0.00  0.00    -0.047 C 
ATOM      6  C   LIG d   1      -3.398  77.944 117.319  0.00  0.00     0.091 C 
ENDROOT
BRANCH   1   7
ATOM      7  O   LIG d   1      -4.711  76.803 115.593  0.00  0.00    -0.368 OA
BRANCH   7   8
ATOM      8  C   LIG d   1      -5.033  75.394 115.701  0.00  0.00     0.119 C 
BRANCH   8   9
ATOM      9  C   LIG d   1      -5.375  74.888 114.287  0.00  0.00     0.028 C 
ATOM     10  C   LIG d   1      -5.843  76.019 113.356  0.00  0.00     0.006 C 
ENDBRANCH   8   9
BRANCH   8  11
ATOM     11  C   LIG d   1      -6.303  75.174 116.529  0.00  0.00     0.028 C 
ATOM     12  C   LIG d   1      -7.050  76.483 116.832  0.00  0.00     0.006 C 
ENDBRANCH   8  11
ENDBRANCH   7   8
ENDBRANCH   1   7
BRANCH   6  13
ATOM     13  N   LIG d   1      -3.899  79.316 117.044  0.00  0.00    -0.311 N 
ATOM     14  C   LIG d   1      -4.724  79.972 117.858  0.00  0.00     0.210 C 
ATOM     15  C   LIG d   1      -5.134  81.367 117.376  0.00  0.00     0.109 C 
ATOM     16  O   LIG d   1      -5.131  79.544 118.949  0.00  0.00    -0.276 OA
ATOM     17  H   LIG d   1      -3.594  79.752 116.195  0.00  0.00     0.149 HD
ENDBRANCH   6  13
BRANCH   5  18
ATOM     18  N   LIG d   1      -2.022  78.570 119.336  0.00  0.00     0.381 N 
ATOM     19  H   LIG d   1      -1.084  78.757 119.631  0.00  0.00    -0.090 HD
ATOM     20  H   LIG d   1      -2.435  77.927 119.989  0.00  0.00    -0.090 HD
ATOM     21  H   LIG d   1      -2.547  79.416 119.314  0.00  0.00    -0.090 HD
ENDBRANCH   5  18
BRANCH   3  22
ATOM     22  C   LIG d   1      -0.678  74.741 116.792  0.00  0.00     0.382 C 
ATOM     23  O   LIG d   1      -0.156  74.180 117.786  0.00  0.00    -0.241 OA
ATOM     24  O   LIG d   1      -0.331  74.402 115.645  0.00  0.00    -0.241 OA
ENDBRANCH   3  22
TORSDOF 7
ENDMDL
MODEL 7
REMARK VINA RESULT:      -4.8      2.337      3.381
REMARK  7 active torsions:
REMARK  status: ('A' for Active; 'I' for Inactive)
REMARK    1  A    between atoms: C_2  and  C_3 
REMARK    2  A    between atoms: C_3  and  O_6 
REMARK    3  A    between atoms: C_3  and  C_4 
REMARK    4  A    between atoms: C_7  and  O_6 
REMARK    5  A    between atoms: C_9  and  C_10 
REMARK    6  A    between atoms: N_15  and  C_14 
REMARK    7  A    between atoms: N_20  and  C_19 
REMARK       I    between atoms: C_22  and  N_20 
ROOT
ATOM      1  C   LIG d   1      -1.020  79.356 114.792  0.00  0.00     0.161 C 
ATOM      2  C   LIG d   1      -1.017  79.461 113.391  0.00  0.00     0.016 C 
ATOM      3  C   LIG d   1      -1.816  78.655 112.549  0.00  0.00     0.038 C 
ATOM      4  C   LIG d   1      -2.791  77.786 113.061  0.00  0.00     0.028 C 
ATOM      5  C   LIG d   1      -2.476  77.282 114.465  0.00  0.00    -0.047 C 
ATOM      6  C   LIG d   1      -2.158  78.492 115.373  0.00  0.00     0.091 C 
ENDROOT
BRANCH   1   7
ATOM      7  O   LIG d   1      -1.039  80.672 115.381  0.00  0.00    -0.368 OA
BRANCH   7   8
ATOM      8  C   LIG d   1      -2.348  81.245 115.617  0.00  0.00     0.119 C 
BRANCH   8   9
ATOM      9  C   LIG d   1      -2.460  82.515 114.751  0.00  0.00     0.028 C 
ATOM     10  C   LIG d   1      -1.086  83.051 114.315  0.00  0.00     0.006 C 
ENDBRANCH   8   9
BRANCH   8  11
ATOM     11  C   LIG d   1      -2.493  81.727 117.063  0.00  0.00     0.028 C 
ATOM     12  C   LIG d   1      -1.159  81.736 117.825  0.00  0.00     0.006 C 
ENDBRANCH   8  11
ENDBRANCH   7   8
ENDBRANCH   1   7
BRANCH   6  13
ATOM     13  N   LIG d   1      -1.756  78.082 116.744  0.00  0.00    -0.311 N 
ATOM     14  C   LIG d   1      -2.601  78.035 117.773  0.00  0.00     0.210 C 
ATOM     15  C   LIG d   1      -1.977  77.605 119.104  0.00  0.00     0.109 C 
ATOM     16  O   LIG d   1      -3.815  78.279 117.702  0.00  0.00    -0.276 OA
ATOM     17  H   LIG d   1      -0.796  77.837 116.884  0.00  0.00     0.149 HD
ENDBRANCH   6  13
BRANCH   5  18
ATOM     18  N   LIG d   1      -3.637  76.500 114.929  0.00  0.00     0.381 N 
ATOM     19  H   LIG d   1      -4.195  76.225 114.146  0.00  0.00    -0.090 HD
ATOM     20  H   LIG d   1      -4.199  77.077 115.529  0.00  0.00    -0.090 HD
ATOM     21  H   LIG d   1      -3.328  75.693 115.426  0.00  0.00    -0.090 HD
ENDBRANCH   5  18
BRANCH   3  22
ATOM     22  C   LIG d   1      -1.615  78.684 111.177  0.00  0.00     0.382 C 
ATOM     23  O   LIG d   1      -1.790  77.645 110.496  0.00  0.00    -0.241 OA
ATOM     24  O   LIG d   1      -1.219  79.725 110.619  0.00  0.00    -0.241 OA
ENDBRANCH   3  22
TORSDOF 7
ENDMDL
MODEL 8
REMARK VINA RESULT:      -4.8      2.590      5.721
REMARK  7 active torsions:
REMARK  status: ('A' for Active; 'I' for Inactive)
REMARK    1  A    between atoms: C_2  and  C_3 
REMARK    2  A    between atoms: C_3  and  O_6 
REMARK    3  A    between atoms: C_3  and  C_4 
REMARK    4  A    between atoms: C_7  and  O_6 
REMARK    5  A    between atoms: C_9  and  C_10 
REMARK    6  A    between atoms: N_15  and  C_14 
REMARK    7  A    between atoms: N_20  and  C_19 
REMARK       I    between atoms: C_22  and  N_20 
ROOT
ATOM      1  C   LIG d   1      -1.559  78.807 116.221  0.00  0.00     0.161 C 
ATOM      2  C   LIG d   1      -1.142  77.560 115.726  0.00  0.00     0.016 C 
ATOM      3  C   LIG d   1      -1.899  76.375 115.868  0.00  0.00     0.038 C 
ATOM      4  C   LIG d   1      -3.203  76.385 116.385  0.00  0.00     0.028 C 
ATOM      5  C   LIG d   1      -3.461  77.533 117.355  0.00  0.00    -0.047 C 
ATOM      6  C   LIG d   1      -3.028  78.859 116.690  0.00  0.00     0.091 C 
ENDROOT
BRANCH   1   7
ATOM      7  O   LIG d   1      -1.310  79.831 115.238  0.00  0.00    -0.368 OA
BRANCH   7   8
ATOM      8  C   LIG d   1      -2.403  80.125 114.333  0.00  0.00     0.119 C 
BRANCH   8   9
ATOM      9  C   LIG d   1      -1.972  79.674 112.924  0.00  0.00     0.028 C 
ATOM     10  C   LIG d   1      -2.680  78.384 112.478  0.00  0.00     0.006 C 
ENDBRANCH   8   9
BRANCH   8  11
ATOM     11  C   LIG d   1      -2.643  81.633 114.220  0.00  0.00     0.028 C 
ATOM     12  C   LIG d   1      -1.784  82.448 115.200  0.00  0.00     0.006 C 
ENDBRANCH   8  11
ENDBRANCH   7   8
ENDBRANCH   1   7
BRANCH   6  13
ATOM     13  N   LIG d   1      -3.168  80.024 117.603  0.00  0.00    -0.311 N 
ATOM     14  C   LIG d   1      -4.228  80.830 117.605  0.00  0.00     0.210 C 
ATOM     15  C   LIG d   1      -4.162  81.983 118.612  0.00  0.00     0.109 C 
ATOM     16  O   LIG d   1      -5.231  80.682 116.890  0.00  0.00    -0.276 OA
ATOM     17  H   LIG d   1      -2.414  80.199 118.237  0.00  0.00     0.149 HD
ENDBRANCH   6  13
BRANCH   5  18
ATOM     18  N   LIG d   1      -4.893  77.504 117.709  0.00  0.00     0.381 N 
ATOM     19  H   LIG d   1      -5.367  76.825 117.149  0.00  0.00    -0.090 HD
ATOM     20  H   LIG d   1      -5.293  78.406 117.518  0.00  0.00    -0.090 HD
ATOM     21  H   LIG d   1      -5.001  77.283 118.675  0.00  0.00    -0.090 HD
ENDBRANCH   5  18
BRANCH   3  22
ATOM     22  C   LIG d   1      -1.336  75.155 115.526  0.00  0.00     0.382 C 
ATOM     23  O   LIG d   1      -1.106  74.886 114.322  0.00  0.00    -0.241 OA
ATOM     24  O   LIG d   1      -1.096  74.302 116.402  0.00  0.00    -0.241 OA
ENDBRANCH   3  22
TORSDOF 7
ENDMDL
MODEL 9
REMARK VINA RESULT:      -4.6      4.099      7.038
REMARK  7 active torsions:
REMARK  status: ('A' for Active; 'I' for Inactive)
REMARK    1  A    between atoms: C_2  and  C_3 
REMARK    2  A    between atoms: C_3  and  O_6 
REMARK    3  A    between atoms: C_3  and  C_4 
REMARK    4  A    between atoms: C_7  and  O_6 
REMARK    5  A    between atoms: C_9  and  C_10 
REMARK    6  A    between atoms: N_15  and  C_14 
REMARK    7  A    between atoms: N_20  and  C_19 
REMARK       I    between atoms: C_22  and  N_20 
ROOT
ATOM      1  C   LIG d   1      -6.095  78.652 117.776  0.00  0.00     0.161 C 
ATOM      2  C   LIG d   1      -7.428  79.098 117.773  0.00  0.00     0.016 C 
ATOM      3  C   LIG d   1      -7.802  80.432 118.051  0.00  0.00     0.038 C 
ATOM      4  C   LIG d   1      -6.852  81.453 118.203  0.00  0.00     0.028 C 
ATOM      5  C   LIG d   1      -5.504  80.954 118.714  0.00  0.00    -0.047 C 
ATOM      6  C   LIG d   1      -5.038  79.774 117.830  0.00  0.00     0.091 C 
ENDROOT
BRANCH   1   7
ATOM      7  O   LIG d   1      -5.863  77.799 116.637  0.00  0.00    -0.368 OA
BRANCH   7   8
ATOM      8  C   LIG d   1      -5.679  76.391 116.922  0.00  0.00     0.119 C 
BRANCH   8   9
ATOM      9  C   LIG d   1      -4.643  75.847 115.919  0.00  0.00     0.028 C 
ATOM     10  C   LIG d   1      -3.197  76.142 116.351  0.00  0.00     0.006 C 
ENDBRANCH   8   9
BRANCH   8  11
ATOM     11  C   LIG d   1      -6.960  75.596 116.653  0.00  0.00     0.028 C 
ATOM     12  C   LIG d   1      -6.822  74.627 115.468  0.00  0.00     0.006 C 
ENDBRANCH   8  11
ENDBRANCH   7   8
ENDBRANCH   1   7
BRANCH   6  13
ATOM     13  N   LIG d   1      -3.768  79.172 118.312  0.00  0.00    -0.311 N 
ATOM     14  C   LIG d   1      -2.569  79.521 117.848  0.00  0.00     0.210 C 
ATOM     15  C   LIG d   1      -1.390  78.763 118.467  0.00  0.00     0.109 C 
ATOM     16  O   LIG d   1      -2.367  80.409 117.007  0.00  0.00    -0.276 OA
ATOM     17  H   LIG d   1      -3.837  78.465 119.018  0.00  0.00     0.149 HD
ENDBRANCH   6  13
BRANCH   5  18
ATOM     18  N   LIG d   1      -4.570  82.095 118.694  0.00  0.00     0.381 N 
ATOM     19  H   LIG d   1      -4.899  82.791 118.056  0.00  0.00    -0.090 HD
ATOM     20  H   LIG d   1      -3.672  81.775 118.377  0.00  0.00    -0.090 HD
ATOM     21  H   LIG d   1      -4.488  82.484 119.608  0.00  0.00    -0.090 HD
ENDBRANCH   5  18
BRANCH   3  22
ATOM     22  C   LIG d   1      -9.142  80.749 118.219  0.00  0.00     0.382 C 
ATOM     23  O   LIG d   1      -9.967  79.851 118.511  0.00  0.00    -0.241 OA
ATOM     24  O   LIG d   1      -9.542  81.915 118.039  0.00  0.00    -0.241 OA
ENDBRANCH   3  22
TORSDOF 7
ENDMDL
