MODEL 1
REMARK VINA RESULT:      -4.9      0.000      0.000
REMARK  7 active torsions:
REMARK  status: ('A' for Active; 'I' for Inactive)
REMARK    1  A    between atoms: C_2  and  C_3 
REMARK    2  A    between atoms: C_3  and  O_6 
REMARK    3  A    between atoms: C_3  and  C_4 
REMARK    4  A    between atoms: C_7  and  O_6 
REMARK    5  A    between atoms: C_9  and  C_10 
REMARK    6  A    between atoms: N_15  and  C_14 
REMARK    7  A    between atoms: N_20  and  C_19 
REMARK       I    between atoms: C_22  and  N_20 
ROOT
ATOM      1  C   LIG d   1      -2.840  78.040 116.647  0.00  0.00     0.161 C 
ATOM      2  C   LIG d   1      -3.106  78.887 115.558  0.00  0.00     0.016 C 
ATOM      3  C   LIG d   1      -2.523  78.719 114.281  0.00  0.00     0.038 C 
ATOM      4  C   LIG d   1      -1.745  77.596 113.963  0.00  0.00     0.028 C 
ATOM      5  C   LIG d   1      -1.041  76.986 115.170  0.00  0.00    -0.047 C 
ATOM      6  C   LIG d   1      -2.080  76.746 116.288  0.00  0.00     0.091 C 
ENDROOT
BRANCH   1   7
ATOM      7  O   LIG d   1      -4.068  77.727 117.334  0.00  0.00    -0.368 OA
BRANCH   7   8
ATOM      8  C   LIG d   1      -5.273  77.755 116.530  0.00  0.00     0.119 C 
BRANCH   8   9
ATOM      9  C   LIG d   1      -6.375  78.425 117.373  0.00  0.00     0.028 C 
ATOM     10  C   LIG d   1      -6.063  79.898 117.683  0.00  0.00     0.006 C 
ENDBRANCH   8   9
BRANCH   8  11
ATOM     11  C   LIG d   1      -5.785  76.340 116.244  0.00  0.00     0.028 C 
ATOM     12  C   LIG d   1      -5.504  75.885 114.803  0.00  0.00     0.006 C 
ENDBRANCH   8  11
ENDBRANCH   7   8
ENDBRANCH   1   7
BRANCH   6  13
ATOM     13  N   LIG d   1      -1.461  76.228 117.536  0.00  0.00    -0.311 N 
ATOM     14  C   LIG d   1      -1.721  75.022 118.038  0.00  0.00     0.210 C 
ATOM     15  C   LIG d   1      -0.991  74.693 119.344  0.00  0.00     0.109 C 
ATOM     16  O   LIG d   1      -2.462  74.180 117.508  0.00  0.00    -0.276 OA
ATOM     17  H   LIG d   1      -0.823  76.833 118.014  0.00  0.00     0.149 HD
ENDBRANCH   6  13
BRANCH   5  18
ATOM     18  N   LIG d   1      -0.379  75.747 114.720  0.00  0.00     0.381 N 
ATOM     19  H   LIG d   1      -0.217  75.146 115.503  0.00  0.00    -0.090 HD
ATOM     20  H   LIG d   1       0.510  75.982 114.314  0.00  0.00    -0.090 HD
ATOM     21  H   LIG d   1      -0.947  75.281 114.047  0.00  0.00    -0.090 HD
ENDBRANCH   5  18
BRANCH   3  22
ATOM     22  C   LIG d   1      -2.684  79.703 113.317  0.00  0.00     0.382 C 
ATOM     23  O   LIG d   1      -2.077  79.615 112.223  0.00  0.00    -0.241 OA
ATOM     24  O   LIG d   1      -3.395  80.701 113.546  0.00  0.00    -0.241 OA
ENDBRANCH   3  22
TORSDOF 7
ENDMDL
MODEL 2
REMARK VINA RESULT:      -4.7      1.177      2.032
REMARK  7 active torsions:
REMARK  status: ('A' for Active; 'I' for Inactive)
REMARK    1  A    between atoms: C_2  and  C_3 
REMARK    2  A    between atoms: C_3  and  O_6 
REMARK    3  A    between atoms: C_3  and  C_4 
REMARK    4  A    between atoms: C_7  and  O_6 
REMARK    5  A    between atoms: C_9  and  C_10 
REMARK    6  A    between atoms: N_15  and  C_14 
REMARK    7  A    between atoms: N_20  and  C_19 
REMARK       I    between atoms: C_22  and  N_20 
ROOT
ATOM      1  C   LIG d   1      -3.400  78.647 115.849  0.00  0.00     0.161 C 
ATOM      2  C   LIG d   1      -3.273  79.561 114.790  0.00  0.00     0.016 C 
ATOM      3  C   LIG d   1      -2.388  79.376 113.703  0.00  0.00     0.038 C 
ATOM      4  C   LIG d   1      -1.673  78.182 113.525  0.00  0.00     0.028 C 
ATOM      5  C   LIG d   1      -1.388  77.446 114.829  0.00  0.00    -0.047 C 
ATOM      6  C   LIG d   1      -2.710  77.287 115.615  0.00  0.00     0.091 C 
ENDROOT
BRANCH   1   7
ATOM      7  O   LIG d   1      -4.793  78.454 116.165  0.00  0.00    -0.368 OA
BRANCH   7   8
ATOM      8  C   LIG d   1      -5.192  78.789 117.516  0.00  0.00     0.119 C 
BRANCH   8   9
ATOM      9  C   LIG d   1      -6.399  77.901 117.876  0.00  0.00     0.028 C 
ATOM     10  C   LIG d   1      -6.635  76.785 116.844  0.00  0.00     0.006 C 
ENDBRANCH   8   9
BRANCH   8  11
ATOM     11  C   LIG d   1      -5.708  80.229 117.605  0.00  0.00     0.028 C 
ATOM     12  C   LIG d   1      -7.197  80.306 117.976  0.00  0.00     0.006 C 
ENDBRANCH   8  11
ENDBRANCH   7   8
ENDBRANCH   1   7
BRANCH   6  13
ATOM     13  N   LIG d   1      -2.507  76.651 116.943  0.00  0.00    -0.311 N 
ATOM     14  C   LIG d   1      -2.676  75.349 117.166  0.00  0.00     0.210 C 
ATOM     15  C   LIG d   1      -2.435  74.903 118.611  0.00  0.00     0.109 C 
ATOM     16  O   LIG d   1      -2.972  74.515 116.296  0.00  0.00    -0.276 OA
ATOM     17  H   LIG d   1      -2.236  77.249 117.698  0.00  0.00     0.149 HD
ENDBRANCH   6  13
BRANCH   5  18
ATOM     18  N   LIG d   1      -0.761  76.156 114.485  0.00  0.00     0.381 N 
ATOM     19  H   LIG d   1      -0.840  75.992 113.501  0.00  0.00    -0.090 HD
ATOM     20  H   LIG d   1      -1.246  75.419 114.967  0.00  0.00    -0.090 HD
ATOM     21  H   LIG d   1       0.199  76.161 114.753  0.00  0.00    -0.090 HD
ENDBRANCH   5  18
BRANCH   3  22
ATOM     22  C   LIG d   1      -2.180  80.409 112.802  0.00  0.00     0.382 C 
ATOM     23  O   LIG d   1      -1.158  80.410 112.074  0.00  0.00    -0.241 OA
ATOM     24  O   LIG d   1      -2.980  81.362 112.738  0.00  0.00    -0.241 OA
ENDBRANCH   3  22
TORSDOF 7
ENDMDL
MODEL 3
REMARK VINA RESULT:      -4.6      2.005      2.579
REMARK  7 active torsions:
REMARK  status: ('A' for Active; 'I' for Inactive)
REMARK    1  A    between atoms: C_2  and  C_3 
REMARK    2  A    between atoms: C_3  and  O_6 
REMARK    3  A    between atoms: C_3  and  C_4 
REMARK    4  A    between atoms: C_7  and  O_6 
REMARK    5  A    between atoms: C_9  and  C_10 
REMARK    6  A    between atoms: N_15  and  C_14 
REMARK    7  A    between atoms: N_20  and  C_19 
REMARK       I    between atoms: C_22  and  N_20 
ROOT
ATOM      1  C   LIG d   1      -3.593  77.190 114.477  0.00  0.00     0.161 C 
ATOM      2  C   LIG d   1      -3.551  78.325 113.650  0.00  0.00     0.016 C 
ATOM      3  C   LIG d   1      -2.484  79.252 113.654  0.00  0.00     0.038 C 
ATOM      4  C   LIG d   1      -1.307  79.024 114.384  0.00  0.00     0.028 C 
ATOM      5  C   LIG d   1      -1.518  78.151 115.616  0.00  0.00    -0.047 C 
ATOM      6  C   LIG d   1      -2.269  76.866 115.198  0.00  0.00     0.091 C 
ENDROOT
BRANCH   1   7
ATOM      7  O   LIG d   1      -4.043  76.050 113.719  0.00  0.00    -0.368 OA
BRANCH   7   8
ATOM      8  C   LIG d   1      -5.392  75.596 113.990  0.00  0.00     0.119 C 
BRANCH   8   9
ATOM      9  C   LIG d   1      -6.356  76.705 113.526  0.00  0.00     0.028 C 
ATOM     10  C   LIG d   1      -6.909  76.448 112.114  0.00  0.00     0.006 C 
ENDBRANCH   8   9
BRANCH   8  11
ATOM     11  C   LIG d   1      -5.638  75.448 115.495  0.00  0.00     0.028 C 
ATOM     12  C   LIG d   1      -6.837  76.276 115.986  0.00  0.00     0.006 C 
ENDBRANCH   8  11
ENDBRANCH   7   8
ENDBRANCH   1   7
BRANCH   6  13
ATOM     13  N   LIG d   1      -2.590  75.995 116.359  0.00  0.00    -0.311 N 
ATOM     14  C   LIG d   1      -1.839  74.958 116.727  0.00  0.00     0.210 C 
ATOM     15  C   LIG d   1      -2.361  74.180 117.939  0.00  0.00     0.109 C 
ATOM     16  O   LIG d   1      -0.773  74.629 116.186  0.00  0.00    -0.276 OA
ATOM     17  H   LIG d   1      -3.421  76.209 116.874  0.00  0.00     0.149 HD
ENDBRANCH   6  13
BRANCH   5  18
ATOM     18  N   LIG d   1      -0.192  77.882 116.204  0.00  0.00     0.381 N 
ATOM     19  H   LIG d   1       0.089  76.945 115.990  0.00  0.00    -0.090 HD
ATOM     20  H   LIG d   1      -0.254  77.972 117.202  0.00  0.00    -0.090 HD
ATOM     21  H   LIG d   1       0.477  78.527 115.845  0.00  0.00    -0.090 HD
ENDBRANCH   5  18
BRANCH   3  22
ATOM     22  C   LIG d   1      -2.604  80.442 112.954  0.00  0.00     0.382 C 
ATOM     23  O   LIG d   1      -1.590  80.973 112.440  0.00  0.00    -0.241 OA
ATOM     24  O   LIG d   1      -3.707  81.015 112.866  0.00  0.00    -0.241 OA
ENDBRANCH   3  22
TORSDOF 7
ENDMDL
MODEL 4
REMARK VINA RESULT:      -4.6      2.663      3.837
REMARK  7 active torsions:
REMARK  status: ('A' for Active; 'I' for Inactive)
REMARK    1  A    between atoms: C_2  and  C_3 
REMARK    2  A    between atoms: C_3  and  O_6 
REMARK    3  A    between atoms: C_3  and  C_4 
REMARK    4  A    between atoms: C_7  and  O_6 
REMARK    5  A    between atoms: C_9  and  C_10 
REMARK    6  A    between atoms: N_15  and  C_14 
REMARK    7  A    between atoms: N_20  and  C_19 
REMARK       I    between atoms: C_22  and  N_20 
ROOT
ATOM      1  C   LIG d   1      -3.875  78.275 116.955  0.00  0.00     0.161 C 
ATOM      2  C   LIG d   1      -3.202  79.366 117.529  0.00  0.00     0.016 C 
ATOM      3  C   LIG d   1      -1.897  79.761 117.153  0.00  0.00     0.038 C 
ATOM      4  C   LIG d   1      -1.231  79.180 116.064  0.00  0.00     0.028 C 
ATOM      5  C   LIG d   1      -1.666  77.746 115.784  0.00  0.00    -0.047 C 
ATOM      6  C   LIG d   1      -3.208  77.698 115.688  0.00  0.00     0.091 C 
ENDROOT
BRANCH   1   7
ATOM      7  O   LIG d   1      -5.244  78.634 116.682  0.00  0.00    -0.368 OA
BRANCH   7   8
ATOM      8  C   LIG d   1      -6.231  78.146 117.623  0.00  0.00     0.119 C 
BRANCH   8   9
ATOM      9  C   LIG d   1      -7.012  77.014 116.928  0.00  0.00     0.028 C 
ATOM     10  C   LIG d   1      -8.361  76.728 117.610  0.00  0.00     0.006 C 
ENDBRANCH   8   9
BRANCH   8  11
ATOM     11  C   LIG d   1      -7.273  79.220 117.945  0.00  0.00     0.028 C 
ATOM     12  C   LIG d   1      -6.709  80.647 117.845  0.00  0.00     0.006 C 
ENDBRANCH   8  11
ENDBRANCH   7   8
ENDBRANCH   1   7
BRANCH   6  13
ATOM     13  N   LIG d   1      -3.722  76.317 115.499  0.00  0.00    -0.311 N 
ATOM     14  C   LIG d   1      -4.495  75.955 114.476  0.00  0.00     0.210 C 
ATOM     15  C   LIG d   1      -4.931  74.487 114.482  0.00  0.00     0.109 C 
ATOM     16  O   LIG d   1      -4.833  76.704 113.547  0.00  0.00    -0.276 OA
ATOM     17  H   LIG d   1      -3.470  75.638 116.190  0.00  0.00     0.149 HD
ENDBRANCH   6  13
BRANCH   5  18
ATOM     18  N   LIG d   1      -0.997  77.311 114.543  0.00  0.00     0.381 N 
ATOM     19  H   LIG d   1      -0.117  77.778 114.452  0.00  0.00    -0.090 HD
ATOM     20  H   LIG d   1      -1.571  77.564 113.758  0.00  0.00    -0.090 HD
ATOM     21  H   LIG d   1      -0.857  76.325 114.558  0.00  0.00    -0.090 HD
ENDBRANCH   5  18
BRANCH   3  22
ATOM     22  C   LIG d   1      -1.229  80.722 117.897  0.00  0.00     0.382 C 
ATOM     23  O   LIG d   1      -1.742  81.167 118.952  0.00  0.00    -0.241 OA
ATOM     24  O   LIG d   1      -0.141  81.182 117.503  0.00  0.00    -0.241 OA
ENDBRANCH   3  22
TORSDOF 7
ENDMDL
MODEL 5
REMARK VINA RESULT:      -4.6      3.204      5.019
REMARK  7 active torsions:
REMARK  status: ('A' for Active; 'I' for Inactive)
REMARK    1  A    between atoms: C_2  and  C_3 
REMARK    2  A    between atoms: C_3  and  O_6 
REMARK    3  A    between atoms: C_3  and  C_4 
REMARK    4  A    between atoms: C_7  and  O_6 
REMARK    5  A    between atoms: C_9  and  C_10 
REMARK    6  A    between atoms: N_15  and  C_14 
REMARK    7  A    between atoms: N_20  and  C_19 
REMARK       I    between atoms: C_22  and  N_20 
ROOT
ATOM      1  C   LIG d   1      -6.710  77.592 117.281  0.00  0.00     0.161 C 
ATOM      2  C   LIG d   1      -6.582  76.772 116.147  0.00  0.00     0.016 C 
ATOM      3  C   LIG d   1      -5.339  76.450 115.556  0.00  0.00     0.038 C 
ATOM      4  C   LIG d   1      -4.120  76.806 116.152  0.00  0.00     0.028 C 
ATOM      5  C   LIG d   1      -4.212  78.059 117.017  0.00  0.00    -0.047 C 
ATOM      6  C   LIG d   1      -5.385  77.898 118.010  0.00  0.00     0.091 C 
ENDROOT
BRANCH   1   7
ATOM      7  O   LIG d   1      -7.664  77.017 118.195  0.00  0.00    -0.368 OA
BRANCH   7   8
ATOM      8  C   LIG d   1      -9.022  77.513 118.096  0.00  0.00     0.119 C 
BRANCH   8   9
ATOM      9  C   LIG d   1      -9.192  78.612 119.163  0.00  0.00     0.028 C 
ATOM     10  C   LIG d   1      -9.677  79.942 118.562  0.00  0.00     0.006 C 
ENDBRANCH   8   9
BRANCH   8  11
ATOM     11  C   LIG d   1     -10.039  76.429 118.464  0.00  0.00     0.028 C 
ATOM     12  C   LIG d   1     -10.060  75.265 117.460  0.00  0.00     0.006 C 
ENDBRANCH   8  11
ENDBRANCH   7   8
ENDBRANCH   1   7
BRANCH   6  13
ATOM     13  N   LIG d   1      -5.598  79.115 118.837  0.00  0.00    -0.311 N 
ATOM     14  C   LIG d   1      -5.980  80.287 118.333  0.00  0.00     0.210 C 
ATOM     15  C   LIG d   1      -6.121  81.416 119.358  0.00  0.00     0.109 C 
ATOM     16  O   LIG d   1      -6.247  80.489 117.139  0.00  0.00    -0.276 OA
ATOM     17  H   LIG d   1      -5.434  79.031 119.821  0.00  0.00     0.149 HD
ENDBRANCH   6  13
BRANCH   5  18
ATOM     18  N   LIG d   1      -2.909  78.235 117.685  0.00  0.00     0.381 N 
ATOM     19  H   LIG d   1      -2.407  78.988 117.256  0.00  0.00    -0.090 HD
ATOM     20  H   LIG d   1      -2.370  77.394 117.574  0.00  0.00    -0.090 HD
ATOM     21  H   LIG d   1      -3.045  78.426 118.653  0.00  0.00    -0.090 HD
ENDBRANCH   5  18
BRANCH   3  22
ATOM     22  C   LIG d   1      -5.309  75.798 114.333  0.00  0.00     0.382 C 
ATOM     23  O   LIG d   1      -5.933  76.272 113.354  0.00  0.00    -0.241 OA
ATOM     24  O   LIG d   1      -4.701  74.717 114.208  0.00  0.00    -0.241 OA
ENDBRANCH   3  22
TORSDOF 7
ENDMDL
MODEL 6
REMARK VINA RESULT:      -4.3      2.605      3.761
REMARK  7 active torsions:
REMARK  status: ('A' for Active; 'I' for Inactive)
REMARK    1  A    between atoms: C_2  and  C_3 
REMARK    2  A    between atoms: C_3  and  O_6 
REMARK    3  A    between atoms: C_3  and  C_4 
REMARK    4  A    between atoms: C_7  and  O_6 
REMARK    5  A    between atoms: C_9  and  C_10 
REMARK    6  A    between atoms: N_15  and  C_14 
REMARK    7  A    between atoms: N_20  and  C_19 
REMARK       I    between atoms: C_22  and  N_20 
ROOT
ATOM      1  C   LIG d   1      -3.722  78.671 116.941  0.00  0.00     0.161 C 
ATOM      2  C   LIG d   1      -2.924  79.671 117.521  0.00  0.00     0.016 C 
ATOM      3  C   LIG d   1      -1.557  79.853 117.208  0.00  0.00     0.038 C 
ATOM      4  C   LIG d   1      -0.931  79.140 116.175  0.00  0.00     0.028 C 
ATOM      5  C   LIG d   1      -1.561  77.777 115.912  0.00  0.00    -0.047 C 
ATOM      6  C   LIG d   1      -3.086  77.955 115.731  0.00  0.00     0.091 C 
ENDROOT
BRANCH   1   7
ATOM      7  O   LIG d   1      -5.006  79.219 116.581  0.00  0.00    -0.368 OA
BRANCH   7   8
ATOM      8  C   LIG d   1      -6.120  78.844 117.428  0.00  0.00     0.119 C 
BRANCH   8   9
ATOM      9  C   LIG d   1      -6.338  79.988 118.438  0.00  0.00     0.028 C 
ATOM     10  C   LIG d   1      -7.074  81.187 117.817  0.00  0.00     0.006 C 
ENDBRANCH   8   9
BRANCH   8  11
ATOM     11  C   LIG d   1      -5.786  77.613 118.275  0.00  0.00     0.028 C 
ATOM     12  C   LIG d   1      -6.200  77.772 119.747  0.00  0.00     0.006 C 
ENDBRANCH   8  11
ENDBRANCH   7   8
ENDBRANCH   1   7
BRANCH   6  13
ATOM     13  N   LIG d   1      -3.791  76.659 115.553  0.00  0.00    -0.311 N 
ATOM     14  C   LIG d   1      -4.357  76.284 114.407  0.00  0.00     0.210 C 
ATOM     15  C   LIG d   1      -5.050  74.918 114.445  0.00  0.00     0.109 C 
ATOM     16  O   LIG d   1      -4.322  76.938 113.354  0.00  0.00    -0.276 OA
ATOM     17  H   LIG d   1      -3.839  76.053 116.349  0.00  0.00     0.149 HD
ENDBRANCH   6  13
BRANCH   5  18
ATOM     18  N   LIG d   1      -0.901  77.202 114.725  0.00  0.00     0.381 N 
ATOM     19  H   LIG d   1      -1.044  76.212 114.704  0.00  0.00    -0.090 HD
ATOM     20  H   LIG d   1       0.086  77.377 114.785  0.00  0.00    -0.090 HD
ATOM     21  H   LIG d   1      -1.270  77.616 113.896  0.00  0.00    -0.090 HD
ENDBRANCH   5  18
BRANCH   3  22
ATOM     22  C   LIG d   1      -0.791  80.731 117.961  0.00  0.00     0.382 C 
ATOM     23  O   LIG d   1      -0.949  80.794 119.204  0.00  0.00    -0.241 OA
ATOM     24  O   LIG d   1       0.024  81.493 117.407  0.00  0.00    -0.241 OA
ENDBRANCH   3  22
TORSDOF 7
ENDMDL
MODEL 7
REMARK VINA RESULT:      -4.2      3.059      6.041
REMARK  7 active torsions:
REMARK  status: ('A' for Active; 'I' for Inactive)
REMARK    1  A    between atoms: C_2  and  C_3 
REMARK    2  A    between atoms: C_3  and  O_6 
REMARK    3  A    between atoms: C_3  and  C_4 
REMARK    4  A    between atoms: C_7  and  O_6 
REMARK    5  A    between atoms: C_9  and  C_10 
REMARK    6  A    between atoms: N_15  and  C_14 
REMARK    7  A    between atoms: N_20  and  C_19 
REMARK       I    between atoms: C_22  and  N_20 
ROOT
ATOM      1  C   LIG d   1      -5.932  77.520 117.164  0.00  0.00     0.161 C 
ATOM      2  C   LIG d   1      -7.262  77.167 117.446  0.00  0.00     0.016 C 
ATOM      3  C   LIG d   1      -8.188  78.045 118.055  0.00  0.00     0.038 C 
ATOM      4  C   LIG d   1      -7.887  79.396 118.287  0.00  0.00     0.028 C 
ATOM      5  C   LIG d   1      -6.398  79.660 118.482  0.00  0.00    -0.047 C 
ATOM      6  C   LIG d   1      -5.618  79.024 117.308  0.00  0.00     0.091 C 
ENDROOT
BRANCH   1   7
ATOM      7  O   LIG d   1      -5.572  77.057 115.848  0.00  0.00    -0.368 OA
BRANCH   7   8
ATOM      8  C   LIG d   1      -5.143  75.677 115.753  0.00  0.00     0.119 C 
BRANCH   8   9
ATOM      9  C   LIG d   1      -3.658  75.625 116.159  0.00  0.00     0.028 C 
ATOM     10  C   LIG d   1      -2.728  76.158 115.056  0.00  0.00     0.006 C 
ENDBRANCH   8   9
BRANCH   8  11
ATOM     11  C   LIG d   1      -5.185  75.179 114.305  0.00  0.00     0.028 C 
ATOM     12  C   LIG d   1      -6.064  76.055 113.399  0.00  0.00     0.006 C 
ENDBRANCH   8  11
ENDBRANCH   7   8
ENDBRANCH   1   7
BRANCH   6  13
ATOM     13  N   LIG d   1      -4.146  79.163 117.465  0.00  0.00    -0.311 N 
ATOM     14  C   LIG d   1      -3.324  79.431 116.452  0.00  0.00     0.210 C 
ATOM     15  C   LIG d   1      -1.841  79.512 116.828  0.00  0.00     0.109 C 
ATOM     16  O   LIG d   1      -3.684  79.639 115.284  0.00  0.00    -0.276 OA
ATOM     17  H   LIG d   1      -3.772  79.040 118.385  0.00  0.00     0.149 HD
ENDBRANCH   6  13
BRANCH   5  18
ATOM     18  N   LIG d   1      -6.213  81.120 118.576  0.00  0.00     0.381 N 
ATOM     19  H   LIG d   1      -6.063  81.382 119.530  0.00  0.00    -0.090 HD
ATOM     20  H   LIG d   1      -7.048  81.575 118.252  0.00  0.00    -0.090 HD
ATOM     21  H   LIG d   1      -5.435  81.402 118.021  0.00  0.00    -0.090 HD
ENDBRANCH   5  18
BRANCH   3  22
ATOM     22  C   LIG d   1      -9.418  77.563 118.475  0.00  0.00     0.382 C 
ATOM     23  O   LIG d   1     -10.060  78.172 119.365  0.00  0.00    -0.241 OA
ATOM     24  O   LIG d   1      -9.874  76.502 118.008  0.00  0.00    -0.241 OA
ENDBRANCH   3  22
TORSDOF 7
ENDMDL
MODEL 8
REMARK VINA RESULT:      -4.2      3.066      5.588
REMARK  7 active torsions:
REMARK  status: ('A' for Active; 'I' for Inactive)
REMARK    1  A    between atoms: C_2  and  C_3 
REMARK    2  A    between atoms: C_3  and  O_6 
REMARK    3  A    between atoms: C_3  and  C_4 
REMARK    4  A    between atoms: C_7  and  O_6 
REMARK    5  A    between atoms: C_9  and  C_10 
REMARK    6  A    between atoms: N_15  and  C_14 
REMARK    7  A    between atoms: N_20  and  C_19 
REMARK       I    between atoms: C_22  and  N_20 
ROOT
ATOM      1  C   LIG d   1      -1.726  79.818 114.517  0.00  0.00     0.161 C 
ATOM      2  C   LIG d   1      -2.621  78.809 114.908  0.00  0.00     0.016 C 
ATOM      3  C   LIG d   1      -3.076  77.792 114.038  0.00  0.00     0.038 C 
ATOM      4  C   LIG d   1      -2.545  77.626 112.750  0.00  0.00     0.028 C 
ATOM      5  C   LIG d   1      -2.015  78.921 112.142  0.00  0.00    -0.047 C 
ATOM      6  C   LIG d   1      -1.051  79.589 113.149  0.00  0.00     0.091 C 
ENDROOT
BRANCH   1   7
ATOM      7  O   LIG d   1      -0.730  80.012 115.541  0.00  0.00    -0.368 OA
BRANCH   7   8
ATOM      8  C   LIG d   1      -0.992  79.372 116.814  0.00  0.00     0.119 C 
BRANCH   8   9
ATOM      9  C   LIG d   1      -1.090  80.482 117.879  0.00  0.00     0.028 C 
ATOM     10  C   LIG d   1      -2.439  80.470 118.616  0.00  0.00     0.006 C 
ENDBRANCH   8   9
BRANCH   8  11
ATOM     11  C   LIG d   1       0.186  78.495 117.249  0.00  0.00     0.028 C 
ATOM     12  C   LIG d   1       0.005  77.019 116.860  0.00  0.00     0.006 C 
ENDBRANCH   8  11
ENDBRANCH   7   8
ENDBRANCH   1   7
BRANCH   6  13
ATOM     13  N   LIG d   1      -0.552  80.904 112.668  0.00  0.00    -0.311 N 
ATOM     14  C   LIG d   1      -1.353  81.910 112.320  0.00  0.00     0.210 C 
ATOM     15  C   LIG d   1      -0.634  83.171 111.832  0.00  0.00     0.109 C 
ATOM     16  O   LIG d   1      -2.591  81.888 112.399  0.00  0.00    -0.276 OA
ATOM     17  H   LIG d   1       0.440  81.019 112.603  0.00  0.00     0.149 HD
ENDBRANCH   6  13
BRANCH   5  18
ATOM     18  N   LIG d   1      -1.369  78.580 110.861  0.00  0.00     0.381 N 
ATOM     19  H   LIG d   1      -1.754  77.729 110.503  0.00  0.00    -0.090 HD
ATOM     20  H   LIG d   1      -0.387  78.438 111.020  0.00  0.00    -0.090 HD
ATOM     21  H   LIG d   1      -1.503  79.317 110.204  0.00  0.00    -0.090 HD
ENDBRANCH   5  18
BRANCH   3  22
ATOM     22  C   LIG d   1      -4.102  76.950 114.440  0.00  0.00     0.382 C 
ATOM     23  O   LIG d   1      -4.336  75.897 113.801  0.00  0.00    -0.241 OA
ATOM     24  O   LIG d   1      -4.825  77.254 115.408  0.00  0.00    -0.241 OA
ENDBRANCH   3  22
TORSDOF 7
ENDMDL
MODEL 9
REMARK VINA RESULT:      -4.2      3.474      4.746
REMARK  7 active torsions:
REMARK  status: ('A' for Active; 'I' for Inactive)
REMARK    1  A    between atoms: C_2  and  C_3 
REMARK    2  A    between atoms: C_3  and  O_6 
REMARK    3  A    between atoms: C_3  and  C_4 
REMARK    4  A    between atoms: C_7  and  O_6 
REMARK    5  A    between atoms: C_9  and  C_10 
REMARK    6  A    between atoms: N_15  and  C_14 
REMARK    7  A    between atoms: N_20  and  C_19 
REMARK       I    between atoms: C_22  and  N_20 
ROOT
ATOM      1  C   LIG d   1      -6.428  78.175 119.133  0.00  0.00     0.161 C 
ATOM      2  C   LIG d   1      -7.174  79.337 118.874  0.00  0.00     0.016 C 
ATOM      3  C   LIG d   1      -6.671  80.438 118.143  0.00  0.00     0.038 C 
ATOM      4  C   LIG d   1      -5.432  80.388 117.487  0.00  0.00     0.028 C 
ATOM      5  C   LIG d   1      -4.438  79.435 118.142  0.00  0.00    -0.047 C 
ATOM      6  C   LIG d   1      -5.115  78.058 118.332  0.00  0.00     0.091 C 
ENDROOT
BRANCH   1   7
ATOM      7  O   LIG d   1      -7.250  77.010 118.922  0.00  0.00    -0.368 OA
BRANCH   7   8
ATOM      8  C   LIG d   1      -8.131  77.051 117.773  0.00  0.00     0.119 C 
BRANCH   8   9
ATOM      9  C   LIG d   1      -9.542  76.662 118.258  0.00  0.00     0.028 C 
ATOM     10  C   LIG d   1     -10.060  75.379 117.586  0.00  0.00     0.006 C 
ENDBRANCH   8   9
BRANCH   8  11
ATOM     11  C   LIG d   1      -7.750  75.987 116.740  0.00  0.00     0.028 C 
ATOM     12  C   LIG d   1      -6.680  76.475 115.750  0.00  0.00     0.006 C 
ENDBRANCH   8  11
ENDBRANCH   7   8
ENDBRANCH   1   7
BRANCH   6  13
ATOM     13  N   LIG d   1      -4.239  77.090 119.043  0.00  0.00    -0.311 N 
ATOM     14  C   LIG d   1      -3.435  76.232 118.417  0.00  0.00     0.210 C 
ATOM     15  C   LIG d   1      -2.633  75.308 119.338  0.00  0.00     0.109 C 
ATOM     16  O   LIG d   1      -3.286  76.171 117.187  0.00  0.00    -0.276 OA
ATOM     17  H   LIG d   1      -4.274  77.092 120.043  0.00  0.00     0.149 HD
ENDBRANCH   6  13
BRANCH   5  18
ATOM     18  N   LIG d   1      -3.242  79.377 117.280  0.00  0.00     0.381 N 
ATOM     19  H   LIG d   1      -2.453  79.077 117.816  0.00  0.00    -0.090 HD
ATOM     20  H   LIG d   1      -3.052  80.298 116.926  0.00  0.00    -0.090 HD
ATOM     21  H   LIG d   1      -3.397  78.748 116.523  0.00  0.00    -0.090 HD
ENDBRANCH   5  18
BRANCH   3  22
ATOM     22  C   LIG d   1      -7.395  81.619 118.095  0.00  0.00     0.382 C 
ATOM     23  O   LIG d   1      -7.761  82.087 116.989  0.00  0.00    -0.241 OA
ATOM     24  O   LIG d   1      -7.649  82.247 119.140  0.00  0.00    -0.241 OA
ENDBRANCH   3  22
TORSDOF 7
ENDMDL
