MODEL 1
REMARK VINA RESULT:      -5.0      0.000      0.000
REMARK  7 active torsions:
REMARK  status: ('A' for Active; 'I' for Inactive)
REMARK    1  A    between atoms: C_2  and  C_3 
REMARK    2  A    between atoms: C_3  and  O_6 
REMARK    3  A    between atoms: C_3  and  C_4 
REMARK    4  A    between atoms: C_7  and  O_6 
REMARK    5  A    between atoms: C_9  and  C_10 
REMARK    6  A    between atoms: N_15  and  C_14 
REMARK    7  A    between atoms: N_20  and  C_19 
REMARK       I    between atoms: C_22  and  N_20 
ROOT
ATOM      1  C   LIG d   1      -2.307  78.236 115.393  0.00  0.00     0.161 C 
ATOM      2  C   LIG d   1      -2.667  79.394 114.684  0.00  0.00     0.016 C 
ATOM      3  C   LIG d   1      -2.229  79.669 113.368  0.00  0.00     0.038 C 
ATOM      4  C   LIG d   1      -1.518  78.726 112.611  0.00  0.00     0.028 C 
ATOM      5  C   LIG d   1      -0.704  77.757 113.461  0.00  0.00    -0.047 C 
ATOM      6  C   LIG d   1      -1.623  77.145 114.543  0.00  0.00     0.091 C 
ENDROOT
BRANCH   1   7
ATOM      7  O   LIG d   1      -3.460  77.697 116.067  0.00  0.00    -0.368 OA
BRANCH   7   8
ATOM      8  C   LIG d   1      -3.696  78.180 117.413  0.00  0.00     0.119 C 
BRANCH   8   9
ATOM      9  C   LIG d   1      -4.119  76.972 118.270  0.00  0.00     0.028 C 
ATOM     10  C   LIG d   1      -3.323  75.701 117.929  0.00  0.00     0.006 C 
ENDBRANCH   8   9
BRANCH   8  11
ATOM     11  C   LIG d   1      -4.884  79.146 117.458  0.00  0.00     0.028 C 
ATOM     12  C   LIG d   1      -6.240  78.425 117.408  0.00  0.00     0.006 C 
ENDBRANCH   8  11
ENDBRANCH   7   8
ENDBRANCH   1   7
BRANCH   6  13
ATOM     13  N   LIG d   1      -0.886  76.248 115.472  0.00  0.00    -0.311 N 
ATOM     14  C   LIG d   1      -0.755  74.937 115.276  0.00  0.00     0.210 C 
ATOM     15  C   LIG d   1       0.026  74.195 116.365  0.00  0.00     0.109 C 
ATOM     16  O   LIG d   1      -1.185  74.324 114.288  0.00  0.00    -0.276 OA
ATOM     17  H   LIG d   1      -0.478  76.668 116.284  0.00  0.00     0.149 HD
ENDBRANCH   6  13
BRANCH   5  18
ATOM     18  N   LIG d   1      -0.125  76.747 112.555  0.00  0.00     0.381 N 
ATOM     19  H   LIG d   1      -0.193  77.063 111.608  0.00  0.00    -0.090 HD
ATOM     20  H   LIG d   1      -0.650  75.894 112.641  0.00  0.00    -0.090 HD
ATOM     21  H   LIG d   1       0.829  76.583 112.791  0.00  0.00    -0.090 HD
ENDBRANCH   5  18
BRANCH   3  22
ATOM     22  C   LIG d   1      -2.468  80.916 112.810  0.00  0.00     0.382 C 
ATOM     23  O   LIG d   1      -3.646  81.328 112.678  0.00  0.00    -0.241 OA
ATOM     24  O   LIG d   1      -1.524  81.615 112.397  0.00  0.00    -0.241 OA
ENDBRANCH   3  22
TORSDOF 7
ENDMDL
MODEL 2
REMARK VINA RESULT:      -4.8      1.511      1.619
REMARK  7 active torsions:
REMARK  status: ('A' for Active; 'I' for Inactive)
REMARK    1  A    between atoms: C_2  and  C_3 
REMARK    2  A    between atoms: C_3  and  O_6 
REMARK    3  A    between atoms: C_3  and  C_4 
REMARK    4  A    between atoms: C_7  and  O_6 
REMARK    5  A    between atoms: C_9  and  C_10 
REMARK    6  A    between atoms: N_15  and  C_14 
REMARK    7  A    between atoms: N_20  and  C_19 
REMARK       I    between atoms: C_22  and  N_20 
ROOT
ATOM      1  C   LIG d   1      -2.589  77.595 114.449  0.00  0.00     0.161 C 
ATOM      2  C   LIG d   1      -2.841  78.917 114.049  0.00  0.00     0.016 C 
ATOM      3  C   LIG d   1      -2.222  79.523 112.931  0.00  0.00     0.038 C 
ATOM      4  C   LIG d   1      -1.418  78.793 112.042  0.00  0.00     0.028 C 
ATOM      5  C   LIG d   1      -0.736  77.593 112.689  0.00  0.00    -0.047 C 
ATOM      6  C   LIG d   1      -1.800  76.749 113.427  0.00  0.00     0.091 C 
ENDROOT
BRANCH   1   7
ATOM      7  O   LIG d   1      -3.829  76.943 114.788  0.00  0.00    -0.368 OA
BRANCH   7   8
ATOM      8  C   LIG d   1      -3.991  76.566 116.178  0.00  0.00     0.119 C 
BRANCH   8   9
ATOM      9  C   LIG d   1      -4.384  75.076 116.211  0.00  0.00     0.028 C 
ATOM     10  C   LIG d   1      -4.838  74.559 114.835  0.00  0.00     0.006 C 
ENDBRANCH   8   9
BRANCH   8  11
ATOM     11  C   LIG d   1      -5.164  77.309 116.824  0.00  0.00     0.028 C 
ATOM     12  C   LIG d   1      -4.794  78.732 117.270  0.00  0.00     0.006 C 
ENDBRANCH   8  11
ENDBRANCH   7   8
ENDBRANCH   1   7
BRANCH   6  13
ATOM     13  N   LIG d   1      -1.205  75.600 114.159  0.00  0.00    -0.311 N 
ATOM     14  C   LIG d   1      -0.319  75.738 115.144  0.00  0.00     0.210 C 
ATOM     15  C   LIG d   1       0.184  74.424 115.750  0.00  0.00     0.109 C 
ATOM     16  O   LIG d   1       0.075  76.824 115.595  0.00  0.00    -0.276 OA
ATOM     17  H   LIG d   1      -1.492  74.683 113.879  0.00  0.00     0.149 HD
ENDBRANCH   6  13
BRANCH   5  18
ATOM     18  N   LIG d   1      -0.043  76.846 111.622  0.00  0.00     0.381 N 
ATOM     19  H   LIG d   1       0.320  75.989 111.990  0.00  0.00    -0.090 HD
ATOM     20  H   LIG d   1       0.727  77.397 111.287  0.00  0.00    -0.090 HD
ATOM     21  H   LIG d   1      -0.674  76.654 110.876  0.00  0.00    -0.090 HD
ENDBRANCH   5  18
BRANCH   3  22
ATOM     22  C   LIG d   1      -2.374  80.884 112.715  0.00  0.00     0.382 C 
ATOM     23  O   LIG d   1      -3.512  81.408 112.791  0.00  0.00    -0.241 OA
ATOM     24  O   LIG d   1      -1.395  81.588 112.402  0.00  0.00    -0.241 OA
ENDBRANCH   3  22
TORSDOF 7
ENDMDL
MODEL 3
REMARK VINA RESULT:      -4.7      1.722      2.132
REMARK  7 active torsions:
REMARK  status: ('A' for Active; 'I' for Inactive)
REMARK    1  A    between atoms: C_2  and  C_3 
REMARK    2  A    between atoms: C_3  and  O_6 
REMARK    3  A    between atoms: C_3  and  C_4 
REMARK    4  A    between atoms: C_7  and  O_6 
REMARK    5  A    between atoms: C_9  and  C_10 
REMARK    6  A    between atoms: N_15  and  C_14 
REMARK    7  A    between atoms: N_20  and  C_19 
REMARK       I    between atoms: C_22  and  N_20 
ROOT
ATOM      1  C   LIG d   1      -2.279  78.770 114.706  0.00  0.00     0.161 C 
ATOM      2  C   LIG d   1      -1.906  79.919 113.988  0.00  0.00     0.016 C 
ATOM      3  C   LIG d   1      -1.363  79.879 112.683  0.00  0.00     0.038 C 
ATOM      4  C   LIG d   1      -1.297  78.689 111.944  0.00  0.00     0.028 C 
ATOM      5  C   LIG d   1      -1.193  77.441 112.813  0.00  0.00    -0.047 C 
ATOM      6  C   LIG d   1      -2.318  77.472 113.873  0.00  0.00     0.091 C 
ENDROOT
BRANCH   1   7
ATOM      7  O   LIG d   1      -3.549  78.988 115.352  0.00  0.00    -0.368 OA
BRANCH   7   8
ATOM      8  C   LIG d   1      -3.496  79.543 116.689  0.00  0.00     0.119 C 
BRANCH   8   9
ATOM      9  C   LIG d   1      -2.388  78.797 117.457  0.00  0.00     0.028 C 
ATOM     10  C   LIG d   1      -1.493  79.749 118.267  0.00  0.00     0.006 C 
ENDBRANCH   8   9
BRANCH   8  11
ATOM     11  C   LIG d   1      -4.788  79.259 117.462  0.00  0.00     0.028 C 
ATOM     12  C   LIG d   1      -5.411  80.526 118.068  0.00  0.00     0.006 C 
ENDBRANCH   8  11
ENDBRANCH   7   8
ENDBRANCH   1   7
BRANCH   6  13
ATOM     13  N   LIG d   1      -2.237  76.328 114.818  0.00  0.00    -0.311 N 
ATOM     14  C   LIG d   1      -3.122  75.332 114.842  0.00  0.00     0.210 C 
ATOM     15  C   LIG d   1      -2.864  74.264 115.909  0.00  0.00     0.109 C 
ATOM     16  O   LIG d   1      -4.077  75.216 114.059  0.00  0.00    -0.276 OA
ATOM     17  H   LIG d   1      -1.475  76.326 115.468  0.00  0.00     0.149 HD
ENDBRANCH   6  13
BRANCH   5  18
ATOM     18  N   LIG d   1      -1.271  76.269 111.921  0.00  0.00     0.381 N 
ATOM     19  H   LIG d   1      -0.726  76.433 111.098  0.00  0.00    -0.090 HD
ATOM     20  H   LIG d   1      -2.227  76.134 111.644  0.00  0.00    -0.090 HD
ATOM     21  H   LIG d   1      -0.936  75.458 112.393  0.00  0.00    -0.090 HD
ENDBRANCH   5  18
BRANCH   3  22
ATOM     22  C   LIG d   1      -0.843  81.035 112.121  0.00  0.00     0.382 C 
ATOM     23  O   LIG d   1       0.331  81.043 111.678  0.00  0.00    -0.241 OA
ATOM     24  O   LIG d   1      -1.517  82.082 112.090  0.00  0.00    -0.241 OA
ENDBRANCH   3  22
TORSDOF 7
ENDMDL
MODEL 4
REMARK VINA RESULT:      -4.6      1.371      2.079
REMARK  7 active torsions:
REMARK  status: ('A' for Active; 'I' for Inactive)
REMARK    1  A    between atoms: C_2  and  C_3 
REMARK    2  A    between atoms: C_3  and  O_6 
REMARK    3  A    between atoms: C_3  and  C_4 
REMARK    4  A    between atoms: C_7  and  O_6 
REMARK    5  A    between atoms: C_9  and  C_10 
REMARK    6  A    between atoms: N_15  and  C_14 
REMARK    7  A    between atoms: N_20  and  C_19 
REMARK       I    between atoms: C_22  and  N_20 
ROOT
ATOM      1  C   LIG d   1      -2.616  77.500 114.215  0.00  0.00     0.161 C 
ATOM      2  C   LIG d   1      -2.872  78.838 113.874  0.00  0.00     0.016 C 
ATOM      3  C   LIG d   1      -2.202  79.517 112.830  0.00  0.00     0.038 C 
ATOM      4  C   LIG d   1      -1.334  78.853 111.951  0.00  0.00     0.028 C 
ATOM      5  C   LIG d   1      -0.665  77.630 112.569  0.00  0.00    -0.047 C 
ATOM      6  C   LIG d   1      -1.752  76.727 113.196  0.00  0.00     0.091 C 
ENDROOT
BRANCH   1   7
ATOM      7  O   LIG d   1      -3.859  76.808 114.444  0.00  0.00    -0.368 OA
BRANCH   7   8
ATOM      8  C   LIG d   1      -4.136  76.433 115.816  0.00  0.00     0.119 C 
BRANCH   8   9
ATOM      9  C   LIG d   1      -3.120  77.168 116.711  0.00  0.00     0.028 C 
ATOM     10  C   LIG d   1      -3.767  78.303 117.523  0.00  0.00     0.006 C 
ENDBRANCH   8   9
BRANCH   8  11
ATOM     11  C   LIG d   1      -3.877  74.941 116.049  0.00  0.00     0.028 C 
ATOM     12  C   LIG d   1      -3.018  74.674 117.294  0.00  0.00     0.006 C 
ENDBRANCH   8  11
ENDBRANCH   7   8
ENDBRANCH   1   7
BRANCH   6  13
ATOM     13  N   LIG d   1      -1.176  75.549 113.896  0.00  0.00    -0.311 N 
ATOM     14  C   LIG d   1      -0.286  75.646 114.882  0.00  0.00     0.210 C 
ATOM     15  C   LIG d   1       0.194  74.307 115.453  0.00  0.00     0.109 C 
ATOM     16  O   LIG d   1       0.127  76.713 115.359  0.00  0.00    -0.276 OA
ATOM     17  H   LIG d   1      -1.481  74.645 113.593  0.00  0.00     0.149 HD
ENDBRANCH   6  13
BRANCH   5  18
ATOM     18  N   LIG d   1       0.103  76.956 111.505  0.00  0.00     0.381 N 
ATOM     19  H   LIG d   1      -0.236  77.244 110.609  0.00  0.00    -0.090 HD
ATOM     20  H   LIG d   1      -0.028  75.964 111.588  0.00  0.00    -0.090 HD
ATOM     21  H   LIG d   1       1.070  77.180 111.589  0.00  0.00    -0.090 HD
ENDBRANCH   5  18
BRANCH   3  22
ATOM     22  C   LIG d   1      -2.370  80.886 112.682  0.00  0.00     0.382 C 
ATOM     23  O   LIG d   1      -3.512  81.393 112.791  0.00  0.00    -0.241 OA
ATOM     24  O   LIG d   1      -1.400  81.614 112.397  0.00  0.00    -0.241 OA
ENDBRANCH   3  22
TORSDOF 7
ENDMDL
MODEL 5
REMARK VINA RESULT:      -4.5      2.769      3.863
REMARK  7 active torsions:
REMARK  status: ('A' for Active; 'I' for Inactive)
REMARK    1  A    between atoms: C_2  and  C_3 
REMARK    2  A    between atoms: C_3  and  O_6 
REMARK    3  A    between atoms: C_3  and  C_4 
REMARK    4  A    between atoms: C_7  and  O_6 
REMARK    5  A    between atoms: C_9  and  C_10 
REMARK    6  A    between atoms: N_15  and  C_14 
REMARK    7  A    between atoms: N_20  and  C_19 
REMARK       I    between atoms: C_22  and  N_20 
ROOT
ATOM      1  C   LIG d   1      -2.643  76.329 114.701  0.00  0.00     0.161 C 
ATOM      2  C   LIG d   1      -3.289  77.134 115.654  0.00  0.00     0.016 C 
ATOM      3  C   LIG d   1      -2.980  78.498 115.860  0.00  0.00     0.038 C 
ATOM      4  C   LIG d   1      -2.102  79.194 115.016  0.00  0.00     0.028 C 
ATOM      5  C   LIG d   1      -1.053  78.301 114.364  0.00  0.00    -0.047 C 
ATOM      6  C   LIG d   1      -1.761  77.100 113.696  0.00  0.00     0.091 C 
ENDROOT
BRANCH   1   7
ATOM      7  O   LIG d   1      -3.613  75.525 114.002  0.00  0.00    -0.368 OA
BRANCH   7   8
ATOM      8  C   LIG d   1      -4.970  75.580 114.506  0.00  0.00     0.119 C 
BRANCH   8   9
ATOM      9  C   LIG d   1      -5.319  74.182 115.051  0.00  0.00     0.028 C 
ATOM     10  C   LIG d   1      -6.027  74.243 116.415  0.00  0.00     0.006 C 
ENDBRANCH   8   9
BRANCH   8  11
ATOM     11  C   LIG d   1      -5.973  75.838 113.378  0.00  0.00     0.028 C 
ATOM     12  C   LIG d   1      -5.422  76.777 112.293  0.00  0.00     0.006 C 
ENDBRANCH   8  11
ENDBRANCH   7   8
ENDBRANCH   1   7
BRANCH   6  13
ATOM     13  N   LIG d   1      -0.800  76.132 113.107  0.00  0.00    -0.311 N 
ATOM     14  C   LIG d   1      -0.578  76.023 111.798  0.00  0.00     0.210 C 
ATOM     15  C   LIG d   1       0.437  74.947 111.401  0.00  0.00     0.109 C 
ATOM     16  O   LIG d   1      -1.103  76.737 110.930  0.00  0.00    -0.276 OA
ATOM     17  H   LIG d   1      -0.307  75.534 113.741  0.00  0.00     0.149 HD
ENDBRANCH   6  13
BRANCH   5  18
ATOM     18  N   LIG d   1      -0.294  79.129 113.408  0.00  0.00     0.381 N 
ATOM     19  H   LIG d   1       0.687  79.025 113.573  0.00  0.00    -0.090 HD
ATOM     20  H   LIG d   1      -0.537  80.094 113.550  0.00  0.00    -0.090 HD
ATOM     21  H   LIG d   1      -0.512  78.859 112.474  0.00  0.00    -0.090 HD
ENDBRANCH   5  18
BRANCH   3  22
ATOM     22  C   LIG d   1      -3.523  79.170 116.944  0.00  0.00     0.382 C 
ATOM     23  O   LIG d   1      -2.950  79.126 118.060  0.00  0.00    -0.241 OA
ATOM     24  O   LIG d   1      -4.602  79.782 116.833  0.00  0.00    -0.241 OA
ENDBRANCH   3  22
TORSDOF 7
ENDMDL
MODEL 6
REMARK VINA RESULT:      -4.5      2.655      5.122
REMARK  7 active torsions:
REMARK  status: ('A' for Active; 'I' for Inactive)
REMARK    1  A    between atoms: C_2  and  C_3 
REMARK    2  A    between atoms: C_3  and  O_6 
REMARK    3  A    between atoms: C_3  and  C_4 
REMARK    4  A    between atoms: C_7  and  O_6 
REMARK    5  A    between atoms: C_9  and  C_10 
REMARK    6  A    between atoms: N_15  and  C_14 
REMARK    7  A    between atoms: N_20  and  C_19 
REMARK       I    between atoms: C_22  and  N_20 
ROOT
ATOM      1  C   LIG d   1      -1.432  79.857 113.486  0.00  0.00     0.161 C 
ATOM      2  C   LIG d   1      -2.321  78.774 113.582  0.00  0.00     0.016 C 
ATOM      3  C   LIG d   1      -2.408  77.750 112.610  0.00  0.00     0.038 C 
ATOM      4  C   LIG d   1      -1.500  77.660 111.545  0.00  0.00     0.028 C 
ATOM      5  C   LIG d   1      -0.913  79.006 111.134  0.00  0.00    -0.047 C 
ATOM      6  C   LIG d   1      -0.356  79.716 112.389  0.00  0.00     0.091 C 
ENDROOT
BRANCH   1   7
ATOM      7  O   LIG d   1      -0.813  80.095 114.766  0.00  0.00    -0.368 OA
BRANCH   7   8
ATOM      8  C   LIG d   1      -0.971  79.049 115.755  0.00  0.00     0.119 C 
BRANCH   8   9
ATOM      9  C   LIG d   1      -1.408  79.718 117.073  0.00  0.00     0.028 C 
ATOM     10  C   LIG d   1      -2.866  79.397 117.440  0.00  0.00     0.006 C 
ENDBRANCH   8   9
BRANCH   8  11
ATOM     11  C   LIG d   1       0.366  78.371 116.068  0.00  0.00     0.028 C 
ATOM     12  C   LIG d   1       0.199  76.940 116.603  0.00  0.00     0.006 C 
ENDBRANCH   8  11
ENDBRANCH   7   8
ENDBRANCH   1   7
BRANCH   6  13
ATOM     13  N   LIG d   1       0.161  81.076 112.088  0.00  0.00    -0.311 N 
ATOM     14  C   LIG d   1      -0.626  82.134 111.899  0.00  0.00     0.210 C 
ATOM     15  C   LIG d   1       0.111  83.439 111.581  0.00  0.00     0.109 C 
ATOM     16  O   LIG d   1      -1.862  82.123 111.997  0.00  0.00    -0.276 OA
ATOM     17  H   LIG d   1       1.154  81.182 112.022  0.00  0.00     0.149 HD
ENDBRANCH   6  13
BRANCH   5  18
ATOM     18  N   LIG d   1       0.118  78.748 110.110  0.00  0.00     0.381 N 
ATOM     19  H   LIG d   1       0.332  79.596 109.624  0.00  0.00    -0.090 HD
ATOM     20  H   LIG d   1      -0.242  78.086 109.446  0.00  0.00    -0.090 HD
ATOM     21  H   LIG d   1       0.941  78.386 110.539  0.00  0.00    -0.090 HD
ENDBRANCH   5  18
BRANCH   3  22
ATOM     22  C   LIG d   1      -3.439  76.825 112.677  0.00  0.00     0.382 C 
ATOM     23  O   LIG d   1      -4.490  77.009 112.018  0.00  0.00    -0.241 OA
ATOM     24  O   LIG d   1      -3.349  75.831 113.423  0.00  0.00    -0.241 OA
ENDBRANCH   3  22
TORSDOF 7
ENDMDL
MODEL 7
REMARK VINA RESULT:      -4.4      3.347      6.360
REMARK  7 active torsions:
REMARK  status: ('A' for Active; 'I' for Inactive)
REMARK    1  A    between atoms: C_2  and  C_3 
REMARK    2  A    between atoms: C_3  and  O_6 
REMARK    3  A    between atoms: C_3  and  C_4 
REMARK    4  A    between atoms: C_7  and  O_6 
REMARK    5  A    between atoms: C_9  and  C_10 
REMARK    6  A    between atoms: N_15  and  C_14 
REMARK    7  A    between atoms: N_20  and  C_19 
REMARK       I    between atoms: C_22  and  N_20 
ROOT
ATOM      1  C   LIG d   1      -5.460  76.539 116.137  0.00  0.00     0.161 C 
ATOM      2  C   LIG d   1      -6.768  76.035 116.238  0.00  0.00     0.016 C 
ATOM      3  C   LIG d   1      -7.735  76.554 117.129  0.00  0.00     0.038 C 
ATOM      4  C   LIG d   1      -7.504  77.718 117.878  0.00  0.00     0.028 C 
ATOM      5  C   LIG d   1      -6.030  77.959 118.184  0.00  0.00    -0.047 C 
ATOM      6  C   LIG d   1      -5.225  77.878 116.867  0.00  0.00     0.091 C 
ENDROOT
BRANCH   1   7
ATOM      7  O   LIG d   1      -5.085  76.651 114.750  0.00  0.00    -0.368 OA
BRANCH   7   8
ATOM      8  C   LIG d   1      -4.146  75.661 114.262  0.00  0.00     0.119 C 
BRANCH   8   9
ATOM      9  C   LIG d   1      -3.617  74.883 115.482  0.00  0.00     0.028 C 
ATOM     10  C   LIG d   1      -2.085  74.948 115.600  0.00  0.00     0.006 C 
ENDBRANCH   8   9
BRANCH   8  11
ATOM     11  C   LIG d   1      -2.914  76.322 113.637  0.00  0.00     0.028 C 
ATOM     12  C   LIG d   1      -3.256  77.172 112.403  0.00  0.00     0.006 C 
ENDBRANCH   8  11
ENDBRANCH   7   8
ENDBRANCH   1   7
BRANCH   6  13
ATOM     13  N   LIG d   1      -3.762  78.020 117.087  0.00  0.00    -0.311 N 
ATOM     14  C   LIG d   1      -2.977  78.782 116.328  0.00  0.00     0.210 C 
ATOM     15  C   LIG d   1      -1.494  78.770 116.715  0.00  0.00     0.109 C 
ATOM     16  O   LIG d   1      -3.372  79.492 115.391  0.00  0.00    -0.276 OA
ATOM     17  H   LIG d   1      -3.363  77.503 117.845  0.00  0.00     0.149 HD
ENDBRANCH   6  13
BRANCH   5  18
ATOM     18  N   LIG d   1      -5.921  79.272 118.848  0.00  0.00     0.381 N 
ATOM     19  H   LIG d   1      -6.489  79.942 118.368  0.00  0.00    -0.090 HD
ATOM     20  H   LIG d   1      -4.966  79.580 118.805  0.00  0.00    -0.090 HD
ATOM     21  H   LIG d   1      -6.212  79.198 119.798  0.00  0.00    -0.090 HD
ENDBRANCH   5  18
BRANCH   3  22
ATOM     22  C   LIG d   1      -8.935  75.883 117.307  0.00  0.00     0.382 C 
ATOM     23  O   LIG d   1      -9.878  76.437 117.923  0.00  0.00    -0.241 OA
ATOM     24  O   LIG d   1      -9.072  74.715 116.899  0.00  0.00    -0.241 OA
ENDBRANCH   3  22
TORSDOF 7
ENDMDL
MODEL 8
REMARK VINA RESULT:      -4.4      3.886      5.137
REMARK  7 active torsions:
REMARK  status: ('A' for Active; 'I' for Inactive)
REMARK    1  A    between atoms: C_2  and  C_3 
REMARK    2  A    between atoms: C_3  and  O_6 
REMARK    3  A    between atoms: C_3  and  C_4 
REMARK    4  A    between atoms: C_7  and  O_6 
REMARK    5  A    between atoms: C_9  and  C_10 
REMARK    6  A    between atoms: N_15  and  C_14 
REMARK    7  A    between atoms: N_20  and  C_19 
REMARK       I    between atoms: C_22  and  N_20 
ROOT
ATOM      1  C   LIG d   1      -5.664  76.945 118.485  0.00  0.00     0.161 C 
ATOM      2  C   LIG d   1      -6.475  78.090 118.399  0.00  0.00     0.016 C 
ATOM      3  C   LIG d   1      -6.002  79.347 117.958  0.00  0.00     0.038 C 
ATOM      4  C   LIG d   1      -4.715  79.510 117.425  0.00  0.00     0.028 C 
ATOM      5  C   LIG d   1      -3.705  78.501 117.961  0.00  0.00    -0.047 C 
ATOM      6  C   LIG d   1      -4.286  77.077 117.802  0.00  0.00     0.091 C 
ENDROOT
BRANCH   1   7
ATOM      7  O   LIG d   1      -6.373  75.804 117.964  0.00  0.00    -0.368 OA
BRANCH   7   8
ATOM      8  C   LIG d   1      -6.375  75.657 116.523  0.00  0.00     0.119 C 
BRANCH   8   9
ATOM      9  C   LIG d   1      -7.824  75.860 116.039  0.00  0.00     0.028 C 
ATOM     10  C   LIG d   1      -8.859  75.341 117.051  0.00  0.00     0.006 C 
ENDBRANCH   8   9
BRANCH   8  11
ATOM     11  C   LIG d   1      -6.005  74.231 116.107  0.00  0.00     0.028 C 
ATOM     12  C   LIG d   1      -5.190  74.182 114.805  0.00  0.00     0.006 C 
ENDBRANCH   8  11
ENDBRANCH   7   8
ENDBRANCH   1   7
BRANCH   6  13
ATOM     13  N   LIG d   1      -3.397  76.035 118.379  0.00  0.00    -0.311 N 
ATOM     14  C   LIG d   1      -2.531  75.328 117.655  0.00  0.00     0.210 C 
ATOM     15  C   LIG d   1      -1.726  74.290 118.443  0.00  0.00     0.109 C 
ATOM     16  O   LIG d   1      -2.331  75.484 116.441  0.00  0.00    -0.276 OA
ATOM     17  H   LIG d   1      -3.472  75.865 119.363  0.00  0.00     0.149 HD
ENDBRANCH   6  13
BRANCH   5  18
ATOM     18  N   LIG d   1      -2.444  78.697 117.222  0.00  0.00     0.381 N 
ATOM     19  H   LIG d   1      -2.579  78.473 116.256  0.00  0.00    -0.090 HD
ATOM     20  H   LIG d   1      -1.748  78.075 117.595  0.00  0.00    -0.090 HD
ATOM     21  H   LIG d   1      -2.138  79.641 117.312  0.00  0.00    -0.090 HD
ENDBRANCH   5  18
BRANCH   3  22
ATOM     22  C   LIG d   1      -6.809  80.467 118.086  0.00  0.00     0.382 C 
ATOM     23  O   LIG d   1      -7.700  80.501 118.968  0.00  0.00    -0.241 OA
ATOM     24  O   LIG d   1      -6.687  81.427 117.301  0.00  0.00    -0.241 OA
ENDBRANCH   3  22
TORSDOF 7
ENDMDL
MODEL 9
REMARK VINA RESULT:      -4.4      2.504      3.214
REMARK  7 active torsions:
REMARK  status: ('A' for Active; 'I' for Inactive)
REMARK    1  A    between atoms: C_2  and  C_3 
REMARK    2  A    between atoms: C_3  and  O_6 
REMARK    3  A    between atoms: C_3  and  C_4 
REMARK    4  A    between atoms: C_7  and  O_6 
REMARK    5  A    between atoms: C_9  and  C_10 
REMARK    6  A    between atoms: N_15  and  C_14 
REMARK    7  A    between atoms: N_20  and  C_19 
REMARK       I    between atoms: C_22  and  N_20 
ROOT
ATOM      1  C   LIG d   1      -3.429  76.480 115.047  0.00  0.00     0.161 C 
ATOM      2  C   LIG d   1      -3.607  76.721 113.674  0.00  0.00     0.016 C 
ATOM      3  C   LIG d   1      -2.535  76.820 112.757  0.00  0.00     0.038 C 
ATOM      4  C   LIG d   1      -1.214  76.530 113.127  0.00  0.00     0.028 C 
ATOM      5  C   LIG d   1      -0.930  76.777 114.604  0.00  0.00    -0.047 C 
ATOM      6  C   LIG d   1      -2.002  76.051 115.449  0.00  0.00     0.091 C 
ENDROOT
BRANCH   1   7
ATOM      7  O   LIG d   1      -4.391  75.506 115.500  0.00  0.00    -0.368 OA
BRANCH   7   8
ATOM      8  C   LIG d   1      -5.589  76.035 116.121  0.00  0.00     0.119 C 
BRANCH   8   9
ATOM      9  C   LIG d   1      -5.186  77.305 116.896  0.00  0.00     0.028 C 
ATOM     10  C   LIG d   1      -6.401  78.163 117.286  0.00  0.00     0.006 C 
ENDBRANCH   8   9
BRANCH   8  11
ATOM     11  C   LIG d   1      -6.140  75.072 117.177  0.00  0.00     0.028 C 
ATOM     12  C   LIG d   1      -7.618  74.719 116.947  0.00  0.00     0.006 C 
ENDBRANCH   8  11
ENDBRANCH   7   8
ENDBRANCH   1   7
BRANCH   6  13
ATOM     13  N   LIG d   1      -1.848  76.310 116.904  0.00  0.00    -0.311 N 
ATOM     14  C   LIG d   1      -2.010  75.373 117.837  0.00  0.00     0.210 C 
ATOM     15  C   LIG d   1      -1.825  75.857 119.279  0.00  0.00     0.109 C 
ATOM     16  O   LIG d   1      -2.258  74.180 117.605  0.00  0.00    -0.276 OA
ATOM     17  H   LIG d   1      -1.617  77.245 117.180  0.00  0.00     0.149 HD
ENDBRANCH   6  13
BRANCH   5  18
ATOM     18  N   LIG d   1       0.440  76.306 114.880  0.00  0.00     0.381 N 
ATOM     19  H   LIG d   1       1.095  76.831 114.337  0.00  0.00    -0.090 HD
ATOM     20  H   LIG d   1       0.511  75.340 114.613  0.00  0.00    -0.090 HD
ATOM     21  H   LIG d   1       0.646  76.405 115.850  0.00  0.00    -0.090 HD
ENDBRANCH   5  18
BRANCH   3  22
ATOM     22  C   LIG d   1      -2.778  77.250 111.461  0.00  0.00     0.382 C 
ATOM     23  O   LIG d   1      -2.031  78.110 110.936  0.00  0.00    -0.241 OA
ATOM     24  O   LIG d   1      -3.760  76.821 110.826  0.00  0.00    -0.241 OA
ENDBRANCH   3  22
TORSDOF 7
ENDMDL
