MODEL 1
REMARK VINA RESULT:      -5.5      0.000      0.000
REMARK  7 active torsions:
REMARK  status: ('A' for Active; 'I' for Inactive)
REMARK    1  A    between atoms: C_2  and  C_3 
REMARK    2  A    between atoms: C_3  and  O_6 
REMARK    3  A    between atoms: C_3  and  C_4 
REMARK    4  A    between atoms: C_7  and  O_6 
REMARK    5  A    between atoms: C_9  and  C_10 
REMARK    6  A    between atoms: N_15  and  C_14 
REMARK    7  A    between atoms: N_20  and  C_19 
REMARK       I    between atoms: C_22  and  N_20 
ROOT
ATOM      1  C   LIG d   1      -3.662  77.583 114.269  0.00  0.00     0.161 C 
ATOM      2  C   LIG d   1      -3.554  78.666 113.381  0.00  0.00     0.016 C 
ATOM      3  C   LIG d   1      -2.361  79.401 113.193  0.00  0.00     0.038 C 
ATOM      4  C   LIG d   1      -1.146  79.005 113.771  0.00  0.00     0.028 C 
ATOM      5  C   LIG d   1      -1.320  78.221 115.068  0.00  0.00    -0.047 C 
ATOM      6  C   LIG d   1      -2.319  77.066 114.826  0.00  0.00     0.091 C 
ENDROOT
BRANCH   1   7
ATOM      7  O   LIG d   1      -4.391  76.509 113.643  0.00  0.00    -0.368 OA
BRANCH   7   8
ATOM      8  C   LIG d   1      -5.573  76.048 114.343  0.00  0.00     0.119 C 
BRANCH   8   9
ATOM      9  C   LIG d   1      -5.366  74.555 114.667  0.00  0.00     0.028 C 
ATOM     10  C   LIG d   1      -5.880  74.182 116.068  0.00  0.00     0.006 C 
ENDBRANCH   8   9
BRANCH   8  11
ATOM     11  C   LIG d   1      -6.810  76.099 113.442  0.00  0.00     0.028 C 
ATOM     12  C   LIG d   1      -6.620  77.013 112.221  0.00  0.00     0.006 C 
ENDBRANCH   8  11
ENDBRANCH   7   8
ENDBRANCH   1   7
BRANCH   6  13
ATOM     13  N   LIG d   1      -2.610  76.300 116.065  0.00  0.00    -0.311 N 
ATOM     14  C   LIG d   1      -1.972  75.181 116.403  0.00  0.00     0.210 C 
ATOM     15  C   LIG d   1      -2.441  74.538 117.712  0.00  0.00     0.109 C 
ATOM     16  O   LIG d   1      -1.039  74.677 115.759  0.00  0.00    -0.276 OA
ATOM     17  H   LIG d   1      -3.332  76.655 116.662  0.00  0.00     0.149 HD
ENDBRANCH   6  13
BRANCH   5  18
ATOM     18  N   LIG d   1       0.014  77.753 115.488  0.00  0.00     0.381 N 
ATOM     19  H   LIG d   1       0.629  77.729 114.699  0.00  0.00    -0.090 HD
ATOM     20  H   LIG d   1      -0.068  76.820 115.852  0.00  0.00    -0.090 HD
ATOM     21  H   LIG d   1       0.383  78.359 116.187  0.00  0.00    -0.090 HD
ENDBRANCH   5  18
BRANCH   3  22
ATOM     22  C   LIG d   1      -2.385  80.571 112.448  0.00  0.00     0.382 C 
ATOM     23  O   LIG d   1      -1.498  80.785 111.588  0.00  0.00    -0.241 OA
ATOM     24  O   LIG d   1      -3.258  81.435 112.658  0.00  0.00    -0.241 OA
ENDBRANCH   3  22
TORSDOF 7
ENDMDL
MODEL 2
REMARK VINA RESULT:      -5.4      1.582      2.389
REMARK  7 active torsions:
REMARK  status: ('A' for Active; 'I' for Inactive)
REMARK    1  A    between atoms: C_2  and  C_3 
REMARK    2  A    between atoms: C_3  and  O_6 
REMARK    3  A    between atoms: C_3  and  C_4 
REMARK    4  A    between atoms: C_7  and  O_6 
REMARK    5  A    between atoms: C_9  and  C_10 
REMARK    6  A    between atoms: N_15  and  C_14 
REMARK    7  A    between atoms: N_20  and  C_19 
REMARK       I    between atoms: C_22  and  N_20 
ROOT
ATOM      1  C   LIG d   1      -3.415  77.427 115.051  0.00  0.00     0.161 C 
ATOM      2  C   LIG d   1      -3.393  77.799 113.697  0.00  0.00     0.016 C 
ATOM      3  C   LIG d   1      -2.282  77.587 112.849  0.00  0.00     0.038 C 
ATOM      4  C   LIG d   1      -1.164  76.847 113.264  0.00  0.00     0.028 C 
ATOM      5  C   LIG d   1      -0.933  76.891 114.770  0.00  0.00    -0.047 C 
ATOM      6  C   LIG d   1      -2.248  76.519 115.491  0.00  0.00     0.091 C 
ENDROOT
BRANCH   1   7
ATOM      7  O   LIG d   1      -4.678  76.809 115.368  0.00  0.00    -0.368 OA
BRANCH   7   8
ATOM      8  C   LIG d   1      -5.216  75.909 114.367  0.00  0.00     0.119 C 
BRANCH   8   9
ATOM      9  C   LIG d   1      -6.707  76.256 114.187  0.00  0.00     0.028 C 
ATOM     10  C   LIG d   1      -7.062  76.576 112.725  0.00  0.00     0.006 C 
ENDBRANCH   8   9
BRANCH   8  11
ATOM     11  C   LIG d   1      -5.193  74.457 114.854  0.00  0.00     0.028 C 
ATOM     12  C   LIG d   1      -6.156  74.206 116.025  0.00  0.00     0.006 C 
ENDBRANCH   8  11
ENDBRANCH   7   8
ENDBRANCH   1   7
BRANCH   6  13
ATOM     13  N   LIG d   1      -2.132  76.620 116.970  0.00  0.00    -0.311 N 
ATOM     14  C   LIG d   1      -2.308  75.586 117.791  0.00  0.00     0.210 C 
ATOM     15  C   LIG d   1      -2.163  75.912 119.281  0.00  0.00     0.109 C 
ATOM     16  O   LIG d   1      -2.538  74.423 117.425  0.00  0.00    -0.276 OA
ATOM     17  H   LIG d   1      -1.917  77.520 117.350  0.00  0.00     0.149 HD
ENDBRANCH   6  13
BRANCH   5  18
ATOM     18  N   LIG d   1       0.177  75.969 115.078  0.00  0.00     0.381 N 
ATOM     19  H   LIG d   1       1.052  76.421 114.902  0.00  0.00    -0.090 HD
ATOM     20  H   LIG d   1       0.110  75.168 114.476  0.00  0.00    -0.090 HD
ATOM     21  H   LIG d   1       0.128  75.683 116.031  0.00  0.00    -0.090 HD
ENDBRANCH   5  18
BRANCH   3  22
ATOM     22  C   LIG d   1      -2.264  78.153 111.584  0.00  0.00     0.382 C 
ATOM     23  O   LIG d   1      -1.883  79.339 111.433  0.00  0.00    -0.241 OA
ATOM     24  O   LIG d   1      -2.667  77.508 110.597  0.00  0.00    -0.241 OA
ENDBRANCH   3  22
TORSDOF 7
ENDMDL
MODEL 3
REMARK VINA RESULT:      -5.2      2.419      2.866
REMARK  7 active torsions:
REMARK  status: ('A' for Active; 'I' for Inactive)
REMARK    1  A    between atoms: C_2  and  C_3 
REMARK    2  A    between atoms: C_3  and  O_6 
REMARK    3  A    between atoms: C_3  and  C_4 
REMARK    4  A    between atoms: C_7  and  O_6 
REMARK    5  A    between atoms: C_9  and  C_10 
REMARK    6  A    between atoms: N_15  and  C_14 
REMARK    7  A    between atoms: N_20  and  C_19 
REMARK       I    between atoms: C_22  and  N_20 
ROOT
ATOM      1  C   LIG d   1      -3.163  78.507 115.441  0.00  0.00     0.161 C 
ATOM      2  C   LIG d   1      -3.201  79.490 114.438  0.00  0.00     0.016 C 
ATOM      3  C   LIG d   1      -2.402  79.445 113.273  0.00  0.00     0.038 C 
ATOM      4  C   LIG d   1      -1.616  78.327 112.956  0.00  0.00     0.028 C 
ATOM      5  C   LIG d   1      -1.162  77.540 114.181  0.00  0.00    -0.047 C 
ATOM      6  C   LIG d   1      -2.393  77.225 115.060  0.00  0.00     0.091 C 
ENDROOT
BRANCH   1   7
ATOM      7  O   LIG d   1      -4.504  78.181 115.857  0.00  0.00    -0.368 OA
BRANCH   7   8
ATOM      8  C   LIG d   1      -5.136  79.119 116.762  0.00  0.00     0.119 C 
BRANCH   8   9
ATOM      9  C   LIG d   1      -4.441  78.982 118.130  0.00  0.00     0.028 C 
ATOM     10  C   LIG d   1      -4.721  77.625 118.798  0.00  0.00     0.006 C 
ENDBRANCH   8   9
BRANCH   8  11
ATOM     11  C   LIG d   1      -6.601  78.750 117.013  0.00  0.00     0.028 C 
ATOM     12  C   LIG d   1      -7.409  79.903 117.629  0.00  0.00     0.006 C 
ENDBRANCH   8  11
ENDBRANCH   7   8
ENDBRANCH   1   7
BRANCH   6  13
ATOM     13  N   LIG d   1      -2.027  76.529 116.321  0.00  0.00    -0.311 N 
ATOM     14  C   LIG d   1      -2.648  75.438 116.764  0.00  0.00     0.210 C 
ATOM     15  C   LIG d   1      -2.126  74.891 118.096  0.00  0.00     0.109 C 
ATOM     16  O   LIG d   1      -3.562  74.851 116.163  0.00  0.00    -0.276 OA
ATOM     17  H   LIG d   1      -1.275  76.920 116.856  0.00  0.00     0.149 HD
ENDBRANCH   6  13
BRANCH   5  18
ATOM     18  N   LIG d   1      -0.469  76.329 113.701  0.00  0.00     0.381 N 
ATOM     19  H   LIG d   1       0.080  75.937 114.439  0.00  0.00    -0.090 HD
ATOM     20  H   LIG d   1       0.148  76.584 112.950  0.00  0.00    -0.090 HD
ATOM     21  H   LIG d   1      -1.135  75.660 113.381  0.00  0.00    -0.090 HD
ENDBRANCH   5  18
BRANCH   3  22
ATOM     22  C   LIG d   1      -2.355  80.544 112.429  0.00  0.00     0.382 C 
ATOM     23  O   LIG d   1      -3.248  81.422 112.493  0.00  0.00    -0.241 OA
ATOM     24  O   LIG d   1      -1.455  80.645 111.574  0.00  0.00    -0.241 OA
ENDBRANCH   3  22
TORSDOF 7
ENDMDL
MODEL 4
REMARK VINA RESULT:      -5.1      3.910      4.639
REMARK  7 active torsions:
REMARK  status: ('A' for Active; 'I' for Inactive)
REMARK    1  A    between atoms: C_2  and  C_3 
REMARK    2  A    between atoms: C_3  and  O_6 
REMARK    3  A    between atoms: C_3  and  C_4 
REMARK    4  A    between atoms: C_7  and  O_6 
REMARK    5  A    between atoms: C_9  and  C_10 
REMARK    6  A    between atoms: N_15  and  C_14 
REMARK    7  A    between atoms: N_20  and  C_19 
REMARK       I    between atoms: C_22  and  N_20 
ROOT
ATOM      1  C   LIG d   1      -6.012  77.191 118.121  0.00  0.00     0.161 C 
ATOM      2  C   LIG d   1      -6.886  78.290 118.086  0.00  0.00     0.016 C 
ATOM      3  C   LIG d   1      -6.532  79.549 117.548  0.00  0.00     0.038 C 
ATOM      4  C   LIG d   1      -5.323  79.751 116.867  0.00  0.00     0.028 C 
ATOM      5  C   LIG d   1      -4.208  78.815 117.322  0.00  0.00    -0.047 C 
ATOM      6  C   LIG d   1      -4.727  77.359 117.283  0.00  0.00     0.091 C 
ENDROOT
BRANCH   1   7
ATOM      7  O   LIG d   1      -6.714  75.995 117.727  0.00  0.00    -0.368 OA
BRANCH   7   8
ATOM      8  C   LIG d   1      -7.555  76.108 116.553  0.00  0.00     0.119 C 
BRANCH   8   9
ATOM      9  C   LIG d   1      -8.864  75.349 116.846  0.00  0.00     0.028 C 
ATOM     10  C   LIG d   1      -9.872  76.200 117.635  0.00  0.00     0.006 C 
ENDBRANCH   8   9
BRANCH   8  11
ATOM     11  C   LIG d   1      -6.932  75.393 115.350  0.00  0.00     0.028 C 
ATOM     12  C   LIG d   1      -6.579  76.354 114.204  0.00  0.00     0.006 C 
ENDBRANCH   8  11
ENDBRANCH   7   8
ENDBRANCH   1   7
BRANCH   6  13
ATOM     13  N   LIG d   1      -3.726  76.386 117.793  0.00  0.00    -0.311 N 
ATOM     14  C   LIG d   1      -3.185  75.430 117.041  0.00  0.00     0.210 C 
ATOM     15  C   LIG d   1      -2.189  74.521 117.769  0.00  0.00     0.109 C 
ATOM     16  O   LIG d   1      -3.410  75.267 115.832  0.00  0.00    -0.276 OA
ATOM     17  H   LIG d   1      -3.462  76.466 118.755  0.00  0.00     0.149 HD
ENDBRANCH   6  13
BRANCH   5  18
ATOM     18  N   LIG d   1      -3.049  79.039 116.437  0.00  0.00     0.381 N 
ATOM     19  H   LIG d   1      -2.292  78.447 116.714  0.00  0.00    -0.090 HD
ATOM     20  H   LIG d   1      -2.751  79.995 116.528  0.00  0.00    -0.090 HD
ATOM     21  H   LIG d   1      -3.300  78.850 115.492  0.00  0.00    -0.090 HD
ENDBRANCH   5  18
BRANCH   3  22
ATOM     22  C   LIG d   1      -7.378  80.634 117.725  0.00  0.00     0.382 C 
ATOM     23  O   LIG d   1      -8.182  80.652 118.688  0.00  0.00    -0.241 OA
ATOM     24  O   LIG d   1      -7.377  81.574 116.908  0.00  0.00    -0.241 OA
ENDBRANCH   3  22
TORSDOF 7
ENDMDL
MODEL 5
REMARK VINA RESULT:      -5.1      1.942      2.269
REMARK  7 active torsions:
REMARK  status: ('A' for Active; 'I' for Inactive)
REMARK    1  A    between atoms: C_2  and  C_3 
REMARK    2  A    between atoms: C_3  and  O_6 
REMARK    3  A    between atoms: C_3  and  C_4 
REMARK    4  A    between atoms: C_7  and  O_6 
REMARK    5  A    between atoms: C_9  and  C_10 
REMARK    6  A    between atoms: N_15  and  C_14 
REMARK    7  A    between atoms: N_20  and  C_19 
REMARK       I    between atoms: C_22  and  N_20 
ROOT
ATOM      1  C   LIG d   1      -2.610  78.164 116.072  0.00  0.00     0.161 C 
ATOM      2  C   LIG d   1      -2.918  79.035 115.014  0.00  0.00     0.016 C 
ATOM      3  C   LIG d   1      -2.348  78.926 113.724  0.00  0.00     0.038 C 
ATOM      4  C   LIG d   1      -1.540  77.838 113.361  0.00  0.00     0.028 C 
ATOM      5  C   LIG d   1      -0.800  77.213 114.539  0.00  0.00    -0.047 C 
ATOM      6  C   LIG d   1      -1.816  76.906 115.663  0.00  0.00     0.091 C 
ENDROOT
BRANCH   1   7
ATOM      7  O   LIG d   1      -3.817  77.791 116.765  0.00  0.00    -0.368 OA
BRANCH   7   8
ATOM      8  C   LIG d   1      -4.976  77.533 115.934  0.00  0.00     0.119 C 
BRANCH   8   9
ATOM      9  C   LIG d   1      -6.164  78.301 116.545  0.00  0.00     0.028 C 
ATOM     10  C   LIG d   1      -6.425  77.910 118.009  0.00  0.00     0.006 C 
ENDBRANCH   8   9
BRANCH   8  11
ATOM     11  C   LIG d   1      -5.379  76.057 115.983  0.00  0.00     0.028 C 
ATOM     12  C   LIG d   1      -5.043  75.304 114.686  0.00  0.00     0.006 C 
ENDBRANCH   8  11
ENDBRANCH   7   8
ENDBRANCH   1   7
BRANCH   6  13
ATOM     13  N   LIG d   1      -1.163  76.369 116.885  0.00  0.00    -0.311 N 
ATOM     14  C   LIG d   1      -0.915  75.075 117.076  0.00  0.00     0.210 C 
ATOM     15  C   LIG d   1      -0.253  74.733 118.415  0.00  0.00     0.109 C 
ATOM     16  O   LIG d   1      -1.152  74.180 116.251  0.00  0.00    -0.276 OA
ATOM     17  H   LIG d   1      -0.909  77.030 117.594  0.00  0.00     0.149 HD
ENDBRANCH   6  13
BRANCH   5  18
ATOM     18  N   LIG d   1      -0.107  76.010 114.041  0.00  0.00     0.381 N 
ATOM     19  H   LIG d   1      -0.364  75.839 113.090  0.00  0.00    -0.090 HD
ATOM     20  H   LIG d   1      -0.392  75.219 114.592  0.00  0.00    -0.090 HD
ATOM     21  H   LIG d   1       0.880  76.133 114.109  0.00  0.00    -0.090 HD
ENDBRANCH   5  18
BRANCH   3  22
ATOM     22  C   LIG d   1      -2.554  79.934 112.794  0.00  0.00     0.382 C 
ATOM     23  O   LIG d   1      -1.953  79.903 111.693  0.00  0.00    -0.241 OA
ATOM     24  O   LIG d   1      -3.298  80.896 113.060  0.00  0.00    -0.241 OA
ENDBRANCH   3  22
TORSDOF 7
ENDMDL
MODEL 6
REMARK VINA RESULT:      -4.9      2.040      4.673
REMARK  7 active torsions:
REMARK  status: ('A' for Active; 'I' for Inactive)
REMARK    1  A    between atoms: C_2  and  C_3 
REMARK    2  A    between atoms: C_3  and  O_6 
REMARK    3  A    between atoms: C_3  and  C_4 
REMARK    4  A    between atoms: C_7  and  O_6 
REMARK    5  A    between atoms: C_9  and  C_10 
REMARK    6  A    between atoms: N_15  and  C_14 
REMARK    7  A    between atoms: N_20  and  C_19 
REMARK       I    between atoms: C_22  and  N_20 
ROOT
ATOM      1  C   LIG d   1      -2.312  76.109 114.852  0.00  0.00     0.161 C 
ATOM      2  C   LIG d   1      -2.229  75.801 116.221  0.00  0.00     0.016 C 
ATOM      3  C   LIG d   1      -1.571  76.623 117.164  0.00  0.00     0.038 C 
ATOM      4  C   LIG d   1      -1.076  77.891 116.826  0.00  0.00     0.028 C 
ATOM      5  C   LIG d   1      -0.691  78.019 115.356  0.00  0.00    -0.047 C 
ATOM      6  C   LIG d   1      -1.875  77.542 114.484  0.00  0.00     0.091 C 
ENDROOT
BRANCH   1   7
ATOM      7  O   LIG d   1      -3.647  75.853 114.374  0.00  0.00    -0.368 OA
BRANCH   7   8
ATOM      8  C   LIG d   1      -4.679  75.755 115.386  0.00  0.00     0.119 C 
BRANCH   8   9
ATOM      9  C   LIG d   1      -5.539  74.521 115.052  0.00  0.00     0.028 C 
ATOM     10  C   LIG d   1      -6.536  74.180 116.172  0.00  0.00     0.006 C 
ENDBRANCH   8   9
BRANCH   8  11
ATOM     11  C   LIG d   1      -5.638  76.947 115.321  0.00  0.00     0.028 C 
ATOM     12  C   LIG d   1      -5.244  78.082 116.280  0.00  0.00     0.006 C 
ENDBRANCH   8  11
ENDBRANCH   7   8
ENDBRANCH   1   7
BRANCH   6  13
ATOM     13  N   LIG d   1      -1.552  77.555 113.033  0.00  0.00    -0.311 N 
ATOM     14  C   LIG d   1      -2.296  78.179 112.122  0.00  0.00     0.210 C 
ATOM     15  C   LIG d   1      -1.795  78.051 110.680  0.00  0.00     0.109 C 
ATOM     16  O   LIG d   1      -3.305  78.855 112.375  0.00  0.00    -0.276 OA
ATOM     17  H   LIG d   1      -0.732  77.057 112.744  0.00  0.00     0.149 HD
ENDBRANCH   6  13
BRANCH   5  18
ATOM     18  N   LIG d   1      -0.324  79.427 115.112  0.00  0.00     0.381 N 
ATOM     19  H   LIG d   1      -1.151  79.979 115.008  0.00  0.00    -0.090 HD
ATOM     20  H   LIG d   1       0.202  79.482 114.258  0.00  0.00    -0.090 HD
ATOM     21  H   LIG d   1       0.222  79.773 115.870  0.00  0.00    -0.090 HD
ENDBRANCH   5  18
BRANCH   3  22
ATOM     22  C   LIG d   1      -1.366  76.159 118.455  0.00  0.00     0.382 C 
ATOM     23  O   LIG d   1      -0.383  76.567 119.119  0.00  0.00    -0.241 OA
ATOM     24  O   LIG d   1      -2.126  75.303 118.947  0.00  0.00    -0.241 OA
ENDBRANCH   3  22
TORSDOF 7
ENDMDL
MODEL 7
REMARK VINA RESULT:      -4.8      4.069      5.393
REMARK  7 active torsions:
REMARK  status: ('A' for Active; 'I' for Inactive)
REMARK    1  A    between atoms: C_2  and  C_3 
REMARK    2  A    between atoms: C_3  and  O_6 
REMARK    3  A    between atoms: C_3  and  C_4 
REMARK    4  A    between atoms: C_7  and  O_6 
REMARK    5  A    between atoms: C_9  and  C_10 
REMARK    6  A    between atoms: N_15  and  C_14 
REMARK    7  A    between atoms: N_20  and  C_19 
REMARK       I    between atoms: C_22  and  N_20 
ROOT
ATOM      1  C   LIG d   1      -6.534  77.837 116.905  0.00  0.00     0.161 C 
ATOM      2  C   LIG d   1      -6.045  77.189 115.758  0.00  0.00     0.016 C 
ATOM      3  C   LIG d   1      -4.718  77.331 115.290  0.00  0.00     0.038 C 
ATOM      4  C   LIG d   1      -3.741  78.015 116.028  0.00  0.00     0.028 C 
ATOM      5  C   LIG d   1      -4.314  79.103 116.930  0.00  0.00    -0.047 C 
ATOM      6  C   LIG d   1      -5.452  78.499 117.784  0.00  0.00     0.091 C 
ENDROOT
BRANCH   1   7
ATOM      7  O   LIG d   1      -7.322  76.918 117.687  0.00  0.00    -0.368 OA
BRANCH   7   8
ATOM      8  C   LIG d   1      -8.727  76.833 117.346  0.00  0.00     0.119 C 
BRANCH   8   9
ATOM      9  C   LIG d   1      -9.532  77.135 118.625  0.00  0.00     0.028 C 
ATOM     10  C   LIG d   1      -8.660  77.093 119.891  0.00  0.00     0.006 C 
ENDBRANCH   8   9
BRANCH   8  11
ATOM     11  C   LIG d   1      -9.119  75.408 116.947  0.00  0.00     0.028 C 
ATOM     12  C   LIG d   1      -8.000  74.387 117.207  0.00  0.00     0.006 C 
ENDBRANCH   8  11
ENDBRANCH   7   8
ENDBRANCH   1   7
BRANCH   6  13
ATOM     13  N   LIG d   1      -6.124  79.516 118.634  0.00  0.00    -0.311 N 
ATOM     14  C   LIG d   1      -6.708  80.609 118.147  0.00  0.00     0.210 C 
ATOM     15  C   LIG d   1      -7.325  81.537 119.198  0.00  0.00     0.109 C 
ATOM     16  O   LIG d   1      -6.802  80.883 116.941  0.00  0.00    -0.276 OA
ATOM     17  H   LIG d   1      -6.122  79.357 119.623  0.00  0.00     0.149 HD
ENDBRANCH   6  13
BRANCH   5  18
ATOM     18  N   LIG d   1      -3.205  79.640 117.741  0.00  0.00     0.381 N 
ATOM     19  H   LIG d   1      -3.267  80.638 117.780  0.00  0.00    -0.090 HD
ATOM     20  H   LIG d   1      -2.335  79.395 117.304  0.00  0.00    -0.090 HD
ATOM     21  H   LIG d   1      -3.242  79.262 118.662  0.00  0.00    -0.090 HD
ENDBRANCH   5  18
BRANCH   3  22
ATOM     22  C   LIG d   1      -4.368  76.817 114.051  0.00  0.00     0.382 C 
ATOM     23  O   LIG d   1      -3.203  76.394 113.855  0.00  0.00    -0.241 OA
ATOM     24  O   LIG d   1      -5.188  76.812 113.114  0.00  0.00    -0.241 OA
ENDBRANCH   3  22
TORSDOF 7
ENDMDL
MODEL 8
REMARK VINA RESULT:      -4.7      4.295      5.369
REMARK  7 active torsions:
REMARK  status: ('A' for Active; 'I' for Inactive)
REMARK    1  A    between atoms: C_2  and  C_3 
REMARK    2  A    between atoms: C_3  and  O_6 
REMARK    3  A    between atoms: C_3  and  C_4 
REMARK    4  A    between atoms: C_7  and  O_6 
REMARK    5  A    between atoms: C_9  and  C_10 
REMARK    6  A    between atoms: N_15  and  C_14 
REMARK    7  A    between atoms: N_20  and  C_19 
REMARK       I    between atoms: C_22  and  N_20 
ROOT
ATOM      1  C   LIG d   1      -5.376  78.706 116.982  0.00  0.00     0.161 C 
ATOM      2  C   LIG d   1      -4.083  79.231 116.823  0.00  0.00     0.016 C 
ATOM      3  C   LIG d   1      -3.066  78.585 116.084  0.00  0.00     0.038 C 
ATOM      4  C   LIG d   1      -3.320  77.434 115.322  0.00  0.00     0.028 C 
ATOM      5  C   LIG d   1      -4.474  76.595 115.859  0.00  0.00    -0.047 C 
ATOM      6  C   LIG d   1      -5.704  77.508 116.067  0.00  0.00     0.091 C 
ENDROOT
BRANCH   1   7
ATOM      7  O   LIG d   1      -6.353  79.752 116.809  0.00  0.00    -0.368 OA
BRANCH   7   8
ATOM      8  C   LIG d   1      -6.683  80.518 117.993  0.00  0.00     0.119 C 
BRANCH   8   9
ATOM      9  C   LIG d   1      -7.477  79.592 118.936  0.00  0.00     0.028 C 
ATOM     10  C   LIG d   1      -8.868  79.243 118.381  0.00  0.00     0.006 C 
ENDBRANCH   8   9
BRANCH   8  11
ATOM     11  C   LIG d   1      -7.634  81.672 117.663  0.00  0.00     0.028 C 
ATOM     12  C   LIG d   1      -7.579  82.805 118.700  0.00  0.00     0.006 C 
ENDBRANCH   8  11
ENDBRANCH   7   8
ENDBRANCH   1   7
BRANCH   6  13
ATOM     13  N   LIG d   1      -6.853  76.783 116.669  0.00  0.00    -0.311 N 
ATOM     14  C   LIG d   1      -7.803  76.187 115.950  0.00  0.00     0.210 C 
ATOM     15  C   LIG d   1      -8.908  75.513 116.770  0.00  0.00     0.109 C 
ATOM     16  O   LIG d   1      -7.818  76.125 114.712  0.00  0.00    -0.276 OA
ATOM     17  H   LIG d   1      -6.902  76.757 117.669  0.00  0.00     0.149 HD
ENDBRANCH   6  13
BRANCH   5  18
ATOM     18  N   LIG d   1      -4.719  75.505 114.896  0.00  0.00     0.381 N 
ATOM     19  H   LIG d   1      -5.032  74.688 115.381  0.00  0.00    -0.090 HD
ATOM     20  H   LIG d   1      -3.857  75.284 114.429  0.00  0.00    -0.090 HD
ATOM     21  H   LIG d   1      -5.403  75.787 114.229  0.00  0.00    -0.090 HD
ENDBRANCH   5  18
BRANCH   3  22
ATOM     22  C   LIG d   1      -1.767  79.067 116.134  0.00  0.00     0.382 C 
ATOM     23  O   LIG d   1      -0.874  78.541 115.426  0.00  0.00    -0.241 OA
ATOM     24  O   LIG d   1      -1.467  79.993 116.912  0.00  0.00    -0.241 OA
ENDBRANCH   3  22
TORSDOF 7
ENDMDL
MODEL 9
REMARK VINA RESULT:      -4.6      4.567      5.485
REMARK  7 active torsions:
REMARK  status: ('A' for Active; 'I' for Inactive)
REMARK    1  A    between atoms: C_2  and  C_3 
REMARK    2  A    between atoms: C_3  and  O_6 
REMARK    3  A    between atoms: C_3  and  C_4 
REMARK    4  A    between atoms: C_7  and  O_6 
REMARK    5  A    between atoms: C_9  and  C_10 
REMARK    6  A    between atoms: N_15  and  C_14 
REMARK    7  A    between atoms: N_20  and  C_19 
REMARK       I    between atoms: C_22  and  N_20 
ROOT
ATOM      1  C   LIG d   1      -6.260  78.221 117.061  0.00  0.00     0.161 C 
ATOM      2  C   LIG d   1      -7.484  78.840 117.364  0.00  0.00     0.016 C 
ATOM      3  C   LIG d   1      -7.588  80.026 118.126  0.00  0.00     0.038 C 
ATOM      4  C   LIG d   1      -6.458  80.761 118.513  0.00  0.00     0.028 C 
ATOM      5  C   LIG d   1      -5.203  79.908 118.663  0.00  0.00    -0.047 C 
ATOM      6  C   LIG d   1      -5.010  79.068 117.380  0.00  0.00     0.091 C 
ENDROOT
BRANCH   1   7
ATOM      7  O   LIG d   1      -6.248  77.811 115.679  0.00  0.00    -0.368 OA
BRANCH   7   8
ATOM      8  C   LIG d   1      -6.667  76.449 115.415  0.00  0.00     0.119 C 
BRANCH   8   9
ATOM      9  C   LIG d   1      -6.521  75.657 116.729  0.00  0.00     0.028 C 
ATOM     10  C   LIG d   1      -7.768  74.814 117.047  0.00  0.00     0.006 C 
ENDBRANCH   8   9
BRANCH   8  11
ATOM     11  C   LIG d   1      -5.727  75.761 114.420  0.00  0.00     0.028 C 
ATOM     12  C   LIG d   1      -4.367  75.398 115.038  0.00  0.00     0.006 C 
ENDBRANCH   8  11
ENDBRANCH   7   8
ENDBRANCH   1   7
BRANCH   6  13
ATOM     13  N   LIG d   1      -3.852  78.142 117.476  0.00  0.00    -0.311 N 
ATOM     14  C   LIG d   1      -2.641  78.431 117.003  0.00  0.00     0.210 C 
ATOM     15  C   LIG d   1      -1.594  77.328 117.189  0.00  0.00     0.109 C 
ATOM     16  O   LIG d   1      -2.326  79.508 116.475  0.00  0.00    -0.276 OA
ATOM     17  H   LIG d   1      -4.010  77.258 117.918  0.00  0.00     0.149 HD
ENDBRANCH   6  13
BRANCH   5  18
ATOM     18  N   LIG d   1      -4.074  80.818 118.933  0.00  0.00     0.381 N 
ATOM     19  H   LIG d   1      -4.150  81.632 118.356  0.00  0.00    -0.090 HD
ATOM     20  H   LIG d   1      -3.216  80.348 118.706  0.00  0.00    -0.090 HD
ATOM     21  H   LIG d   1      -4.072  81.083 119.894  0.00  0.00    -0.090 HD
ENDBRANCH   5  18
BRANCH   3  22
ATOM     22  C   LIG d   1      -8.835  80.467 118.544  0.00  0.00     0.382 C 
ATOM     23  O   LIG d   1      -9.839  79.726 118.410  0.00  0.00    -0.241 OA
ATOM     24  O   LIG d   1      -8.976  81.612 119.012  0.00  0.00    -0.241 OA
ENDBRANCH   3  22
TORSDOF 7
ENDMDL
