MODEL 1
REMARK VINA RESULT:      -5.0      0.000      0.000
REMARK  7 active torsions:
REMARK  status: ('A' for Active; 'I' for Inactive)
REMARK    1  A    between atoms: C_2  and  C_3 
REMARK    2  A    between atoms: C_3  and  O_6 
REMARK    3  A    between atoms: C_3  and  C_4 
REMARK    4  A    between atoms: C_7  and  O_6 
REMARK    5  A    between atoms: C_9  and  C_10 
REMARK    6  A    between atoms: N_15  and  C_14 
REMARK    7  A    between atoms: N_20  and  C_19 
REMARK       I    between atoms: C_22  and  N_20 
ROOT
ATOM      1  C   LIG d   1      -1.830  78.403 115.319  0.00  0.00     0.161 C 
ATOM      2  C   LIG d   1      -2.398  79.568 114.778  0.00  0.00     0.016 C 
ATOM      3  C   LIG d   1      -2.538  79.792 113.389  0.00  0.00     0.038 C 
ATOM      4  C   LIG d   1      -2.256  78.794 112.444  0.00  0.00     0.028 C 
ATOM      5  C   LIG d   1      -1.208  77.792 112.918  0.00  0.00    -0.047 C 
ATOM      6  C   LIG d   1      -1.618  77.257 114.309  0.00  0.00     0.091 C 
ENDROOT
BRANCH   1   7
ATOM      7  O   LIG d   1      -2.620  77.948 116.435  0.00  0.00    -0.368 OA
BRANCH   7   8
ATOM      8  C   LIG d   1      -4.051  77.881 116.218  0.00  0.00     0.119 C 
BRANCH   8   9
ATOM      9  C   LIG d   1      -4.735  78.536 117.434  0.00  0.00     0.028 C 
ATOM     10  C   LIG d   1      -3.784  79.456 118.217  0.00  0.00     0.006 C 
ENDBRANCH   8   9
BRANCH   8  11
ATOM     11  C   LIG d   1      -4.545  76.431 116.206  0.00  0.00     0.028 C 
ATOM     12  C   LIG d   1      -5.086  75.997 114.835  0.00  0.00     0.006 C 
ENDBRANCH   8  11
ENDBRANCH   7   8
ENDBRANCH   1   7
BRANCH   6  13
ATOM     13  N   LIG d   1      -0.604  76.334 114.882  0.00  0.00    -0.311 N 
ATOM     14  C   LIG d   1      -0.862  75.065 115.195  0.00  0.00     0.210 C 
ATOM     15  C   LIG d   1       0.319  74.294 115.792  0.00  0.00     0.109 C 
ATOM     16  O   LIG d   1      -1.947  74.496 115.005  0.00  0.00    -0.276 OA
ATOM     17  H   LIG d   1       0.313  76.704 115.040  0.00  0.00     0.149 HD
ENDBRANCH   6  13
BRANCH   5  18
ATOM     18  N   LIG d   1      -1.112  76.732 111.896  0.00  0.00     0.381 N 
ATOM     19  H   LIG d   1      -1.361  75.851 112.298  0.00  0.00    -0.090 HD
ATOM     20  H   LIG d   1      -0.161  76.675 111.575  0.00  0.00    -0.090 HD
ATOM     21  H   LIG d   1      -1.716  76.940 111.131  0.00  0.00    -0.090 HD
ENDBRANCH   5  18
BRANCH   3  22
ATOM     22  C   LIG d   1      -2.929  81.041 112.930  0.00  0.00     0.382 C 
ATOM     23  O   LIG d   1      -2.081  81.959 112.812  0.00  0.00    -0.241 OA
ATOM     24  O   LIG d   1      -4.125  81.275 112.675  0.00  0.00    -0.241 OA
ENDBRANCH   3  22
TORSDOF 7
ENDMDL
MODEL 2
REMARK VINA RESULT:      -4.7      1.282      2.160
REMARK  7 active torsions:
REMARK  status: ('A' for Active; 'I' for Inactive)
REMARK    1  A    between atoms: C_2  and  C_3 
REMARK    2  A    between atoms: C_3  and  O_6 
REMARK    3  A    between atoms: C_3  and  C_4 
REMARK    4  A    between atoms: C_7  and  O_6 
REMARK    5  A    between atoms: C_9  and  C_10 
REMARK    6  A    between atoms: N_15  and  C_14 
REMARK    7  A    between atoms: N_20  and  C_19 
REMARK       I    between atoms: C_22  and  N_20 
ROOT
ATOM      1  C   LIG d   1      -2.004  78.270 115.259  0.00  0.00     0.161 C 
ATOM      2  C   LIG d   1      -2.489  79.471 114.716  0.00  0.00     0.016 C 
ATOM      3  C   LIG d   1      -2.451  79.772 113.335  0.00  0.00     0.038 C 
ATOM      4  C   LIG d   1      -2.060  78.822 112.380  0.00  0.00     0.028 C 
ATOM      5  C   LIG d   1      -1.090  77.779 112.924  0.00  0.00    -0.047 C 
ATOM      6  C   LIG d   1      -1.677  77.176 114.221  0.00  0.00     0.091 C 
ENDROOT
BRANCH   1   7
ATOM      7  O   LIG d   1      -2.933  77.767 116.240  0.00  0.00    -0.368 OA
BRANCH   7   8
ATOM      8  C   LIG d   1      -2.495  77.822 117.620  0.00  0.00     0.119 C 
BRANCH   8   9
ATOM      9  C   LIG d   1      -2.898  76.493 118.287  0.00  0.00     0.028 C 
ATOM     10  C   LIG d   1      -1.893  76.048 119.363  0.00  0.00     0.006 C 
ENDBRANCH   8   9
BRANCH   8  11
ATOM     11  C   LIG d   1      -3.241  78.909 118.399  0.00  0.00     0.028 C 
ATOM     12  C   LIG d   1      -2.295  79.864 119.145  0.00  0.00     0.006 C 
ENDBRANCH   8  11
ENDBRANCH   7   8
ENDBRANCH   1   7
BRANCH   6  13
ATOM     13  N   LIG d   1      -0.751  76.208 114.865  0.00  0.00    -0.311 N 
ATOM     14  C   LIG d   1      -1.137  75.017 115.320  0.00  0.00     0.210 C 
ATOM     15  C   LIG d   1      -0.028  74.181 115.967  0.00  0.00     0.109 C 
ATOM     16  O   LIG d   1      -2.286  74.560 115.220  0.00  0.00    -0.276 OA
ATOM     17  H   LIG d   1       0.206  76.484 114.958  0.00  0.00     0.149 HD
ENDBRANCH   6  13
BRANCH   5  18
ATOM     18  N   LIG d   1      -0.875  76.775 111.865  0.00  0.00     0.381 N 
ATOM     19  H   LIG d   1      -1.374  75.937 112.087  0.00  0.00    -0.090 HD
ATOM     20  H   LIG d   1       0.105  76.556 111.819  0.00  0.00    -0.090 HD
ATOM     21  H   LIG d   1      -1.184  77.133 110.989  0.00  0.00    -0.090 HD
ENDBRANCH   5  18
BRANCH   3  22
ATOM     22  C   LIG d   1      -2.769  81.050 112.902  0.00  0.00     0.382 C 
ATOM     23  O   LIG d   1      -3.971  81.399 112.807  0.00  0.00    -0.241 OA
ATOM     24  O   LIG d   1      -1.871  81.843 112.561  0.00  0.00    -0.241 OA
ENDBRANCH   3  22
TORSDOF 7
ENDMDL
MODEL 3
REMARK VINA RESULT:      -4.5      3.847      5.121
REMARK  7 active torsions:
REMARK  status: ('A' for Active; 'I' for Inactive)
REMARK    1  A    between atoms: C_2  and  C_3 
REMARK    2  A    between atoms: C_3  and  O_6 
REMARK    3  A    between atoms: C_3  and  C_4 
REMARK    4  A    between atoms: C_7  and  O_6 
REMARK    5  A    between atoms: C_9  and  C_10 
REMARK    6  A    between atoms: N_15  and  C_14 
REMARK    7  A    between atoms: N_20  and  C_19 
REMARK       I    between atoms: C_22  and  N_20 
ROOT
ATOM      1  C   LIG d   1      -6.023  76.889 117.974  0.00  0.00     0.161 C 
ATOM      2  C   LIG d   1      -6.796  78.053 118.124  0.00  0.00     0.016 C 
ATOM      3  C   LIG d   1      -6.290  79.355 117.906  0.00  0.00     0.038 C 
ATOM      4  C   LIG d   1      -5.011  79.575 117.375  0.00  0.00     0.028 C 
ATOM      5  C   LIG d   1      -4.024  78.455 117.687  0.00  0.00    -0.047 C 
ATOM      6  C   LIG d   1      -4.658  77.102 117.288  0.00  0.00     0.091 C 
ENDROOT
BRANCH   1   7
ATOM      7  O   LIG d   1      -6.784  75.884 117.275  0.00  0.00    -0.368 OA
BRANCH   7   8
ATOM      8  C   LIG d   1      -7.588  76.352 116.164  0.00  0.00     0.119 C 
BRANCH   8   9
ATOM      9  C   LIG d   1      -8.996  75.747 116.325  0.00  0.00     0.028 C 
ATOM     10  C   LIG d   1      -9.030  74.605 117.355  0.00  0.00     0.006 C 
ENDBRANCH   8   9
BRANCH   8  11
ATOM     11  C   LIG d   1      -7.064  75.811 114.831  0.00  0.00     0.028 C 
ATOM     12  C   LIG d   1      -6.117  74.613 115.004  0.00  0.00     0.006 C 
ENDBRANCH   8  11
ENDBRANCH   7   8
ENDBRANCH   1   7
BRANCH   6  13
ATOM     13  N   LIG d   1      -3.793  75.946 117.638  0.00  0.00    -0.311 N 
ATOM     14  C   LIG d   1      -2.953  75.372 116.778  0.00  0.00     0.210 C 
ATOM     15  C   LIG d   1      -2.169  74.181 117.337  0.00  0.00     0.109 C 
ATOM     16  O   LIG d   1      -2.758  75.757 115.615  0.00  0.00    -0.276 OA
ATOM     17  H   LIG d   1      -3.864  75.589 118.570  0.00  0.00     0.149 HD
ENDBRANCH   6  13
BRANCH   5  18
ATOM     18  N   LIG d   1      -2.775  78.745 116.959  0.00  0.00     0.381 N 
ATOM     19  H   LIG d   1      -2.433  77.911 116.526  0.00  0.00    -0.090 HD
ATOM     20  H   LIG d   1      -2.084  79.066 117.614  0.00  0.00    -0.090 HD
ATOM     21  H   LIG d   1      -2.937  79.444 116.268  0.00  0.00    -0.090 HD
ENDBRANCH   5  18
BRANCH   3  22
ATOM     22  C   LIG d   1      -7.054  80.457 118.260  0.00  0.00     0.382 C 
ATOM     23  O   LIG d   1      -7.327  81.332 117.403  0.00  0.00    -0.241 OA
ATOM     24  O   LIG d   1      -7.437  80.609 119.436  0.00  0.00    -0.241 OA
ENDBRANCH   3  22
TORSDOF 7
ENDMDL
MODEL 4
REMARK VINA RESULT:      -4.5      1.513      2.266
REMARK  7 active torsions:
REMARK  status: ('A' for Active; 'I' for Inactive)
REMARK    1  A    between atoms: C_2  and  C_3 
REMARK    2  A    between atoms: C_3  and  O_6 
REMARK    3  A    between atoms: C_3  and  C_4 
REMARK    4  A    between atoms: C_7  and  O_6 
REMARK    5  A    between atoms: C_9  and  C_10 
REMARK    6  A    between atoms: N_15  and  C_14 
REMARK    7  A    between atoms: N_20  and  C_19 
REMARK       I    between atoms: C_22  and  N_20 
ROOT
ATOM      1  C   LIG d   1      -3.299  78.442 115.839  0.00  0.00     0.161 C 
ATOM      2  C   LIG d   1      -3.339  79.605 115.052  0.00  0.00     0.016 C 
ATOM      3  C   LIG d   1      -2.661  79.732 113.818  0.00  0.00     0.038 C 
ATOM      4  C   LIG d   1      -2.015  78.644 113.210  0.00  0.00     0.028 C 
ATOM      5  C   LIG d   1      -1.524  77.599 114.206  0.00  0.00    -0.047 C 
ATOM      6  C   LIG d   1      -2.691  77.208 115.140  0.00  0.00     0.091 C 
ENDROOT
BRANCH   1   7
ATOM      7  O   LIG d   1      -4.619  78.140 116.332  0.00  0.00    -0.368 OA
BRANCH   7   8
ATOM      8  C   LIG d   1      -4.873  78.471 117.719  0.00  0.00     0.119 C 
BRANCH   8   9
ATOM      9  C   LIG d   1      -5.634  79.810 117.744  0.00  0.00     0.028 C 
ATOM     10  C   LIG d   1      -7.137  79.627 118.016  0.00  0.00     0.006 C 
ENDBRANCH   8   9
BRANCH   8  11
ATOM     11  C   LIG d   1      -3.569  78.731 118.478  0.00  0.00     0.028 C 
ATOM     12  C   LIG d   1      -3.527  80.122 119.131  0.00  0.00     0.006 C 
ENDBRANCH   8  11
ENDBRANCH   7   8
ENDBRANCH   1   7
BRANCH   6  13
ATOM     13  N   LIG d   1      -2.274  76.251 116.199  0.00  0.00    -0.311 N 
ATOM     14  C   LIG d   1      -2.700  74.991 116.257  0.00  0.00     0.210 C 
ATOM     15  C   LIG d   1      -2.163  74.181 117.441  0.00  0.00     0.109 C 
ATOM     16  O   LIG d   1      -3.446  74.457 115.423  0.00  0.00    -0.276 OA
ATOM     17  H   LIG d   1      -1.645  76.592 116.899  0.00  0.00     0.149 HD
ENDBRANCH   6  13
BRANCH   5  18
ATOM     18  N   LIG d   1      -0.996  76.460 113.432  0.00  0.00     0.381 N 
ATOM     19  H   LIG d   1      -1.019  75.631 113.991  0.00  0.00    -0.090 HD
ATOM     20  H   LIG d   1      -0.039  76.648 113.187  0.00  0.00    -0.090 HD
ATOM     21  H   LIG d   1      -1.538  76.328 112.606  0.00  0.00    -0.090 HD
ENDBRANCH   5  18
BRANCH   3  22
ATOM     22  C   LIG d   1      -2.591  80.970 113.197  0.00  0.00     0.382 C 
ATOM     23  O   LIG d   1      -1.497  81.382 112.742  0.00  0.00    -0.241 OA
ATOM     24  O   LIG d   1      -3.598  81.699 113.125  0.00  0.00    -0.241 OA
ENDBRANCH   3  22
TORSDOF 7
ENDMDL
MODEL 5
REMARK VINA RESULT:      -4.4      4.168      5.827
REMARK  7 active torsions:
REMARK  status: ('A' for Active; 'I' for Inactive)
REMARK    1  A    between atoms: C_2  and  C_3 
REMARK    2  A    between atoms: C_3  and  O_6 
REMARK    3  A    between atoms: C_3  and  C_4 
REMARK    4  A    between atoms: C_7  and  O_6 
REMARK    5  A    between atoms: C_9  and  C_10 
REMARK    6  A    between atoms: N_15  and  C_14 
REMARK    7  A    between atoms: N_20  and  C_19 
REMARK       I    between atoms: C_22  and  N_20 
ROOT
ATOM      1  C   LIG d   1      -6.657  77.834 117.595  0.00  0.00     0.161 C 
ATOM      2  C   LIG d   1      -7.546  78.918 117.685  0.00  0.00     0.016 C 
ATOM      3  C   LIG d   1      -7.146  80.222 118.058  0.00  0.00     0.038 C 
ATOM      4  C   LIG d   1      -5.796  80.566 118.220  0.00  0.00     0.028 C 
ATOM      5  C   LIG d   1      -4.917  79.390 118.632  0.00  0.00    -0.047 C 
ATOM      6  C   LIG d   1      -5.163  78.214 117.660  0.00  0.00     0.091 C 
ENDROOT
BRANCH   1   7
ATOM      7  O   LIG d   1      -6.930  77.077 116.399  0.00  0.00    -0.368 OA
BRANCH   7   8
ATOM      8  C   LIG d   1      -7.510  75.764 116.593  0.00  0.00     0.119 C 
BRANCH   8   9
ATOM      9  C   LIG d   1      -6.773  74.789 115.654  0.00  0.00     0.028 C 
ATOM     10  C   LIG d   1      -6.026  75.515 114.523  0.00  0.00     0.006 C 
ENDBRANCH   8   9
BRANCH   8  11
ATOM     11  C   LIG d   1      -8.974  75.729 116.146  0.00  0.00     0.028 C 
ATOM     12  C   LIG d   1      -9.959  75.831 117.322  0.00  0.00     0.006 C 
ENDBRANCH   8  11
ENDBRANCH   7   8
ENDBRANCH   1   7
BRANCH   6  13
ATOM     13  N   LIG d   1      -4.405  76.995 118.042  0.00  0.00    -0.311 N 
ATOM     14  C   LIG d   1      -3.506  76.412 117.250  0.00  0.00     0.210 C 
ATOM     15  C   LIG d   1      -2.853  75.153 117.829  0.00  0.00     0.109 C 
ATOM     16  O   LIG d   1      -3.164  76.837 116.136  0.00  0.00    -0.276 OA
ATOM     17  H   LIG d   1      -4.597  76.601 118.942  0.00  0.00     0.149 HD
ENDBRANCH   6  13
BRANCH   5  18
ATOM     18  N   LIG d   1      -3.518  79.858 118.631  0.00  0.00     0.381 N 
ATOM     19  H   LIG d   1      -3.378  80.509 119.378  0.00  0.00    -0.090 HD
ATOM     20  H   LIG d   1      -3.334  80.329 117.763  0.00  0.00    -0.090 HD
ATOM     21  H   LIG d   1      -2.899  79.084 118.735  0.00  0.00    -0.090 HD
ENDBRANCH   5  18
BRANCH   3  22
ATOM     22  C   LIG d   1      -8.107  81.189 118.311  0.00  0.00     0.382 C 
ATOM     23  O   LIG d   1      -8.878  81.563 117.394  0.00  0.00    -0.241 OA
ATOM     24  O   LIG d   1      -8.184  81.725 119.433  0.00  0.00    -0.241 OA
ENDBRANCH   3  22
TORSDOF 7
ENDMDL
MODEL 6
REMARK VINA RESULT:      -4.4      2.418      5.454
REMARK  7 active torsions:
REMARK  status: ('A' for Active; 'I' for Inactive)
REMARK    1  A    between atoms: C_2  and  C_3 
REMARK    2  A    between atoms: C_3  and  O_6 
REMARK    3  A    between atoms: C_3  and  C_4 
REMARK    4  A    between atoms: C_7  and  O_6 
REMARK    5  A    between atoms: C_9  and  C_10 
REMARK    6  A    between atoms: N_15  and  C_14 
REMARK    7  A    between atoms: N_20  and  C_19 
REMARK       I    between atoms: C_22  and  N_20 
ROOT
ATOM      1  C   LIG d   1      -2.163  75.113 115.409  0.00  0.00     0.161 C 
ATOM      2  C   LIG d   1      -1.944  74.579 116.690  0.00  0.00     0.016 C 
ATOM      3  C   LIG d   1      -1.149  75.213 117.672  0.00  0.00     0.038 C 
ATOM      4  C   LIG d   1      -0.637  76.506 117.490  0.00  0.00     0.028 C 
ATOM      5  C   LIG d   1      -0.411  76.868 116.026  0.00  0.00    -0.047 C 
ATOM      6  C   LIG d   1      -1.704  76.575 115.231  0.00  0.00     0.091 C 
ENDROOT
BRANCH   1   7
ATOM      7  O   LIG d   1      -3.553  74.977 115.054  0.00  0.00    -0.368 OA
BRANCH   7   8
ATOM      8  C   LIG d   1      -4.497  75.002 116.153  0.00  0.00     0.119 C 
BRANCH   8   9
ATOM      9  C   LIG d   1      -5.729  74.181 115.723  0.00  0.00     0.028 C 
ATOM     10  C   LIG d   1      -6.971  75.060 115.501  0.00  0.00     0.006 C 
ENDBRANCH   8   9
BRANCH   8  11
ATOM     11  C   LIG d   1      -5.021  76.418 116.405  0.00  0.00     0.028 C 
ATOM     12  C   LIG d   1      -4.604  76.973 117.776  0.00  0.00     0.006 C 
ENDBRANCH   8  11
ENDBRANCH   7   8
ENDBRANCH   1   7
BRANCH   6  13
ATOM     13  N   LIG d   1      -1.543  76.822 113.775  0.00  0.00    -0.311 N 
ATOM     14  C   LIG d   1      -2.444  77.466 113.036  0.00  0.00     0.210 C 
ATOM     15  C   LIG d   1      -2.091  77.595 111.551  0.00  0.00     0.109 C 
ATOM     16  O   LIG d   1      -3.488  77.972 113.475  0.00  0.00    -0.276 OA
ATOM     17  H   LIG d   1      -0.710  76.473 113.342  0.00  0.00     0.149 HD
ENDBRANCH   6  13
BRANCH   5  18
ATOM     18  N   LIG d   1      -0.009  78.286 115.974  0.00  0.00     0.381 N 
ATOM     19  H   LIG d   1       0.934  78.383 116.295  0.00  0.00    -0.090 HD
ATOM     20  H   LIG d   1      -0.606  78.816 116.585  0.00  0.00    -0.090 HD
ATOM     21  H   LIG d   1      -0.087  78.629 115.042  0.00  0.00    -0.090 HD
ENDBRANCH   5  18
BRANCH   3  22
ATOM     22  C   LIG d   1      -0.824  74.534 118.837  0.00  0.00     0.382 C 
ATOM     23  O   LIG d   1       0.364  74.193 119.053  0.00  0.00    -0.241 OA
ATOM     24  O   LIG d   1      -1.711  74.220 119.653  0.00  0.00    -0.241 OA
ENDBRANCH   3  22
TORSDOF 7
ENDMDL
MODEL 7
REMARK VINA RESULT:      -4.3      2.602      5.525
REMARK  7 active torsions:
REMARK  status: ('A' for Active; 'I' for Inactive)
REMARK    1  A    between atoms: C_2  and  C_3 
REMARK    2  A    between atoms: C_3  and  O_6 
REMARK    3  A    between atoms: C_3  and  C_4 
REMARK    4  A    between atoms: C_7  and  O_6 
REMARK    5  A    between atoms: C_9  and  C_10 
REMARK    6  A    between atoms: N_15  and  C_14 
REMARK    7  A    between atoms: N_20  and  C_19 
REMARK       I    between atoms: C_22  and  N_20 
ROOT
ATOM      1  C   LIG d   1      -2.940  77.504 115.748  0.00  0.00     0.161 C 
ATOM      2  C   LIG d   1      -1.768  76.823 115.380  0.00  0.00     0.016 C 
ATOM      3  C   LIG d   1      -1.635  75.417 115.436  0.00  0.00     0.038 C 
ATOM      4  C   LIG d   1      -2.724  74.580 115.722  0.00  0.00     0.028 C 
ATOM      5  C   LIG d   1      -3.787  75.245 116.589  0.00  0.00    -0.047 C 
ATOM      6  C   LIG d   1      -4.174  76.601 115.957  0.00  0.00     0.091 C 
ENDROOT
BRANCH   1   7
ATOM      7  O   LIG d   1      -3.231  78.534 114.782  0.00  0.00    -0.368 OA
BRANCH   7   8
ATOM      8  C   LIG d   1      -2.420  78.529 113.582  0.00  0.00     0.119 C 
BRANCH   8   9
ATOM      9  C   LIG d   1      -1.971  79.980 113.320  0.00  0.00     0.028 C 
ATOM     10  C   LIG d   1      -3.161  80.940 113.147  0.00  0.00     0.006 C 
ENDBRANCH   8   9
BRANCH   8  11
ATOM     11  C   LIG d   1      -3.244  78.132 112.354  0.00  0.00     0.028 C 
ATOM     12  C   LIG d   1      -2.373  77.671 111.175  0.00  0.00     0.006 C 
ENDBRANCH   8  11
ENDBRANCH   7   8
ENDBRANCH   1   7
BRANCH   6  13
ATOM     13  N   LIG d   1      -5.149  77.356 116.787  0.00  0.00    -0.311 N 
ATOM     14  C   LIG d   1      -6.467  77.294 116.608  0.00  0.00     0.210 C 
ATOM     15  C   LIG d   1      -7.291  78.168 117.559  0.00  0.00     0.109 C 
ATOM     16  O   LIG d   1      -7.034  76.575 115.772  0.00  0.00    -0.276 OA
ATOM     17  H   LIG d   1      -4.776  77.941 117.509  0.00  0.00     0.149 HD
ENDBRANCH   6  13
BRANCH   5  18
ATOM     18  N   LIG d   1      -4.924  74.311 116.695  0.00  0.00     0.381 N 
ATOM     19  H   LIG d   1      -4.857  73.790 117.547  0.00  0.00    -0.090 HD
ATOM     20  H   LIG d   1      -4.886  73.665 115.926  0.00  0.00    -0.090 HD
ATOM     21  H   LIG d   1      -5.783  74.815 116.673  0.00  0.00    -0.090 HD
ENDBRANCH   5  18
BRANCH   3  22
ATOM     22  C   LIG d   1      -0.391  74.836 115.242  0.00  0.00     0.382 C 
ATOM     23  O   LIG d   1       0.415  74.746 116.200  0.00  0.00    -0.241 OA
ATOM     24  O   LIG d   1      -0.046  74.442 114.112  0.00  0.00    -0.241 OA
ENDBRANCH   3  22
TORSDOF 7
ENDMDL
MODEL 8
REMARK VINA RESULT:      -4.3      2.519      3.609
REMARK  7 active torsions:
REMARK  status: ('A' for Active; 'I' for Inactive)
REMARK    1  A    between atoms: C_2  and  C_3 
REMARK    2  A    between atoms: C_3  and  O_6 
REMARK    3  A    between atoms: C_3  and  C_4 
REMARK    4  A    between atoms: C_7  and  O_6 
REMARK    5  A    between atoms: C_9  and  C_10 
REMARK    6  A    between atoms: N_15  and  C_14 
REMARK    7  A    between atoms: N_20  and  C_19 
REMARK       I    between atoms: C_22  and  N_20 
ROOT
ATOM      1  C   LIG d   1      -3.020  76.960 114.693  0.00  0.00     0.161 C 
ATOM      2  C   LIG d   1      -2.931  77.000 113.291  0.00  0.00     0.016 C 
ATOM      3  C   LIG d   1      -2.083  77.888 112.590  0.00  0.00     0.038 C 
ATOM      4  C   LIG d   1      -1.148  78.697 113.252  0.00  0.00     0.028 C 
ATOM      5  C   LIG d   1      -1.557  79.055 114.677  0.00  0.00    -0.047 C 
ATOM      6  C   LIG d   1      -1.926  77.758 115.433  0.00  0.00     0.091 C 
ENDROOT
BRANCH   1   7
ATOM      7  O   LIG d   1      -3.032  75.591 115.143  0.00  0.00    -0.368 OA
BRANCH   7   8
ATOM      8  C   LIG d   1      -4.172  75.193 115.943  0.00  0.00     0.119 C 
BRANCH   8   9
ATOM      9  C   LIG d   1      -3.670  74.180 116.991  0.00  0.00     0.028 C 
ATOM     10  C   LIG d   1      -2.140  74.202 117.143  0.00  0.00     0.006 C 
ENDBRANCH   8   9
BRANCH   8  11
ATOM     11  C   LIG d   1      -5.203  74.432 115.105  0.00  0.00     0.028 C 
ATOM     12  C   LIG d   1      -6.348  75.329 114.611  0.00  0.00     0.006 C 
ENDBRANCH   8  11
ENDBRANCH   7   8
ENDBRANCH   1   7
BRANCH   6  13
ATOM     13  N   LIG d   1      -2.419  78.025 116.809  0.00  0.00    -0.311 N 
ATOM     14  C   LIG d   1      -1.651  77.931 117.894  0.00  0.00     0.210 C 
ATOM     15  C   LIG d   1      -2.362  78.230 119.217  0.00  0.00     0.109 C 
ATOM     16  O   LIG d   1      -0.441  77.661 117.882  0.00  0.00    -0.276 OA
ATOM     17  H   LIG d   1      -3.381  78.282 116.908  0.00  0.00     0.149 HD
ENDBRANCH   6  13
BRANCH   5  18
ATOM     18  N   LIG d   1      -0.432  79.784 115.294  0.00  0.00     0.381 N 
ATOM     19  H   LIG d   1       0.368  79.742 114.694  0.00  0.00    -0.090 HD
ATOM     20  H   LIG d   1      -0.197  79.341 116.165  0.00  0.00    -0.090 HD
ATOM     21  H   LIG d   1      -0.688  80.733 115.453  0.00  0.00    -0.090 HD
ENDBRANCH   5  18
BRANCH   3  22
ATOM     22  C   LIG d   1      -2.194  78.000 111.212  0.00  0.00     0.382 C 
ATOM     23  O   LIG d   1      -3.058  77.332 110.596  0.00  0.00    -0.241 OA
ATOM     24  O   LIG d   1      -1.411  78.728 110.573  0.00  0.00    -0.241 OA
ENDBRANCH   3  22
TORSDOF 7
ENDMDL
MODEL 9
REMARK VINA RESULT:      -4.2      2.406      3.365
REMARK  7 active torsions:
REMARK  status: ('A' for Active; 'I' for Inactive)
REMARK    1  A    between atoms: C_2  and  C_3 
REMARK    2  A    between atoms: C_3  and  O_6 
REMARK    3  A    between atoms: C_3  and  C_4 
REMARK    4  A    between atoms: C_7  and  O_6 
REMARK    5  A    between atoms: C_9  and  C_10 
REMARK    6  A    between atoms: N_15  and  C_14 
REMARK    7  A    between atoms: N_20  and  C_19 
REMARK       I    between atoms: C_22  and  N_20 
ROOT
ATOM      1  C   LIG d   1      -3.434  77.742 115.285  0.00  0.00     0.161 C 
ATOM      2  C   LIG d   1      -3.391  77.926 113.893  0.00  0.00     0.016 C 
ATOM      3  C   LIG d   1      -2.332  77.464 113.079  0.00  0.00     0.038 C 
ATOM      4  C   LIG d   1      -1.309  76.648 113.585  0.00  0.00     0.028 C 
ATOM      5  C   LIG d   1      -1.045  76.860 115.072  0.00  0.00    -0.047 C 
ATOM      6  C   LIG d   1      -2.383  76.757 115.839  0.00  0.00     0.091 C 
ENDROOT
BRANCH   1   7
ATOM      7  O   LIG d   1      -4.759  77.337 115.684  0.00  0.00    -0.368 OA
BRANCH   7   8
ATOM      8  C   LIG d   1      -5.013  75.911 115.696  0.00  0.00     0.119 C 
BRANCH   8   9
ATOM      9  C   LIG d   1      -5.888  75.586 114.470  0.00  0.00     0.028 C 
ATOM     10  C   LIG d   1      -7.365  75.952 114.689  0.00  0.00     0.006 C 
ENDBRANCH   8   9
BRANCH   8  11
ATOM     11  C   LIG d   1      -5.851  75.505 116.912  0.00  0.00     0.028 C 
ATOM     12  C   LIG d   1      -5.965  76.625 117.958  0.00  0.00     0.006 C 
ENDBRANCH   8  11
ENDBRANCH   7   8
ENDBRANCH   1   7
BRANCH   6  13
ATOM     13  N   LIG d   1      -2.227  77.036 117.290  0.00  0.00    -0.311 N 
ATOM     14  C   LIG d   1      -2.331  76.100 118.232  0.00  0.00     0.210 C 
ATOM     15  C   LIG d   1      -2.155  76.605 119.668  0.00  0.00     0.109 C 
ATOM     16  O   LIG d   1      -2.520  74.894 118.013  0.00  0.00    -0.276 OA
ATOM     17  H   LIG d   1      -2.041  77.984 117.555  0.00  0.00     0.149 HD
ENDBRANCH   6  13
BRANCH   5  18
ATOM     18  N   LIG d   1      -0.055  75.853 115.497  0.00  0.00     0.381 N 
ATOM     19  H   LIG d   1       0.687  75.804 114.828  0.00  0.00    -0.090 HD
ATOM     20  H   LIG d   1      -0.503  74.954 115.537  0.00  0.00    -0.090 HD
ATOM     21  H   LIG d   1       0.310  76.090 116.393  0.00  0.00    -0.090 HD
ENDBRANCH   5  18
BRANCH   3  22
ATOM     22  C   LIG d   1      -2.267  77.852 111.749  0.00  0.00     0.382 C 
ATOM     23  O   LIG d   1      -1.548  78.823 111.413  0.00  0.00    -0.241 OA
ATOM     24  O   LIG d   1      -2.954  77.271 110.887  0.00  0.00    -0.241 OA
ENDBRANCH   3  22
TORSDOF 7
ENDMDL
