MODEL 1
REMARK VINA RESULT:      -5.4      0.000      0.000
REMARK  7 active torsions:
REMARK  status: ('A' for Active; 'I' for Inactive)
REMARK    1  A    between atoms: C_2  and  C_3 
REMARK    2  A    between atoms: C_3  and  O_6 
REMARK    3  A    between atoms: C_3  and  C_4 
REMARK    4  A    between atoms: C_7  and  O_6 
REMARK    5  A    between atoms: C_9  and  C_10 
REMARK    6  A    between atoms: N_15  and  C_14 
REMARK    7  A    between atoms: N_20  and  C_19 
REMARK       I    between atoms: C_22  and  N_20 
ROOT
ATOM      1  C   LIG d   1      -6.644  76.519 117.765  0.00  0.00     0.161 C 
ATOM      2  C   LIG d   1      -7.805  77.310 117.786  0.00  0.00     0.016 C 
ATOM      3  C   LIG d   1      -7.789  78.719 117.668  0.00  0.00     0.038 C 
ATOM      4  C   LIG d   1      -6.615  79.425 117.369  0.00  0.00     0.028 C 
ATOM      5  C   LIG d   1      -5.347  78.719 117.840  0.00  0.00    -0.047 C 
ATOM      6  C   LIG d   1      -5.364  77.261 117.327  0.00  0.00     0.091 C 
ENDROOT
BRANCH   1   7
ATOM      7  O   LIG d   1      -6.858  75.359 116.937  0.00  0.00    -0.368 OA
BRANCH   7   8
ATOM      8  C   LIG d   1      -7.879  75.483 115.916  0.00  0.00     0.119 C 
BRANCH   8   9
ATOM      9  C   LIG d   1      -8.716  74.189 115.938  0.00  0.00     0.028 C 
ATOM     10  C   LIG d   1      -9.982  74.324 116.800  0.00  0.00     0.006 C 
ENDBRANCH   8   9
BRANCH   8  11
ATOM     11  C   LIG d   1      -7.262  75.545 114.516  0.00  0.00     0.028 C 
ATOM     12  C   LIG d   1      -5.947  74.757 114.409  0.00  0.00     0.006 C 
ENDBRANCH   8  11
ENDBRANCH   7   8
ENDBRANCH   1   7
BRANCH   6  13
ATOM     13  N   LIG d   1      -4.200  76.476 117.814  0.00  0.00    -0.311 N 
ATOM     14  C   LIG d   1      -3.226  76.040 117.018  0.00  0.00     0.210 C 
ATOM     15  C   LIG d   1      -2.130  75.231 117.721  0.00  0.00     0.109 C 
ATOM     16  O   LIG d   1      -3.147  76.273 115.803  0.00  0.00    -0.276 OA
ATOM     17  H   LIG d   1      -4.168  76.268 118.793  0.00  0.00     0.149 HD
ENDBRANCH   6  13
BRANCH   5  18
ATOM     18  N   LIG d   1      -4.195  79.494 117.342  0.00  0.00     0.381 N 
ATOM     19  H   LIG d   1      -3.401  79.335 117.930  0.00  0.00    -0.090 HD
ATOM     20  H   LIG d   1      -4.422  80.472 117.376  0.00  0.00    -0.090 HD
ATOM     21  H   LIG d   1      -3.983  79.227 116.406  0.00  0.00    -0.090 HD
ENDBRANCH   5  18
BRANCH   3  22
ATOM     22  C   LIG d   1      -8.952  79.440 117.891  0.00  0.00     0.382 C 
ATOM     23  O   LIG d   1      -8.891  80.671 118.127  0.00  0.00    -0.241 OA
ATOM     24  O   LIG d   1     -10.058  78.867 117.904  0.00  0.00    -0.241 OA
ENDBRANCH   3  22
TORSDOF 7
ENDMDL
MODEL 2
REMARK VINA RESULT:      -5.3      1.731      2.271
REMARK  7 active torsions:
REMARK  status: ('A' for Active; 'I' for Inactive)
REMARK    1  A    between atoms: C_2  and  C_3 
REMARK    2  A    between atoms: C_3  and  O_6 
REMARK    3  A    between atoms: C_3  and  C_4 
REMARK    4  A    between atoms: C_7  and  O_6 
REMARK    5  A    between atoms: C_9  and  C_10 
REMARK    6  A    between atoms: N_15  and  C_14 
REMARK    7  A    between atoms: N_20  and  C_19 
REMARK       I    between atoms: C_22  and  N_20 
ROOT
ATOM      1  C   LIG d   1      -6.093  77.668 116.663  0.00  0.00     0.161 C 
ATOM      2  C   LIG d   1      -7.390  77.874 117.163  0.00  0.00     0.016 C 
ATOM      3  C   LIG d   1      -7.792  79.062 117.815  0.00  0.00     0.038 C 
ATOM      4  C   LIG d   1      -6.962  80.191 117.878  0.00  0.00     0.028 C 
ATOM      5  C   LIG d   1      -5.475  79.853 117.833  0.00  0.00    -0.047 C 
ATOM      6  C   LIG d   1      -5.207  78.930 116.623  0.00  0.00     0.091 C 
ENDROOT
BRANCH   1   7
ATOM      7  O   LIG d   1      -6.164  77.064 115.356  0.00  0.00    -0.368 OA
BRANCH   7   8
ATOM      8  C   LIG d   1      -5.428  75.828 115.183  0.00  0.00     0.119 C 
BRANCH   8   9
ATOM      9  C   LIG d   1      -6.380  74.810 114.527  0.00  0.00     0.028 C 
ATOM     10  C   LIG d   1      -7.640  74.556 115.371  0.00  0.00     0.006 C 
ENDBRANCH   8   9
BRANCH   8  11
ATOM     11  C   LIG d   1      -5.045  75.215 116.533  0.00  0.00     0.028 C 
ATOM     12  C   LIG d   1      -3.591  74.717 116.571  0.00  0.00     0.006 C 
ENDBRANCH   8  11
ENDBRANCH   7   8
ENDBRANCH   1   7
BRANCH   6  13
ATOM     13  N   LIG d   1      -3.791  78.484 116.554  0.00  0.00    -0.311 N 
ATOM     14  C   LIG d   1      -3.014  78.671 115.488  0.00  0.00     0.210 C 
ATOM     15  C   LIG d   1      -1.593  78.116 115.618  0.00  0.00     0.109 C 
ATOM     16  O   LIG d   1      -3.358  79.273 114.460  0.00  0.00    -0.276 OA
ATOM     17  H   LIG d   1      -3.421  78.014 117.357  0.00  0.00     0.149 HD
ENDBRANCH   6  13
BRANCH   5  18
ATOM     18  N   LIG d   1      -4.731  81.125 117.767  0.00  0.00     0.381 N 
ATOM     19  H   LIG d   1      -4.366  81.256 116.844  0.00  0.00    -0.090 HD
ATOM     20  H   LIG d   1      -3.959  81.084 118.408  0.00  0.00    -0.090 HD
ATOM     21  H   LIG d   1      -5.331  81.884 118.006  0.00  0.00    -0.090 HD
ENDBRANCH   5  18
BRANCH   3  22
ATOM     22  C   LIG d   1      -9.024  79.114 118.449  0.00  0.00     0.382 C 
ATOM     23  O   LIG d   1      -9.095  79.461 119.653  0.00  0.00    -0.241 OA
ATOM     24  O   LIG d   1     -10.060  78.777 117.846  0.00  0.00    -0.241 OA
ENDBRANCH   3  22
TORSDOF 7
ENDMDL
MODEL 3
REMARK VINA RESULT:      -5.2      1.357      2.148
REMARK  7 active torsions:
REMARK  status: ('A' for Active; 'I' for Inactive)
REMARK    1  A    between atoms: C_2  and  C_3 
REMARK    2  A    between atoms: C_3  and  O_6 
REMARK    3  A    between atoms: C_3  and  C_4 
REMARK    4  A    between atoms: C_7  and  O_6 
REMARK    5  A    between atoms: C_9  and  C_10 
REMARK    6  A    between atoms: N_15  and  C_14 
REMARK    7  A    between atoms: N_20  and  C_19 
REMARK       I    between atoms: C_22  and  N_20 
ROOT
ATOM      1  C   LIG d   1      -6.137  77.298 117.012  0.00  0.00     0.161 C 
ATOM      2  C   LIG d   1      -6.959  78.435 117.101  0.00  0.00     0.016 C 
ATOM      3  C   LIG d   1      -6.483  79.710 117.482  0.00  0.00     0.038 C 
ATOM      4  C   LIG d   1      -5.116  79.971 117.654  0.00  0.00     0.028 C 
ATOM      5  C   LIG d   1      -4.312  78.742 118.067  0.00  0.00    -0.047 C 
ATOM      6  C   LIG d   1      -4.623  77.587 117.088  0.00  0.00     0.091 C 
ENDROOT
BRANCH   1   7
ATOM      7  O   LIG d   1      -6.447  76.564 115.811  0.00  0.00    -0.368 OA
BRANCH   7   8
ATOM      8  C   LIG d   1      -7.076  75.273 115.998  0.00  0.00     0.119 C 
BRANCH   8   9
ATOM      9  C   LIG d   1      -6.383  74.278 115.046  0.00  0.00     0.028 C 
ATOM     10  C   LIG d   1      -5.501  74.983 114.002  0.00  0.00     0.006 C 
ENDBRANCH   8   9
BRANCH   8  11
ATOM     11  C   LIG d   1      -8.543  75.298 115.558  0.00  0.00     0.028 C 
ATOM     12  C   LIG d   1      -9.511  74.911 116.688  0.00  0.00     0.006 C 
ENDBRANCH   8  11
ENDBRANCH   7   8
ENDBRANCH   1   7
BRANCH   6  13
ATOM     13  N   LIG d   1      -3.943  76.322 117.470  0.00  0.00    -0.311 N 
ATOM     14  C   LIG d   1      -3.018  75.731 116.715  0.00  0.00     0.210 C 
ATOM     15  C   LIG d   1      -2.458  74.424 117.285  0.00  0.00     0.109 C 
ATOM     16  O   LIG d   1      -2.585  76.182 115.644  0.00  0.00    -0.276 OA
ATOM     17  H   LIG d   1      -4.211  75.904 118.339  0.00  0.00     0.149 HD
ENDBRANCH   6  13
BRANCH   5  18
ATOM     18  N   LIG d   1      -2.887  79.124 118.077  0.00  0.00     0.381 N 
ATOM     19  H   LIG d   1      -2.336  78.366 118.427  0.00  0.00    -0.090 HD
ATOM     20  H   LIG d   1      -2.766  79.912 118.689  0.00  0.00    -0.090 HD
ATOM     21  H   LIG d   1      -2.592  79.361 117.155  0.00  0.00    -0.090 HD
ENDBRANCH   5  18
BRANCH   3  22
ATOM     22  C   LIG d   1      -7.385  80.733 117.733  0.00  0.00     0.382 C 
ATOM     23  O   LIG d   1      -7.692  81.023 118.914  0.00  0.00    -0.241 OA
ATOM     24  O   LIG d   1      -7.930  81.340 116.791  0.00  0.00    -0.241 OA
ENDBRANCH   3  22
TORSDOF 7
ENDMDL
MODEL 4
REMARK VINA RESULT:      -5.0      2.018      4.491
REMARK  7 active torsions:
REMARK  status: ('A' for Active; 'I' for Inactive)
REMARK    1  A    between atoms: C_2  and  C_3 
REMARK    2  A    between atoms: C_3  and  O_6 
REMARK    3  A    between atoms: C_3  and  C_4 
REMARK    4  A    between atoms: C_7  and  O_6 
REMARK    5  A    between atoms: C_9  and  C_10 
REMARK    6  A    between atoms: N_15  and  C_14 
REMARK    7  A    between atoms: N_20  and  C_19 
REMARK       I    between atoms: C_22  and  N_20 
ROOT
ATOM      1  C   LIG d   1      -6.426  77.697 116.622  0.00  0.00     0.161 C 
ATOM      2  C   LIG d   1      -5.248  77.693 115.856  0.00  0.00     0.016 C 
ATOM      3  C   LIG d   1      -4.149  78.544 116.115  0.00  0.00     0.038 C 
ATOM      4  C   LIG d   1      -4.093  79.357 117.257  0.00  0.00     0.028 C 
ATOM      5  C   LIG d   1      -5.467  79.764 117.778  0.00  0.00    -0.047 C 
ATOM      6  C   LIG d   1      -6.339  78.498 117.938  0.00  0.00     0.091 C 
ENDROOT
BRANCH   1   7
ATOM      7  O   LIG d   1      -6.841  76.342 116.886  0.00  0.00    -0.368 OA
BRANCH   7   8
ATOM      8  C   LIG d   1      -7.904  75.826 116.047  0.00  0.00     0.119 C 
BRANCH   8   9
ATOM      9  C   LIG d   1      -9.191  75.797 116.895  0.00  0.00     0.028 C 
ATOM     10  C   LIG d   1     -10.060  74.563 116.600  0.00  0.00     0.006 C 
ENDBRANCH   8   9
BRANCH   8  11
ATOM     11  C   LIG d   1      -7.645  74.369 115.653  0.00  0.00     0.028 C 
ATOM     12  C   LIG d   1      -6.314  74.181 114.908  0.00  0.00     0.006 C 
ENDBRANCH   8  11
ENDBRANCH   7   8
ENDBRANCH   1   7
BRANCH   6  13
ATOM     13  N   LIG d   1      -7.727  78.815 118.364  0.00  0.00    -0.311 N 
ATOM     14  C   LIG d   1      -8.454  79.792 117.825  0.00  0.00     0.210 C 
ATOM     15  C   LIG d   1      -9.854  79.963 118.424  0.00  0.00     0.109 C 
ATOM     16  O   LIG d   1      -8.085  80.512 116.885  0.00  0.00    -0.276 OA
ATOM     17  H   LIG d   1      -8.117  78.259 119.100  0.00  0.00     0.149 HD
ENDBRANCH   6  13
BRANCH   5  18
ATOM     18  N   LIG d   1      -5.266  80.491 119.046  0.00  0.00     0.381 N 
ATOM     19  H   LIG d   1      -6.088  81.014 119.271  0.00  0.00    -0.090 HD
ATOM     20  H   LIG d   1      -4.503  81.136 118.933  0.00  0.00    -0.090 HD
ATOM     21  H   LIG d   1      -5.061  79.848 119.779  0.00  0.00    -0.090 HD
ENDBRANCH   5  18
BRANCH   3  22
ATOM     22  C   LIG d   1      -3.107  78.617 115.203  0.00  0.00     0.382 C 
ATOM     23  O   LIG d   1      -2.023  78.033 115.442  0.00  0.00    -0.241 OA
ATOM     24  O   LIG d   1      -3.222  79.296 114.165  0.00  0.00    -0.241 OA
ENDBRANCH   3  22
TORSDOF 7
ENDMDL
MODEL 5
REMARK VINA RESULT:      -4.9      6.285      8.496
REMARK  7 active torsions:
REMARK  status: ('A' for Active; 'I' for Inactive)
REMARK    1  A    between atoms: C_2  and  C_3 
REMARK    2  A    between atoms: C_3  and  O_6 
REMARK    3  A    between atoms: C_3  and  C_4 
REMARK    4  A    between atoms: C_7  and  O_6 
REMARK    5  A    between atoms: C_9  and  C_10 
REMARK    6  A    between atoms: N_15  and  C_14 
REMARK    7  A    between atoms: N_20  and  C_19 
REMARK       I    between atoms: C_22  and  N_20 
ROOT
ATOM      1  C   LIG d   1      -0.073  80.440 114.676  0.00  0.00     0.161 C 
ATOM      2  C   LIG d   1      -0.044  81.768 114.219  0.00  0.00     0.016 C 
ATOM      3  C   LIG d   1      -0.486  82.159 112.934  0.00  0.00     0.038 C 
ATOM      4  C   LIG d   1      -1.131  81.263 112.068  0.00  0.00     0.028 C 
ATOM      5  C   LIG d   1      -0.725  79.810 112.287  0.00  0.00    -0.047 C 
ATOM      6  C   LIG d   1      -0.876  79.468 113.787  0.00  0.00     0.091 C 
ENDROOT
BRANCH   1   7
ATOM      7  O   LIG d   1      -0.563  80.401 116.031  0.00  0.00    -0.368 OA
BRANCH   7   8
ATOM      8  C   LIG d   1      -1.059  81.652 116.567  0.00  0.00     0.119 C 
BRANCH   8   9
ATOM      9  C   LIG d   1      -0.633  81.725 118.046  0.00  0.00     0.028 C 
ATOM     10  C   LIG d   1      -1.833  81.677 119.006  0.00  0.00     0.006 C 
ENDBRANCH   8   9
BRANCH   8  11
ATOM     11  C   LIG d   1      -2.590  81.682 116.584  0.00  0.00     0.028 C 
ATOM     12  C   LIG d   1      -3.178  82.714 115.609  0.00  0.00     0.006 C 
ENDBRANCH   8  11
ENDBRANCH   7   8
ENDBRANCH   1   7
BRANCH   6  13
ATOM     13  N   LIG d   1      -0.420  78.089 114.103  0.00  0.00    -0.311 N 
ATOM     14  C   LIG d   1      -1.230  77.032 114.109  0.00  0.00     0.210 C 
ATOM     15  C   LIG d   1      -0.560  75.706 114.481  0.00  0.00     0.109 C 
ATOM     16  O   LIG d   1      -2.433  77.062 113.810  0.00  0.00    -0.276 OA
ATOM     17  H   LIG d   1       0.549  77.969 114.326  0.00  0.00     0.149 HD
ENDBRANCH   6  13
BRANCH   5  18
ATOM     18  N   LIG d   1      -1.572  78.974 111.416  0.00  0.00     0.381 N 
ATOM     19  H   LIG d   1      -1.797  78.118 111.882  0.00  0.00    -0.090 HD
ATOM     20  H   LIG d   1      -1.060  78.753 110.580  0.00  0.00    -0.090 HD
ATOM     21  H   LIG d   1      -2.408  79.463 111.182  0.00  0.00    -0.090 HD
ENDBRANCH   5  18
BRANCH   3  22
ATOM     22  C   LIG d   1      -0.247  83.450 112.488  0.00  0.00     0.382 C 
ATOM     23  O   LIG d   1       0.419  84.244 113.195  0.00  0.00    -0.241 OA
ATOM     24  O   LIG d   1      -0.725  83.844 111.408  0.00  0.00    -0.241 OA
ENDBRANCH   3  22
TORSDOF 7
ENDMDL
MODEL 6
REMARK VINA RESULT:      -4.9      4.406      5.731
REMARK  7 active torsions:
REMARK  status: ('A' for Active; 'I' for Inactive)
REMARK    1  A    between atoms: C_2  and  C_3 
REMARK    2  A    between atoms: C_3  and  O_6 
REMARK    3  A    between atoms: C_3  and  C_4 
REMARK    4  A    between atoms: C_7  and  O_6 
REMARK    5  A    between atoms: C_9  and  C_10 
REMARK    6  A    between atoms: N_15  and  C_14 
REMARK    7  A    between atoms: N_20  and  C_19 
REMARK       I    between atoms: C_22  and  N_20 
ROOT
ATOM      1  C   LIG d   1      -2.755  77.919 114.695  0.00  0.00     0.161 C 
ATOM      2  C   LIG d   1      -2.936  78.855 113.664  0.00  0.00     0.016 C 
ATOM      3  C   LIG d   1      -2.145  80.018 113.521  0.00  0.00     0.038 C 
ATOM      4  C   LIG d   1      -1.013  80.248 114.317  0.00  0.00     0.028 C 
ATOM      5  C   LIG d   1      -1.095  79.587 115.690  0.00  0.00    -0.047 C 
ATOM      6  C   LIG d   1      -1.455  78.095 115.508  0.00  0.00     0.091 C 
ENDROOT
BRANCH   1   7
ATOM      7  O   LIG d   1      -2.834  76.582 114.161  0.00  0.00    -0.368 OA
BRANCH   7   8
ATOM      8  C   LIG d   1      -3.748  75.681 114.833  0.00  0.00     0.119 C 
BRANCH   8   9
ATOM      9  C   LIG d   1      -2.932  74.464 115.310  0.00  0.00     0.028 C 
ATOM     10  C   LIG d   1      -1.613  74.303 114.537  0.00  0.00     0.006 C 
ENDBRANCH   8   9
BRANCH   8  11
ATOM     11  C   LIG d   1      -4.789  75.116 113.861  0.00  0.00     0.028 C 
ATOM     12  C   LIG d   1      -6.008  74.515 114.577  0.00  0.00     0.006 C 
ENDBRANCH   8  11
ENDBRANCH   7   8
ENDBRANCH   1   7
BRANCH   6  13
ATOM     13  N   LIG d   1      -1.637  77.394 116.805  0.00  0.00    -0.311 N 
ATOM     14  C   LIG d   1      -0.698  76.633 117.366  0.00  0.00     0.210 C 
ATOM     15  C   LIG d   1      -1.099  75.986 118.695  0.00  0.00     0.109 C 
ATOM     16  O   LIG d   1       0.440  76.459 116.904  0.00  0.00    -0.276 OA
ATOM     17  H   LIG d   1      -2.520  77.506 117.264  0.00  0.00     0.149 HD
ENDBRANCH   6  13
BRANCH   5  18
ATOM     18  N   LIG d   1       0.203  79.791 116.360  0.00  0.00     0.381 N 
ATOM     19  H   LIG d   1       0.089  80.410 117.138  0.00  0.00    -0.090 HD
ATOM     20  H   LIG d   1       0.842  80.216 115.710  0.00  0.00    -0.090 HD
ATOM     21  H   LIG d   1       0.567  78.918 116.672  0.00  0.00    -0.090 HD
ENDBRANCH   5  18
BRANCH   3  22
ATOM     22  C   LIG d   1      -2.508  80.986 112.597  0.00  0.00     0.382 C 
ATOM     23  O   LIG d   1      -1.635  81.515 111.867  0.00  0.00    -0.241 OA
ATOM     24  O   LIG d   1      -3.690  81.370 112.515  0.00  0.00    -0.241 OA
ENDBRANCH   3  22
TORSDOF 7
ENDMDL
MODEL 7
REMARK VINA RESULT:      -4.9      2.782      6.390
REMARK  7 active torsions:
REMARK  status: ('A' for Active; 'I' for Inactive)
REMARK    1  A    between atoms: C_2  and  C_3 
REMARK    2  A    between atoms: C_3  and  O_6 
REMARK    3  A    between atoms: C_3  and  C_4 
REMARK    4  A    between atoms: C_7  and  O_6 
REMARK    5  A    between atoms: C_9  and  C_10 
REMARK    6  A    between atoms: N_15  and  C_14 
REMARK    7  A    between atoms: N_20  and  C_19 
REMARK       I    between atoms: C_22  and  N_20 
ROOT
ATOM      1  C   LIG d   1      -4.611  78.231 116.311  0.00  0.00     0.161 C 
ATOM      2  C   LIG d   1      -4.045  77.338 115.386  0.00  0.00     0.016 C 
ATOM      3  C   LIG d   1      -4.729  76.211 114.875  0.00  0.00     0.038 C 
ATOM      4  C   LIG d   1      -6.087  75.983 115.142  0.00  0.00     0.028 C 
ATOM      5  C   LIG d   1      -6.551  76.576 116.468  0.00  0.00    -0.047 C 
ATOM      6  C   LIG d   1      -6.129  78.062 116.529  0.00  0.00     0.091 C 
ENDROOT
BRANCH   1   7
ATOM      7  O   LIG d   1      -4.308  79.588 115.930  0.00  0.00    -0.368 OA
BRANCH   7   8
ATOM      8  C   LIG d   1      -3.243  80.235 116.670  0.00  0.00     0.119 C 
BRANCH   8   9
ATOM      9  C   LIG d   1      -3.870  81.404 117.454  0.00  0.00     0.028 C 
ATOM     10  C   LIG d   1      -3.585  81.317 118.963  0.00  0.00     0.006 C 
ENDBRANCH   8   9
BRANCH   8  11
ATOM     11  C   LIG d   1      -2.222  80.880 115.728  0.00  0.00     0.028 C 
ATOM     12  C   LIG d   1      -2.449  82.389 115.546  0.00  0.00     0.006 C 
ENDBRANCH   8  11
ENDBRANCH   7   8
ENDBRANCH   1   7
BRANCH   6  13
ATOM     13  N   LIG d   1      -6.470  78.695 117.829  0.00  0.00    -0.311 N 
ATOM     14  C   LIG d   1      -7.118  79.854 117.933  0.00  0.00     0.210 C 
ATOM     15  C   LIG d   1      -7.351  80.339 119.367  0.00  0.00     0.109 C 
ATOM     16  O   LIG d   1      -7.550  80.511 116.973  0.00  0.00    -0.276 OA
ATOM     17  H   LIG d   1      -6.185  78.214 118.660  0.00  0.00     0.149 HD
ENDBRANCH   6  13
BRANCH   5  18
ATOM     18  N   LIG d   1      -8.011  76.386 116.554  0.00  0.00     0.381 N 
ATOM     19  H   LIG d   1      -8.397  76.305 115.635  0.00  0.00    -0.090 HD
ATOM     20  H   LIG d   1      -8.418  77.191 116.998  0.00  0.00    -0.090 HD
ATOM     21  H   LIG d   1      -8.218  75.567 117.083  0.00  0.00    -0.090 HD
ENDBRANCH   5  18
BRANCH   3  22
ATOM     22  C   LIG d   1      -4.040  75.275 114.118  0.00  0.00     0.382 C 
ATOM     23  O   LIG d   1      -2.794  75.176 114.226  0.00  0.00    -0.241 OA
ATOM     24  O   LIG d   1      -4.644  74.558 113.298  0.00  0.00    -0.241 OA
ENDBRANCH   3  22
TORSDOF 7
ENDMDL
MODEL 8
REMARK VINA RESULT:      -4.9      1.640      2.068
REMARK  7 active torsions:
REMARK  status: ('A' for Active; 'I' for Inactive)
REMARK    1  A    between atoms: C_2  and  C_3 
REMARK    2  A    between atoms: C_3  and  O_6 
REMARK    3  A    between atoms: C_3  and  C_4 
REMARK    4  A    between atoms: C_7  and  O_6 
REMARK    5  A    between atoms: C_9  and  C_10 
REMARK    6  A    between atoms: N_15  and  C_14 
REMARK    7  A    between atoms: N_20  and  C_19 
REMARK       I    between atoms: C_22  and  N_20 
ROOT
ATOM      1  C   LIG d   1      -4.880  76.139 117.457  0.00  0.00     0.161 C 
ATOM      2  C   LIG d   1      -5.843  77.145 117.642  0.00  0.00     0.016 C 
ATOM      3  C   LIG d   1      -5.622  78.503 117.318  0.00  0.00     0.038 C 
ATOM      4  C   LIG d   1      -4.467  78.926 116.642  0.00  0.00     0.028 C 
ATOM      5  C   LIG d   1      -3.258  78.031 116.891  0.00  0.00    -0.047 C 
ATOM      6  C   LIG d   1      -3.656  76.562 116.618  0.00  0.00     0.091 C 
ENDROOT
BRANCH   1   7
ATOM      7  O   LIG d   1      -5.498  74.969 116.886  0.00  0.00    -0.368 OA
BRANCH   7   8
ATOM      8  C   LIG d   1      -6.854  75.136 116.403  0.00  0.00     0.119 C 
BRANCH   8   9
ATOM      9  C   LIG d   1      -7.754  74.181 117.211  0.00  0.00     0.028 C 
ATOM     10  C   LIG d   1      -9.250  74.423 116.949  0.00  0.00     0.006 C 
ENDBRANCH   8   9
BRANCH   8  11
ATOM     11  C   LIG d   1      -6.986  74.684 114.946  0.00  0.00     0.028 C 
ATOM     12  C   LIG d   1      -6.750  75.825 113.944  0.00  0.00     0.006 C 
ENDBRANCH   8  11
ENDBRANCH   7   8
ENDBRANCH   1   7
BRANCH   6  13
ATOM     13  N   LIG d   1      -2.554  75.611 116.920  0.00  0.00    -0.311 N 
ATOM     14  C   LIG d   1      -1.693  75.173 116.003  0.00  0.00     0.210 C 
ATOM     15  C   LIG d   1      -0.646  74.182 116.521  0.00  0.00     0.109 C 
ATOM     16  O   LIG d   1      -1.677  75.536 114.817  0.00  0.00    -0.276 OA
ATOM     17  H   LIG d   1      -2.474  75.290 117.864  0.00  0.00     0.149 HD
ENDBRANCH   6  13
BRANCH   5  18
ATOM     18  N   LIG d   1      -2.166  78.505 116.021  0.00  0.00     0.381 N 
ATOM     19  H   LIG d   1      -2.004  77.843 115.289  0.00  0.00    -0.090 HD
ATOM     20  H   LIG d   1      -1.326  78.583 116.566  0.00  0.00    -0.090 HD
ATOM     21  H   LIG d   1      -2.401  79.391 115.631  0.00  0.00    -0.090 HD
ENDBRANCH   5  18
BRANCH   3  22
ATOM     22  C   LIG d   1      -6.545  79.462 117.707  0.00  0.00     0.382 C 
ATOM     23  O   LIG d   1      -7.208  79.303 118.760  0.00  0.00    -0.241 OA
ATOM     24  O   LIG d   1      -6.756  80.462 116.994  0.00  0.00    -0.241 OA
ENDBRANCH   3  22
TORSDOF 7
ENDMDL
MODEL 9
REMARK VINA RESULT:      -4.8      2.585      4.838
REMARK  7 active torsions:
REMARK  status: ('A' for Active; 'I' for Inactive)
REMARK    1  A    between atoms: C_2  and  C_3 
REMARK    2  A    between atoms: C_3  and  O_6 
REMARK    3  A    between atoms: C_3  and  C_4 
REMARK    4  A    between atoms: C_7  and  O_6 
REMARK    5  A    between atoms: C_9  and  C_10 
REMARK    6  A    between atoms: N_15  and  C_14 
REMARK    7  A    between atoms: N_20  and  C_19 
REMARK       I    between atoms: C_22  and  N_20 
ROOT
ATOM      1  C   LIG d   1      -5.713  77.727 116.624  0.00  0.00     0.161 C 
ATOM      2  C   LIG d   1      -6.571  76.701 116.194  0.00  0.00     0.016 C 
ATOM      3  C   LIG d   1      -7.911  76.574 116.627  0.00  0.00     0.038 C 
ATOM      4  C   LIG d   1      -8.534  77.559 117.408  0.00  0.00     0.028 C 
ATOM      5  C   LIG d   1      -7.561  78.350 118.276  0.00  0.00    -0.047 C 
ATOM      6  C   LIG d   1      -6.408  78.873 117.389  0.00  0.00     0.091 C 
ENDROOT
BRANCH   1   7
ATOM      7  O   LIG d   1      -4.975  78.249 115.501  0.00  0.00    -0.368 OA
BRANCH   7   8
ATOM      8  C   LIG d   1      -3.544  78.023 115.519  0.00  0.00     0.119 C 
BRANCH   8   9
ATOM      9  C   LIG d   1      -2.857  79.381 115.277  0.00  0.00     0.028 C 
ATOM     10  C   LIG d   1      -2.524  79.614 113.794  0.00  0.00     0.006 C 
ENDBRANCH   8   9
BRANCH   8  11
ATOM     11  C   LIG d   1      -3.106  77.134 114.351  0.00  0.00     0.028 C 
ATOM     12  C   LIG d   1      -2.924  75.663 114.758  0.00  0.00     0.006 C 
ENDBRANCH   8  11
ENDBRANCH   7   8
ENDBRANCH   1   7
BRANCH   6  13
ATOM     13  N   LIG d   1      -5.367  79.586 118.174  0.00  0.00    -0.311 N 
ATOM     14  C   LIG d   1      -5.044  80.863 117.973  0.00  0.00     0.210 C 
ATOM     15  C   LIG d   1      -3.930  81.397 118.879  0.00  0.00     0.109 C 
ATOM     16  O   LIG d   1      -5.595  81.612 117.153  0.00  0.00    -0.276 OA
ATOM     17  H   LIG d   1      -4.891  79.062 118.881  0.00  0.00     0.149 HD
ENDBRANCH   6  13
BRANCH   5  18
ATOM     18  N   LIG d   1      -8.323  79.430 118.930  0.00  0.00     0.381 N 
ATOM     19  H   LIG d   1      -8.704  79.099 119.794  0.00  0.00    -0.090 HD
ATOM     20  H   LIG d   1      -9.084  79.699 118.332  0.00  0.00    -0.090 HD
ATOM     21  H   LIG d   1      -7.730  80.212 119.098  0.00  0.00    -0.090 HD
ENDBRANCH   5  18
BRANCH   3  22
ATOM     22  C   LIG d   1      -8.630  75.432 116.311  0.00  0.00     0.382 C 
ATOM     23  O   LIG d   1      -8.116  74.549 115.582  0.00  0.00    -0.241 OA
ATOM     24  O   LIG d   1      -9.802  75.293 116.708  0.00  0.00    -0.241 OA
ENDBRANCH   3  22
TORSDOF 7
ENDMDL
