MODEL 1
REMARK VINA RESULT:      -5.3      0.000      0.000
REMARK  7 active torsions:
REMARK  status: ('A' for Active; 'I' for Inactive)
REMARK    1  A    between atoms: C_2  and  C_3 
REMARK    2  A    between atoms: C_3  and  O_6 
REMARK    3  A    between atoms: C_3  and  C_4 
REMARK    4  A    between atoms: C_7  and  O_6 
REMARK    5  A    between atoms: C_9  and  C_10 
REMARK    6  A    between atoms: N_15  and  C_14 
REMARK    7  A    between atoms: N_20  and  C_19 
REMARK       I    between atoms: C_22  and  N_20 
ROOT
ATOM      1  C   LIG d   1      -5.472  75.499 116.088  0.00  0.00     0.161 C 
ATOM      2  C   LIG d   1      -6.049  75.639 114.815  0.00  0.00     0.016 C 
ATOM      3  C   LIG d   1      -5.296  75.868 113.640  0.00  0.00     0.038 C 
ATOM      4  C   LIG d   1      -3.894  75.821 113.637  0.00  0.00     0.028 C 
ATOM      5  C   LIG d   1      -3.273  76.185 114.981  0.00  0.00    -0.047 C 
ATOM      6  C   LIG d   1      -3.938  75.335 116.088  0.00  0.00     0.091 C 
ENDROOT
BRANCH   1   7
ATOM      7  O   LIG d   1      -6.093  74.404 116.789  0.00  0.00    -0.368 OA
BRANCH   7   8
ATOM      8  C   LIG d   1      -7.021  74.765 117.841  0.00  0.00     0.119 C 
BRANCH   8   9
ATOM      9  C   LIG d   1      -8.445  74.645 117.265  0.00  0.00     0.028 C 
ATOM     10  C   LIG d   1      -9.317  75.867 117.597  0.00  0.00     0.006 C 
ENDBRANCH   8   9
BRANCH   8  11
ATOM     11  C   LIG d   1      -6.867  76.235 118.240  0.00  0.00     0.028 C 
ATOM     12  C   LIG d   1      -6.255  76.413 119.638  0.00  0.00     0.006 C 
ENDBRANCH   8  11
ENDBRANCH   7   8
ENDBRANCH   1   7
BRANCH   6  13
ATOM     13  N   LIG d   1      -3.447  75.688 117.446  0.00  0.00    -0.311 N 
ATOM     14  C   LIG d   1      -2.421  75.079 118.036  0.00  0.00     0.210 C 
ATOM     15  C   LIG d   1      -2.092  75.583 119.445  0.00  0.00     0.109 C 
ATOM     16  O   LIG d   1      -1.731  74.189 117.515  0.00  0.00    -0.276 OA
ATOM     17  H   LIG d   1      -3.930  76.421 117.929  0.00  0.00     0.149 HD
ENDBRANCH   6  13
BRANCH   5  18
ATOM     18  N   LIG d   1      -1.819  75.962 114.875  0.00  0.00     0.381 N 
ATOM     19  H   LIG d   1      -1.630  74.982 114.813  0.00  0.00    -0.090 HD
ATOM     20  H   LIG d   1      -1.374  76.317 115.704  0.00  0.00    -0.090 HD
ATOM     21  H   LIG d   1      -1.460  76.429 114.071  0.00  0.00    -0.090 HD
ENDBRANCH   5  18
BRANCH   3  22
ATOM     22  C   LIG d   1      -5.948  76.186 112.458  0.00  0.00     0.382 C 
ATOM     23  O   LIG d   1      -5.509  75.754 111.365  0.00  0.00    -0.241 OA
ATOM     24  O   LIG d   1      -6.942  76.937 112.467  0.00  0.00    -0.241 OA
ENDBRANCH   3  22
TORSDOF 7
ENDMDL
MODEL 2
REMARK VINA RESULT:      -5.1      3.391      4.686
REMARK  7 active torsions:
REMARK  status: ('A' for Active; 'I' for Inactive)
REMARK    1  A    between atoms: C_2  and  C_3 
REMARK    2  A    between atoms: C_3  and  O_6 
REMARK    3  A    between atoms: C_3  and  C_4 
REMARK    4  A    between atoms: C_7  and  O_6 
REMARK    5  A    between atoms: C_9  and  C_10 
REMARK    6  A    between atoms: N_15  and  C_14 
REMARK    7  A    between atoms: N_20  and  C_19 
REMARK       I    between atoms: C_22  and  N_20 
ROOT
ATOM      1  C   LIG d   1      -2.939  77.766 114.166  0.00  0.00     0.161 C 
ATOM      2  C   LIG d   1      -3.225  78.913 113.407  0.00  0.00     0.016 C 
ATOM      3  C   LIG d   1      -2.420  80.075 113.421  0.00  0.00     0.038 C 
ATOM      4  C   LIG d   1      -1.183  80.113 114.082  0.00  0.00     0.028 C 
ATOM      5  C   LIG d   1      -1.101  79.158 115.268  0.00  0.00    -0.047 C 
ATOM      6  C   LIG d   1      -1.536  77.747 114.807  0.00  0.00     0.091 C 
ENDROOT
BRANCH   1   7
ATOM      7  O   LIG d   1      -3.138  76.586 113.362  0.00  0.00    -0.368 OA
BRANCH   7   8
ATOM      8  C   LIG d   1      -4.002  75.569 113.925  0.00  0.00     0.119 C 
BRANCH   8   9
ATOM      9  C   LIG d   1      -5.029  75.183 112.842  0.00  0.00     0.028 C 
ATOM     10  C   LIG d   1      -5.628  76.412 112.137  0.00  0.00     0.006 C 
ENDBRANCH   8   9
BRANCH   8  11
ATOM     11  C   LIG d   1      -4.829  76.122 115.089  0.00  0.00     0.028 C 
ATOM     12  C   LIG d   1      -5.896  75.134 115.585  0.00  0.00     0.006 C 
ENDBRANCH   8  11
ENDBRANCH   7   8
ENDBRANCH   1   7
BRANCH   6  13
ATOM     13  N   LIG d   1      -1.565  76.770 115.926  0.00  0.00    -0.311 N 
ATOM     14  C   LIG d   1      -1.040  75.548 115.847  0.00  0.00     0.210 C 
ATOM     15  C   LIG d   1      -1.197  74.693 117.108  0.00  0.00     0.109 C 
ATOM     16  O   LIG d   1      -0.430  75.103 114.862  0.00  0.00    -0.276 OA
ATOM     17  H   LIG d   1      -2.013  77.059 116.773  0.00  0.00     0.149 HD
ENDBRANCH   6  13
BRANCH   5  18
ATOM     18  N   LIG d   1       0.282  79.198 115.779  0.00  0.00     0.381 N 
ATOM     19  H   LIG d   1       0.904  78.800 115.104  0.00  0.00    -0.090 HD
ATOM     20  H   LIG d   1       0.335  78.650 116.619  0.00  0.00    -0.090 HD
ATOM     21  H   LIG d   1       0.547  80.139 115.971  0.00  0.00    -0.090 HD
ENDBRANCH   5  18
BRANCH   3  22
ATOM     22  C   LIG d   1      -2.870  81.230 112.799  0.00  0.00     0.382 C 
ATOM     23  O   LIG d   1      -4.074  81.332 112.462  0.00  0.00    -0.241 OA
ATOM     24  O   LIG d   1      -2.077  82.152 112.530  0.00  0.00    -0.241 OA
ENDBRANCH   3  22
TORSDOF 7
ENDMDL
MODEL 3
REMARK VINA RESULT:      -4.9      4.550      5.484
REMARK  7 active torsions:
REMARK  status: ('A' for Active; 'I' for Inactive)
REMARK    1  A    between atoms: C_2  and  C_3 
REMARK    2  A    between atoms: C_3  and  O_6 
REMARK    3  A    between atoms: C_3  and  C_4 
REMARK    4  A    between atoms: C_7  and  O_6 
REMARK    5  A    between atoms: C_9  and  C_10 
REMARK    6  A    between atoms: N_15  and  C_14 
REMARK    7  A    between atoms: N_20  and  C_19 
REMARK       I    between atoms: C_22  and  N_20 
ROOT
ATOM      1  C   LIG d   1      -1.993  79.706 116.082  0.00  0.00     0.161 C 
ATOM      2  C   LIG d   1      -2.467  80.600 115.109  0.00  0.00     0.016 C 
ATOM      3  C   LIG d   1      -2.593  80.267 113.741  0.00  0.00     0.038 C 
ATOM      4  C   LIG d   1      -2.393  78.959 113.275  0.00  0.00     0.028 C 
ATOM      5  C   LIG d   1      -1.428  78.150 114.136  0.00  0.00    -0.047 C 
ATOM      6  C   LIG d   1      -1.875  78.241 115.612  0.00  0.00     0.091 C 
ENDROOT
BRANCH   1   7
ATOM      7  O   LIG d   1      -2.814  79.788 117.264  0.00  0.00    -0.368 OA
BRANCH   7   8
ATOM      8  C   LIG d   1      -3.588  81.003 117.419  0.00  0.00     0.119 C 
BRANCH   8   9
ATOM      9  C   LIG d   1      -3.122  81.686 118.719  0.00  0.00     0.028 C 
ATOM     10  C   LIG d   1      -1.788  82.431 118.546  0.00  0.00     0.006 C 
ENDBRANCH   8   9
BRANCH   8  11
ATOM     11  C   LIG d   1      -5.073  80.695 117.631  0.00  0.00     0.028 C 
ATOM     12  C   LIG d   1      -5.838  81.864 118.271  0.00  0.00     0.006 C 
ENDBRANCH   8  11
ENDBRANCH   7   8
ENDBRANCH   1   7
BRANCH   6  13
ATOM     13  N   LIG d   1      -0.937  77.547 116.533  0.00  0.00    -0.311 N 
ATOM     14  C   LIG d   1      -1.099  76.286 116.931  0.00  0.00     0.210 C 
ATOM     15  C   LIG d   1      -0.027  75.771 117.896  0.00  0.00     0.109 C 
ATOM     16  O   LIG d   1      -2.011  75.536 116.551  0.00  0.00    -0.276 OA
ATOM     17  H   LIG d   1      -0.152  78.072 116.865  0.00  0.00     0.149 HD
ENDBRANCH   6  13
BRANCH   5  18
ATOM     18  N   LIG d   1      -1.418  76.769 113.618  0.00  0.00     0.381 N 
ATOM     19  H   LIG d   1      -0.765  76.217 114.136  0.00  0.00    -0.090 HD
ATOM     20  H   LIG d   1      -1.125  76.784 112.657  0.00  0.00    -0.090 HD
ATOM     21  H   LIG d   1      -2.329  76.372 113.689  0.00  0.00    -0.090 HD
ENDBRANCH   5  18
BRANCH   3  22
ATOM     22  C   LIG d   1      -2.883  81.258 112.816  0.00  0.00     0.382 C 
ATOM     23  O   LIG d   1      -4.071  81.459 112.464  0.00  0.00    -0.241 OA
ATOM     24  O   LIG d   1      -1.968  81.924 112.295  0.00  0.00    -0.241 OA
ENDBRANCH   3  22
TORSDOF 7
ENDMDL
MODEL 4
REMARK VINA RESULT:      -4.8      2.389      3.393
REMARK  7 active torsions:
REMARK  status: ('A' for Active; 'I' for Inactive)
REMARK    1  A    between atoms: C_2  and  C_3 
REMARK    2  A    between atoms: C_3  and  O_6 
REMARK    3  A    between atoms: C_3  and  C_4 
REMARK    4  A    between atoms: C_7  and  O_6 
REMARK    5  A    between atoms: C_9  and  C_10 
REMARK    6  A    between atoms: N_15  and  C_14 
REMARK    7  A    between atoms: N_20  and  C_19 
REMARK       I    between atoms: C_22  and  N_20 
ROOT
ATOM      1  C   LIG d   1      -2.994  76.232 115.939  0.00  0.00     0.161 C 
ATOM      2  C   LIG d   1      -3.305  77.306 115.087  0.00  0.00     0.016 C 
ATOM      3  C   LIG d   1      -2.509  77.675 113.979  0.00  0.00     0.038 C 
ATOM      4  C   LIG d   1      -1.421  76.896 113.555  0.00  0.00     0.028 C 
ATOM      5  C   LIG d   1      -0.775  76.094 114.679  0.00  0.00    -0.047 C 
ATOM      6  C   LIG d   1      -1.873  75.304 115.427  0.00  0.00     0.091 C 
ENDROOT
BRANCH   1   7
ATOM      7  O   LIG d   1      -4.186  75.471 116.220  0.00  0.00    -0.368 OA
BRANCH   7   8
ATOM      8  C   LIG d   1      -5.332  75.747 115.377  0.00  0.00     0.119 C 
BRANCH   8   9
ATOM      9  C   LIG d   1      -6.555  75.912 116.299  0.00  0.00     0.028 C 
ATOM     10  C   LIG d   1      -7.148  74.562 116.735  0.00  0.00     0.006 C 
ENDBRANCH   8   9
BRANCH   8  11
ATOM     11  C   LIG d   1      -5.661  74.553 114.477  0.00  0.00     0.028 C 
ATOM     12  C   LIG d   1      -4.830  74.534 113.184  0.00  0.00     0.006 C 
ENDBRANCH   8  11
ENDBRANCH   7   8
ENDBRANCH   1   7
BRANCH   6  13
ATOM     13  N   LIG d   1      -1.339  74.557 116.595  0.00  0.00    -0.311 N 
ATOM     14  C   LIG d   1      -0.664  75.135 117.588  0.00  0.00     0.210 C 
ATOM     15  C   LIG d   1      -0.184  74.180 118.685  0.00  0.00     0.109 C 
ATOM     16  O   LIG d   1      -0.445  76.352 117.680  0.00  0.00    -0.276 OA
ATOM     17  H   LIG d   1      -1.498  73.569 116.617  0.00  0.00     0.149 HD
ENDBRANCH   6  13
BRANCH   5  18
ATOM     18  N   LIG d   1       0.252  75.226 114.074  0.00  0.00     0.381 N 
ATOM     19  H   LIG d   1      -0.184  74.550 113.479  0.00  0.00    -0.090 HD
ATOM     20  H   LIG d   1       0.736  74.736 114.806  0.00  0.00    -0.090 HD
ATOM     21  H   LIG d   1       0.897  75.775 113.549  0.00  0.00    -0.090 HD
ENDBRANCH   5  18
BRANCH   3  22
ATOM     22  C   LIG d   1      -2.774  78.858 113.305  0.00  0.00     0.382 C 
ATOM     23  O   LIG d   1      -2.576  78.933 112.069  0.00  0.00    -0.241 OA
ATOM     24  O   LIG d   1      -3.167  79.863 113.926  0.00  0.00    -0.241 OA
ENDBRANCH   3  22
TORSDOF 7
ENDMDL
MODEL 5
REMARK VINA RESULT:      -4.7      3.799      5.467
REMARK  7 active torsions:
REMARK  status: ('A' for Active; 'I' for Inactive)
REMARK    1  A    between atoms: C_2  and  C_3 
REMARK    2  A    between atoms: C_3  and  O_6 
REMARK    3  A    between atoms: C_3  and  C_4 
REMARK    4  A    between atoms: C_7  and  O_6 
REMARK    5  A    between atoms: C_9  and  C_10 
REMARK    6  A    between atoms: N_15  and  C_14 
REMARK    7  A    between atoms: N_20  and  C_19 
REMARK       I    between atoms: C_22  and  N_20 
ROOT
ATOM      1  C   LIG d   1      -2.426  78.019 114.885  0.00  0.00     0.161 C 
ATOM      2  C   LIG d   1      -2.446  78.929 113.815  0.00  0.00     0.016 C 
ATOM      3  C   LIG d   1      -2.586  80.326 113.985  0.00  0.00     0.038 C 
ATOM      4  C   LIG d   1      -2.564  80.925 115.253  0.00  0.00     0.028 C 
ATOM      5  C   LIG d   1      -3.054  80.004 116.366  0.00  0.00    -0.047 C 
ATOM      6  C   LIG d   1      -2.290  78.663 116.280  0.00  0.00     0.091 C 
ENDROOT
BRANCH   1   7
ATOM      7  O   LIG d   1      -1.384  77.045 114.679  0.00  0.00    -0.368 OA
BRANCH   7   8
ATOM      8  C   LIG d   1      -1.787  75.803 114.050  0.00  0.00     0.119 C 
BRANCH   8   9
ATOM      9  C   LIG d   1      -3.165  75.420 114.623  0.00  0.00     0.028 C 
ATOM     10  C   LIG d   1      -4.156  74.987 113.529  0.00  0.00     0.006 C 
ENDBRANCH   8   9
BRANCH   8  11
ATOM     11  C   LIG d   1      -0.853  74.653 114.438  0.00  0.00     0.028 C 
ATOM     12  C   LIG d   1       0.032  74.185 113.272  0.00  0.00     0.006 C 
ENDBRANCH   8  11
ENDBRANCH   7   8
ENDBRANCH   1   7
BRANCH   6  13
ATOM     13  N   LIG d   1      -2.767  77.674 117.281  0.00  0.00    -0.311 N 
ATOM     14  C   LIG d   1      -2.198  77.504 118.474  0.00  0.00     0.210 C 
ATOM     15  C   LIG d   1      -2.835  76.417 119.345  0.00  0.00     0.109 C 
ATOM     16  O   LIG d   1      -1.247  78.173 118.905  0.00  0.00    -0.276 OA
ATOM     17  H   LIG d   1      -3.554  77.110 117.026  0.00  0.00     0.149 HD
ENDBRANCH   6  13
BRANCH   5  18
ATOM     18  N   LIG d   1      -2.848  80.706 117.647  0.00  0.00     0.381 N 
ATOM     19  H   LIG d   1      -3.658  80.600 118.225  0.00  0.00    -0.090 HD
ATOM     20  H   LIG d   1      -2.717  81.685 117.464  0.00  0.00    -0.090 HD
ATOM     21  H   LIG d   1      -2.049  80.338 118.113  0.00  0.00    -0.090 HD
ENDBRANCH   5  18
BRANCH   3  22
ATOM     22  C   LIG d   1      -2.790  81.135 112.877  0.00  0.00     0.382 C 
ATOM     23  O   LIG d   1      -1.807  81.610 112.258  0.00  0.00    -0.241 OA
ATOM     24  O   LIG d   1      -3.944  81.433 112.516  0.00  0.00    -0.241 OA
ENDBRANCH   3  22
TORSDOF 7
ENDMDL
MODEL 6
REMARK VINA RESULT:      -4.7      5.332      7.244
REMARK  7 active torsions:
REMARK  status: ('A' for Active; 'I' for Inactive)
REMARK    1  A    between atoms: C_2  and  C_3 
REMARK    2  A    between atoms: C_3  and  O_6 
REMARK    3  A    between atoms: C_3  and  C_4 
REMARK    4  A    between atoms: C_7  and  O_6 
REMARK    5  A    between atoms: C_9  and  C_10 
REMARK    6  A    between atoms: N_15  and  C_14 
REMARK    7  A    between atoms: N_20  and  C_19 
REMARK       I    between atoms: C_22  and  N_20 
ROOT
ATOM      1  C   LIG d   1      -2.106  80.303 114.532  0.00  0.00     0.161 C 
ATOM      2  C   LIG d   1      -2.536  79.077 115.066  0.00  0.00     0.016 C 
ATOM      3  C   LIG d   1      -2.595  77.879 114.317  0.00  0.00     0.038 C 
ATOM      4  C   LIG d   1      -2.081  77.794 113.015  0.00  0.00     0.028 C 
ATOM      5  C   LIG d   1      -2.103  79.122 112.266  0.00  0.00    -0.047 C 
ATOM      6  C   LIG d   1      -1.436  80.205 113.145  0.00  0.00     0.091 C 
ENDROOT
BRANCH   1   7
ATOM      7  O   LIG d   1      -1.228  80.962 115.467  0.00  0.00    -0.368 OA
BRANCH   7   8
ATOM      8  C   LIG d   1      -1.342  80.546 116.850  0.00  0.00     0.119 C 
BRANCH   8   9
ATOM      9  C   LIG d   1      -1.975  81.711 117.633  0.00  0.00     0.028 C 
ATOM     10  C   LIG d   1      -0.925  82.579 118.346  0.00  0.00     0.006 C 
ENDBRANCH   8   9
BRANCH   8  11
ATOM     11  C   LIG d   1       0.037  80.333 117.483  0.00  0.00     0.028 C 
ATOM     12  C   LIG d   1       0.245  78.897 117.988  0.00  0.00     0.006 C 
ENDBRANCH   8  11
ENDBRANCH   7   8
ENDBRANCH   1   7
BRANCH   6  13
ATOM     13  N   LIG d   1      -1.490  81.553 112.523  0.00  0.00    -0.311 N 
ATOM     14  C   LIG d   1      -0.552  82.019 111.701  0.00  0.00     0.210 C 
ATOM     15  C   LIG d   1      -0.792  83.442 111.186  0.00  0.00     0.109 C 
ATOM     16  O   LIG d   1       0.440  81.378 111.323  0.00  0.00    -0.276 OA
ATOM     17  H   LIG d   1      -2.277  82.129 112.750  0.00  0.00     0.149 HD
ENDBRANCH   6  13
BRANCH   5  18
ATOM     18  N   LIG d   1      -1.414  78.919 110.978  0.00  0.00     0.381 N 
ATOM     19  H   LIG d   1      -1.487  79.746 110.420  0.00  0.00    -0.090 HD
ATOM     20  H   LIG d   1      -1.861  78.166 110.485  0.00  0.00    -0.090 HD
ATOM     21  H   LIG d   1      -0.455  78.699 111.134  0.00  0.00    -0.090 HD
ENDBRANCH   5  18
BRANCH   3  22
ATOM     22  C   LIG d   1      -3.211  76.760 114.857  0.00  0.00     0.382 C 
ATOM     23  O   LIG d   1      -2.554  75.705 115.029  0.00  0.00    -0.241 OA
ATOM     24  O   LIG d   1      -4.425  76.779 115.134  0.00  0.00    -0.241 OA
ENDBRANCH   3  22
TORSDOF 7
ENDMDL
MODEL 7
REMARK VINA RESULT:      -4.6      4.306      6.129
REMARK  7 active torsions:
REMARK  status: ('A' for Active; 'I' for Inactive)
REMARK    1  A    between atoms: C_2  and  C_3 
REMARK    2  A    between atoms: C_3  and  O_6 
REMARK    3  A    between atoms: C_3  and  C_4 
REMARK    4  A    between atoms: C_7  and  O_6 
REMARK    5  A    between atoms: C_9  and  C_10 
REMARK    6  A    between atoms: N_15  and  C_14 
REMARK    7  A    between atoms: N_20  and  C_19 
REMARK       I    between atoms: C_22  and  N_20 
ROOT
ATOM      1  C   LIG d   1      -5.870  78.720 117.990  0.00  0.00     0.161 C 
ATOM      2  C   LIG d   1      -7.193  78.300 118.213  0.00  0.00     0.016 C 
ATOM      3  C   LIG d   1      -8.273  79.195 118.389  0.00  0.00     0.038 C 
ATOM      4  C   LIG d   1      -8.129  80.578 118.203  0.00  0.00     0.028 C 
ATOM      5  C   LIG d   1      -6.716  81.081 118.476  0.00  0.00    -0.047 C 
ATOM      6  C   LIG d   1      -5.713  80.222 117.674  0.00  0.00     0.091 C 
ENDROOT
BRANCH   1   7
ATOM      7  O   LIG d   1      -5.274  77.923 116.948  0.00  0.00    -0.368 OA
BRANCH   7   8
ATOM      8  C   LIG d   1      -5.635  76.519 116.933  0.00  0.00     0.119 C 
BRANCH   8   9
ATOM      9  C   LIG d   1      -4.503  75.743 117.635  0.00  0.00     0.028 C 
ATOM     10  C   LIG d   1      -3.142  75.941 116.948  0.00  0.00     0.006 C 
ENDBRANCH   8   9
BRANCH   8  11
ATOM     11  C   LIG d   1      -5.677  75.970 115.504  0.00  0.00     0.028 C 
ATOM     12  C   LIG d   1      -6.282  74.560 115.426  0.00  0.00     0.006 C 
ENDBRANCH   8  11
ENDBRANCH   7   8
ENDBRANCH   1   7
BRANCH   6  13
ATOM     13  N   LIG d   1      -4.300  80.593 117.949  0.00  0.00    -0.311 N 
ATOM     14  C   LIG d   1      -3.417  80.877 116.994  0.00  0.00     0.210 C 
ATOM     15  C   LIG d   1      -2.009  81.216 117.494  0.00  0.00     0.109 C 
ATOM     16  O   LIG d   1      -3.674  80.911 115.781  0.00  0.00    -0.276 OA
ATOM     17  H   LIG d   1      -4.014  80.620 118.909  0.00  0.00     0.149 HD
ENDBRANCH   6  13
BRANCH   5  18
ATOM     18  N   LIG d   1      -6.673  82.510 118.112  0.00  0.00     0.381 N 
ATOM     19  H   LIG d   1      -7.367  82.704 117.418  0.00  0.00    -0.090 HD
ATOM     20  H   LIG d   1      -5.771  82.720 117.723  0.00  0.00    -0.090 HD
ATOM     21  H   LIG d   1      -6.834  83.073 118.919  0.00  0.00    -0.090 HD
ENDBRANCH   5  18
BRANCH   3  22
ATOM     22  C   LIG d   1      -9.508  78.710 118.794  0.00  0.00     0.382 C 
ATOM     23  O   LIG d   1     -10.057  79.175 119.822  0.00  0.00    -0.241 OA
ATOM     24  O   LIG d   1     -10.058  77.783 118.170  0.00  0.00    -0.241 OA
ENDBRANCH   3  22
TORSDOF 7
ENDMDL
MODEL 8
REMARK VINA RESULT:      -4.6      1.922      4.567
REMARK  7 active torsions:
REMARK  status: ('A' for Active; 'I' for Inactive)
REMARK    1  A    between atoms: C_2  and  C_3 
REMARK    2  A    between atoms: C_3  and  O_6 
REMARK    3  A    between atoms: C_3  and  C_4 
REMARK    4  A    between atoms: C_7  and  O_6 
REMARK    5  A    between atoms: C_9  and  C_10 
REMARK    6  A    between atoms: N_15  and  C_14 
REMARK    7  A    between atoms: N_20  and  C_19 
REMARK       I    between atoms: C_22  and  N_20 
ROOT
ATOM      1  C   LIG d   1      -6.064  74.646 116.714  0.00  0.00     0.161 C 
ATOM      2  C   LIG d   1      -7.402  75.064 116.798  0.00  0.00     0.016 C 
ATOM      3  C   LIG d   1      -7.828  76.157 117.588  0.00  0.00     0.038 C 
ATOM      4  C   LIG d   1      -6.917  77.005 118.233  0.00  0.00     0.028 C 
ATOM      5  C   LIG d   1      -5.599  76.323 118.585  0.00  0.00    -0.047 C 
ATOM      6  C   LIG d   1      -5.040  75.628 117.323  0.00  0.00     0.091 C 
ENDROOT
BRANCH   1   7
ATOM      7  O   LIG d   1      -5.727  74.359 115.342  0.00  0.00    -0.368 OA
BRANCH   7   8
ATOM      8  C   LIG d   1      -5.199  75.465 114.570  0.00  0.00     0.119 C 
BRANCH   8   9
ATOM      9  C   LIG d   1      -6.317  75.944 113.624  0.00  0.00     0.028 C 
ATOM     10  C   LIG d   1      -5.785  76.323 112.231  0.00  0.00     0.006 C 
ENDBRANCH   8   9
BRANCH   8  11
ATOM     11  C   LIG d   1      -4.059  75.011 113.653  0.00  0.00     0.028 C 
ATOM     12  C   LIG d   1      -2.688  75.541 114.100  0.00  0.00     0.006 C 
ENDBRANCH   8  11
ENDBRANCH   7   8
ENDBRANCH   1   7
BRANCH   6  13
ATOM     13  N   LIG d   1      -3.795  74.865 117.599  0.00  0.00    -0.311 N 
ATOM     14  C   LIG d   1      -2.581  75.413 117.583  0.00  0.00     0.210 C 
ATOM     15  C   LIG d   1      -1.431  74.444 117.876  0.00  0.00     0.109 C 
ATOM     16  O   LIG d   1      -2.350  76.615 117.385  0.00  0.00    -0.276 OA
ATOM     17  H   LIG d   1      -3.893  73.889 117.800  0.00  0.00     0.149 HD
ENDBRANCH   6  13
BRANCH   5  18
ATOM     18  N   LIG d   1      -4.694  77.354 119.126  0.00  0.00     0.381 N 
ATOM     19  H   LIG d   1      -3.842  76.930 119.434  0.00  0.00    -0.090 HD
ATOM     20  H   LIG d   1      -5.133  77.790 119.918  0.00  0.00    -0.090 HD
ATOM     21  H   LIG d   1      -4.499  78.038 118.427  0.00  0.00    -0.090 HD
ENDBRANCH   5  18
BRANCH   3  22
ATOM     22  C   LIG d   1      -9.184  76.385 117.770  0.00  0.00     0.382 C 
ATOM     23  O   LIG d   1      -9.581  77.500 118.186  0.00  0.00    -0.241 OA
ATOM     24  O   LIG d   1     -10.011  75.476 117.567  0.00  0.00    -0.241 OA
ENDBRANCH   3  22
TORSDOF 7
ENDMDL
MODEL 9
REMARK VINA RESULT:      -4.6      2.328      4.224
REMARK  7 active torsions:
REMARK  status: ('A' for Active; 'I' for Inactive)
REMARK    1  A    between atoms: C_2  and  C_3 
REMARK    2  A    between atoms: C_3  and  O_6 
REMARK    3  A    between atoms: C_3  and  C_4 
REMARK    4  A    between atoms: C_7  and  O_6 
REMARK    5  A    between atoms: C_9  and  C_10 
REMARK    6  A    between atoms: N_15  and  C_14 
REMARK    7  A    between atoms: N_20  and  C_19 
REMARK       I    between atoms: C_22  and  N_20 
ROOT
ATOM      1  C   LIG d   1      -2.915  76.175 114.606  0.00  0.00     0.161 C 
ATOM      2  C   LIG d   1      -3.764  76.474 113.528  0.00  0.00     0.016 C 
ATOM      3  C   LIG d   1      -5.149  76.189 113.526  0.00  0.00     0.038 C 
ATOM      4  C   LIG d   1      -5.811  75.719 114.670  0.00  0.00     0.028 C 
ATOM      5  C   LIG d   1      -4.907  74.931 115.612  0.00  0.00    -0.047 C 
ATOM      6  C   LIG d   1      -3.639  75.764 115.905  0.00  0.00     0.091 C 
ENDROOT
BRANCH   1   7
ATOM      7  O   LIG d   1      -2.031  77.286 114.855  0.00  0.00    -0.368 OA
BRANCH   7   8
ATOM      8  C   LIG d   1      -2.658  78.588 114.961  0.00  0.00     0.119 C 
BRANCH   8   9
ATOM      9  C   LIG d   1      -1.854  79.562 114.078  0.00  0.00     0.028 C 
ATOM     10  C   LIG d   1      -2.637  80.007 112.831  0.00  0.00     0.006 C 
ENDBRANCH   8   9
BRANCH   8  11
ATOM     11  C   LIG d   1      -2.549  79.145 116.383  0.00  0.00     0.028 C 
ATOM     12  C   LIG d   1      -3.245  80.505 116.546  0.00  0.00     0.006 C 
ENDBRANCH   8  11
ENDBRANCH   7   8
ENDBRANCH   1   7
BRANCH   6  13
ATOM     13  N   LIG d   1      -2.662  75.031 116.752  0.00  0.00    -0.311 N 
ATOM     14  C   LIG d   1      -2.567  75.194 118.070  0.00  0.00     0.210 C 
ATOM     15  C   LIG d   1      -1.480  74.356 118.749  0.00  0.00     0.109 C 
ATOM     16  O   LIG d   1      -3.302  75.930 118.747  0.00  0.00    -0.276 OA
ATOM     17  H   LIG d   1      -2.048  74.390 116.289  0.00  0.00     0.149 HD
ENDBRANCH   6  13
BRANCH   5  18
ATOM     18  N   LIG d   1      -5.689  74.621 116.824  0.00  0.00     0.381 N 
ATOM     19  H   LIG d   1      -5.572  75.350 117.498  0.00  0.00    -0.090 HD
ATOM     20  H   LIG d   1      -5.345  73.765 117.222  0.00  0.00    -0.090 HD
ATOM     21  H   LIG d   1      -6.653  74.524 116.592  0.00  0.00    -0.090 HD
ENDBRANCH   5  18
BRANCH   3  22
ATOM     22  C   LIG d   1      -5.879  76.336 112.356  0.00  0.00     0.382 C 
ATOM     23  O   LIG d   1      -5.535  75.718 111.320  0.00  0.00    -0.241 OA
ATOM     24  O   LIG d   1      -6.851  77.114 112.312  0.00  0.00    -0.241 OA
ENDBRANCH   3  22
TORSDOF 7
ENDMDL
