MODEL 1
REMARK VINA RESULT:      -5.8      0.000      0.000
REMARK  7 active torsions:
REMARK  status: ('A' for Active; 'I' for Inactive)
REMARK    1  A    between atoms: C_2  and  C_3 
REMARK    2  A    between atoms: C_3  and  O_6 
REMARK    3  A    between atoms: C_3  and  C_4 
REMARK    4  A    between atoms: C_7  and  O_6 
REMARK    5  A    between atoms: C_9  and  C_10 
REMARK    6  A    between atoms: N_15  and  C_14 
REMARK    7  A    between atoms: N_20  and  C_19 
REMARK       I    between atoms: C_22  and  N_20 
ROOT
ATOM      1  C   LIG d   1      -2.902  78.422 115.533  0.00  0.00     0.161 C 
ATOM      2  C   LIG d   1      -2.964  79.470 114.600  0.00  0.00     0.016 C 
ATOM      3  C   LIG d   1      -2.070  79.599 113.513  0.00  0.00     0.038 C 
ATOM      4  C   LIG d   1      -1.141  78.597 113.194  0.00  0.00     0.028 C 
ATOM      5  C   LIG d   1      -0.707  77.769 114.399  0.00  0.00    -0.047 C 
ATOM      6  C   LIG d   1      -1.966  77.260 115.138  0.00  0.00     0.091 C 
ENDROOT
BRANCH   1   7
ATOM      7  O   LIG d   1      -4.229  77.927 115.801  0.00  0.00    -0.368 OA
BRANCH   7   8
ATOM      8  C   LIG d   1      -4.757  78.202 117.122  0.00  0.00     0.119 C 
BRANCH   8   9
ATOM      9  C   LIG d   1      -6.249  77.817 117.113  0.00  0.00     0.028 C 
ATOM     10  C   LIG d   1      -6.563  76.710 116.093  0.00  0.00     0.006 C 
ENDBRANCH   8   9
BRANCH   8  11
ATOM     11  C   LIG d   1      -4.727  79.701 117.433  0.00  0.00     0.028 C 
ATOM     12  C   LIG d   1      -6.104  80.255 117.831  0.00  0.00     0.006 C 
ENDBRANCH   8  11
ENDBRANCH   7   8
ENDBRANCH   1   7
BRANCH   6  13
ATOM     13  N   LIG d   1      -1.631  76.511 116.378  0.00  0.00    -0.311 N 
ATOM     14  C   LIG d   1      -1.523  75.184 116.426  0.00  0.00     0.210 C 
ATOM     15  C   LIG d   1      -1.190  74.612 117.807  0.00  0.00     0.109 C 
ATOM     16  O   LIG d   1      -1.639  74.430 115.448  0.00  0.00    -0.276 OA
ATOM     17  H   LIG d   1      -1.490  77.048 117.211  0.00  0.00     0.149 HD
ENDBRANCH   6  13
BRANCH   5  18
ATOM     18  N   LIG d   1       0.153  76.677 113.903  0.00  0.00     0.381 N 
ATOM     19  H   LIG d   1      -0.119  76.428 112.973  0.00  0.00    -0.090 HD
ATOM     20  H   LIG d   1       0.031  75.874 114.494  0.00  0.00    -0.090 HD
ATOM     21  H   LIG d   1       1.107  76.964 113.912  0.00  0.00    -0.090 HD
ENDBRANCH   5  18
BRANCH   3  22
ATOM     22  C   LIG d   1      -2.074  80.759 112.753  0.00  0.00     0.382 C 
ATOM     23  O   LIG d   1      -1.257  80.893 111.810  0.00  0.00    -0.241 OA
ATOM     24  O   LIG d   1      -2.855  81.690 113.026  0.00  0.00    -0.241 OA
ENDBRANCH   3  22
TORSDOF 7
ENDMDL
MODEL 2
REMARK VINA RESULT:      -5.8      0.911      1.464
REMARK  7 active torsions:
REMARK  status: ('A' for Active; 'I' for Inactive)
REMARK    1  A    between atoms: C_2  and  C_3 
REMARK    2  A    between atoms: C_3  and  O_6 
REMARK    3  A    between atoms: C_3  and  C_4 
REMARK    4  A    between atoms: C_7  and  O_6 
REMARK    5  A    between atoms: C_9  and  C_10 
REMARK    6  A    between atoms: N_15  and  C_14 
REMARK    7  A    between atoms: N_20  and  C_19 
REMARK       I    between atoms: C_22  and  N_20 
ROOT
ATOM      1  C   LIG d   1      -2.778  78.437 115.591  0.00  0.00     0.161 C 
ATOM      2  C   LIG d   1      -2.916  79.503 114.687  0.00  0.00     0.016 C 
ATOM      3  C   LIG d   1      -2.153  79.622 113.502  0.00  0.00     0.038 C 
ATOM      4  C   LIG d   1      -1.302  78.597 113.062  0.00  0.00     0.028 C 
ATOM      5  C   LIG d   1      -0.755  77.735 114.196  0.00  0.00    -0.047 C 
ATOM      6  C   LIG d   1      -1.934  77.254 115.073  0.00  0.00     0.091 C 
ENDROOT
BRANCH   1   7
ATOM      7  O   LIG d   1      -4.079  77.979 116.009  0.00  0.00    -0.368 OA
BRANCH   7   8
ATOM      8  C   LIG d   1      -4.393  78.145 117.413  0.00  0.00     0.119 C 
BRANCH   8   9
ATOM      9  C   LIG d   1      -5.708  78.943 117.503  0.00  0.00     0.028 C 
ATOM     10  C   LIG d   1      -5.468  80.449 117.707  0.00  0.00     0.006 C 
ENDBRANCH   8   9
BRANCH   8  11
ATOM     11  C   LIG d   1      -3.345  79.009 118.120  0.00  0.00     0.028 C 
ATOM     12  C   LIG d   1      -2.660  78.281 119.287  0.00  0.00     0.006 C 
ENDBRANCH   8  11
ENDBRANCH   7   8
ENDBRANCH   1   7
BRANCH   6  13
ATOM     13  N   LIG d   1      -1.480  76.474 116.254  0.00  0.00    -0.311 N 
ATOM     14  C   LIG d   1      -1.976  75.281 116.579  0.00  0.00     0.210 C 
ATOM     15  C   LIG d   1      -1.382  74.658 117.846  0.00  0.00     0.109 C 
ATOM     16  O   LIG d   1      -2.828  74.666 115.921  0.00  0.00    -0.276 OA
ATOM     17  H   LIG d   1      -0.768  76.885 116.826  0.00  0.00     0.149 HD
ENDBRANCH   6  13
BRANCH   5  18
ATOM     18  N   LIG d   1       0.003  76.627 113.587  0.00  0.00     0.381 N 
ATOM     19  H   LIG d   1       0.674  76.275 114.241  0.00  0.00    -0.090 HD
ATOM     20  H   LIG d   1       0.498  76.973 112.784  0.00  0.00    -0.090 HD
ATOM     21  H   LIG d   1      -0.619  75.898 113.314  0.00  0.00    -0.090 HD
ENDBRANCH   5  18
BRANCH   3  22
ATOM     22  C   LIG d   1      -2.209  80.794 112.763  0.00  0.00     0.382 C 
ATOM     23  O   LIG d   1      -1.430  80.962 111.794  0.00  0.00    -0.241 OA
ATOM     24  O   LIG d   1      -2.998  81.704 113.081  0.00  0.00    -0.241 OA
ENDBRANCH   3  22
TORSDOF 7
ENDMDL
MODEL 3
REMARK VINA RESULT:      -5.8      0.738      1.591
REMARK  7 active torsions:
REMARK  status: ('A' for Active; 'I' for Inactive)
REMARK    1  A    between atoms: C_2  and  C_3 
REMARK    2  A    between atoms: C_3  and  O_6 
REMARK    3  A    between atoms: C_3  and  C_4 
REMARK    4  A    between atoms: C_7  and  O_6 
REMARK    5  A    between atoms: C_9  and  C_10 
REMARK    6  A    between atoms: N_15  and  C_14 
REMARK    7  A    between atoms: N_20  and  C_19 
REMARK       I    between atoms: C_22  and  N_20 
ROOT
ATOM      1  C   LIG d   1      -2.783  78.613 115.621  0.00  0.00     0.161 C 
ATOM      2  C   LIG d   1      -2.907  79.662 114.694  0.00  0.00     0.016 C 
ATOM      3  C   LIG d   1      -2.206  79.703 113.467  0.00  0.00     0.038 C 
ATOM      4  C   LIG d   1      -1.444  78.617 113.011  0.00  0.00     0.028 C 
ATOM      5  C   LIG d   1      -0.888  77.752 114.138  0.00  0.00    -0.047 C 
ATOM      6  C   LIG d   1      -2.042  77.367 115.092  0.00  0.00     0.091 C 
ENDROOT
BRANCH   1   7
ATOM      7  O   LIG d   1      -4.084  78.247 116.121  0.00  0.00    -0.368 OA
BRANCH   7   8
ATOM      8  C   LIG d   1      -4.616  79.080 117.181  0.00  0.00     0.119 C 
BRANCH   8   9
ATOM      9  C   LIG d   1      -3.810  78.775 118.458  0.00  0.00     0.028 C 
ATOM     10  C   LIG d   1      -4.090  79.786 119.584  0.00  0.00     0.006 C 
ENDBRANCH   8   9
BRANCH   8  11
ATOM     11  C   LIG d   1      -6.062  78.701 117.514  0.00  0.00     0.028 C 
ATOM     12  C   LIG d   1      -6.517  77.411 116.812  0.00  0.00     0.006 C 
ENDBRANCH   8  11
ENDBRANCH   7   8
ENDBRANCH   1   7
BRANCH   6  13
ATOM     13  N   LIG d   1      -1.570  76.591 116.268  0.00  0.00    -0.311 N 
ATOM     14  C   LIG d   1      -1.596  75.261 116.327  0.00  0.00     0.210 C 
ATOM     15  C   LIG d   1      -1.081  74.662 117.640  0.00  0.00     0.109 C 
ATOM     16  O   LIG d   1      -1.967  74.519 115.405  0.00  0.00    -0.276 OA
ATOM     17  H   LIG d   1      -1.224  77.113 117.049  0.00  0.00     0.149 HD
ENDBRANCH   6  13
BRANCH   5  18
ATOM     18  N   LIG d   1      -0.232  76.584 113.521  0.00  0.00     0.381 N 
ATOM     19  H   LIG d   1      -0.359  76.609 112.529  0.00  0.00    -0.090 HD
ATOM     20  H   LIG d   1      -0.663  75.747 113.873  0.00  0.00    -0.090 HD
ATOM     21  H   LIG d   1       0.740  76.583 113.740  0.00  0.00    -0.090 HD
ENDBRANCH   5  18
BRANCH   3  22
ATOM     22  C   LIG d   1      -2.233  80.857 112.698  0.00  0.00     0.382 C 
ATOM     23  O   LIG d   1      -1.296  81.100 111.901  0.00  0.00    -0.241 OA
ATOM     24  O   LIG d   1      -3.160  81.679 112.825  0.00  0.00    -0.241 OA
ENDBRANCH   3  22
TORSDOF 7
ENDMDL
MODEL 4
REMARK VINA RESULT:      -5.7      1.142      2.061
REMARK  7 active torsions:
REMARK  status: ('A' for Active; 'I' for Inactive)
REMARK    1  A    between atoms: C_2  and  C_3 
REMARK    2  A    between atoms: C_3  and  O_6 
REMARK    3  A    between atoms: C_3  and  C_4 
REMARK    4  A    between atoms: C_7  and  O_6 
REMARK    5  A    between atoms: C_9  and  C_10 
REMARK    6  A    between atoms: N_15  and  C_14 
REMARK    7  A    between atoms: N_20  and  C_19 
REMARK       I    between atoms: C_22  and  N_20 
ROOT
ATOM      1  C   LIG d   1      -2.470  78.108 116.299  0.00  0.00     0.161 C 
ATOM      2  C   LIG d   1      -2.811  79.034 115.299  0.00  0.00     0.016 C 
ATOM      3  C   LIG d   1      -2.138  79.125 114.059  0.00  0.00     0.038 C 
ATOM      4  C   LIG d   1      -1.168  78.188 113.672  0.00  0.00     0.028 C 
ATOM      5  C   LIG d   1      -0.442  77.546 114.849  0.00  0.00    -0.047 C 
ATOM      6  C   LIG d   1      -1.488  77.005 115.850  0.00  0.00     0.091 C 
ENDROOT
BRANCH   1   7
ATOM      7  O   LIG d   1      -3.665  77.521 116.850  0.00  0.00    -0.368 OA
BRANCH   7   8
ATOM      8  C   LIG d   1      -4.777  77.361 115.934  0.00  0.00     0.119 C 
BRANCH   8   9
ATOM      9  C   LIG d   1      -6.074  77.571 116.739  0.00  0.00     0.028 C 
ATOM     10  C   LIG d   1      -6.027  78.840 117.607  0.00  0.00     0.006 C 
ENDBRANCH   8   9
BRANCH   8  11
ATOM     11  C   LIG d   1      -4.858  75.927 115.402  0.00  0.00     0.028 C 
ATOM     12  C   LIG d   1      -5.941  75.751 114.326  0.00  0.00     0.006 C 
ENDBRANCH   8  11
ENDBRANCH   7   8
ENDBRANCH   1   7
BRANCH   6  13
ATOM     13  N   LIG d   1      -0.862  76.436 117.073  0.00  0.00    -0.311 N 
ATOM     14  C   LIG d   1      -1.242  75.284 117.622  0.00  0.00     0.210 C 
ATOM     15  C   LIG d   1      -0.479  74.890 118.890  0.00  0.00     0.109 C 
ATOM     16  O   LIG d   1      -2.116  74.535 117.161  0.00  0.00    -0.276 OA
ATOM     17  H   LIG d   1      -0.123  76.964 117.494  0.00  0.00     0.149 HD
ENDBRANCH   6  13
BRANCH   5  18
ATOM     18  N   LIG d   1       0.440  76.494 114.310  0.00  0.00     0.381 N 
ATOM     19  H   LIG d   1       1.374  76.632 114.641  0.00  0.00    -0.090 HD
ATOM     20  H   LIG d   1       0.448  76.559 113.307  0.00  0.00    -0.090 HD
ATOM     21  H   LIG d   1       0.110  75.596 114.589  0.00  0.00    -0.090 HD
ENDBRANCH   5  18
BRANCH   3  22
ATOM     22  C   LIG d   1      -2.405  80.186 113.207  0.00  0.00     0.382 C 
ATOM     23  O   LIG d   1      -3.194  81.093 113.565  0.00  0.00    -0.241 OA
ATOM     24  O   LIG d   1      -1.902  80.224 112.069  0.00  0.00    -0.241 OA
ENDBRANCH   3  22
TORSDOF 7
ENDMDL
MODEL 5
REMARK VINA RESULT:      -5.4      1.247      2.015
REMARK  7 active torsions:
REMARK  status: ('A' for Active; 'I' for Inactive)
REMARK    1  A    between atoms: C_2  and  C_3 
REMARK    2  A    between atoms: C_3  and  O_6 
REMARK    3  A    between atoms: C_3  and  C_4 
REMARK    4  A    between atoms: C_7  and  O_6 
REMARK    5  A    between atoms: C_9  and  C_10 
REMARK    6  A    between atoms: N_15  and  C_14 
REMARK    7  A    between atoms: N_20  and  C_19 
REMARK       I    between atoms: C_22  and  N_20 
ROOT
ATOM      1  C   LIG d   1      -2.631  78.315 116.937  0.00  0.00     0.161 C 
ATOM      2  C   LIG d   1      -2.854  79.148 115.828  0.00  0.00     0.016 C 
ATOM      3  C   LIG d   1      -2.406  78.841 114.522  0.00  0.00     0.038 C 
ATOM      4  C   LIG d   1      -1.833  77.600 114.208  0.00  0.00     0.028 C 
ATOM      5  C   LIG d   1      -1.135  76.937 115.391  0.00  0.00    -0.047 C 
ATOM      6  C   LIG d   1      -2.106  76.905 116.593  0.00  0.00     0.091 C 
ENDROOT
BRANCH   1   7
ATOM      7  O   LIG d   1      -3.833  78.223 117.727  0.00  0.00    -0.368 OA
BRANCH   7   8
ATOM      8  C   LIG d   1      -4.995  78.913 117.203  0.00  0.00     0.119 C 
BRANCH   8   9
ATOM      9  C   LIG d   1      -5.383  80.004 118.220  0.00  0.00     0.028 C 
ATOM     10  C   LIG d   1      -6.906  80.161 118.360  0.00  0.00     0.006 C 
ENDBRANCH   8   9
BRANCH   8  11
ATOM     11  C   LIG d   1      -6.208  77.981 117.126  0.00  0.00     0.028 C 
ATOM     12  C   LIG d   1      -6.047  76.880 116.066  0.00  0.00     0.006 C 
ENDBRANCH   8  11
ENDBRANCH   7   8
ENDBRANCH   1   7
BRANCH   6  13
ATOM     13  N   LIG d   1      -1.474  76.349 117.817  0.00  0.00    -0.311 N 
ATOM     14  C   LIG d   1      -1.547  75.064 118.161  0.00  0.00     0.210 C 
ATOM     15  C   LIG d   1      -0.842  74.705 119.473  0.00  0.00     0.109 C 
ATOM     16  O   LIG d   1      -2.101  74.182 117.487  0.00  0.00    -0.276 OA
ATOM     17  H   LIG d   1      -0.978  76.990 118.406  0.00  0.00     0.149 HD
ENDBRANCH   6  13
BRANCH   5  18
ATOM     18  N   LIG d   1      -0.705  75.594 114.959  0.00  0.00     0.381 N 
ATOM     19  H   LIG d   1      -0.106  75.191 115.651  0.00  0.00    -0.090 HD
ATOM     20  H   LIG d   1      -0.187  75.678 114.103  0.00  0.00    -0.090 HD
ATOM     21  H   LIG d   1      -1.500  75.010 114.818  0.00  0.00    -0.090 HD
ENDBRANCH   5  18
BRANCH   3  22
ATOM     22  C   LIG d   1      -2.493  79.798 113.523  0.00  0.00     0.382 C 
ATOM     23  O   LIG d   1      -1.969  79.585 112.403  0.00  0.00    -0.241 OA
ATOM     24  O   LIG d   1      -3.051  80.890 113.741  0.00  0.00    -0.241 OA
ENDBRANCH   3  22
TORSDOF 7
ENDMDL
MODEL 6
REMARK VINA RESULT:      -5.3      2.820      3.563
REMARK  7 active torsions:
REMARK  status: ('A' for Active; 'I' for Inactive)
REMARK    1  A    between atoms: C_2  and  C_3 
REMARK    2  A    between atoms: C_3  and  O_6 
REMARK    3  A    between atoms: C_3  and  C_4 
REMARK    4  A    between atoms: C_7  and  O_6 
REMARK    5  A    between atoms: C_9  and  C_10 
REMARK    6  A    between atoms: N_15  and  C_14 
REMARK    7  A    between atoms: N_20  and  C_19 
REMARK       I    between atoms: C_22  and  N_20 
ROOT
ATOM      1  C   LIG d   1      -3.546  78.076 117.128  0.00  0.00     0.161 C 
ATOM      2  C   LIG d   1      -2.552  78.908 117.669  0.00  0.00     0.016 C 
ATOM      3  C   LIG d   1      -1.186  78.820 117.317  0.00  0.00     0.038 C 
ATOM      4  C   LIG d   1      -0.740  77.987 116.279  0.00  0.00     0.028 C 
ATOM      5  C   LIG d   1      -1.630  76.769 116.056  0.00  0.00    -0.047 C 
ATOM      6  C   LIG d   1      -3.096  77.238 115.913  0.00  0.00     0.091 C 
ENDROOT
BRANCH   1   7
ATOM      7  O   LIG d   1      -4.709  78.858 116.793  0.00  0.00    -0.368 OA
BRANCH   7   8
ATOM      8  C   LIG d   1      -5.766  78.885 117.784  0.00  0.00     0.119 C 
BRANCH   8   9
ATOM      9  C   LIG d   1      -6.858  77.900 117.323  0.00  0.00     0.028 C 
ATOM     10  C   LIG d   1      -8.059  77.864 118.283  0.00  0.00     0.006 C 
ENDBRANCH   8   9
BRANCH   8  11
ATOM     11  C   LIG d   1      -6.450  80.254 117.833  0.00  0.00     0.028 C 
ATOM     12  C   LIG d   1      -6.100  81.049 119.101  0.00  0.00     0.006 C 
ENDBRANCH   8  11
ENDBRANCH   7   8
ENDBRANCH   1   7
BRANCH   6  13
ATOM     13  N   LIG d   1      -4.044  76.101 115.776  0.00  0.00    -0.311 N 
ATOM     14  C   LIG d   1      -4.760  75.872 114.676  0.00  0.00     0.210 C 
ATOM     15  C   LIG d   1      -5.691  74.658 114.752  0.00  0.00     0.109 C 
ATOM     16  O   LIG d   1      -4.689  76.541 113.634  0.00  0.00    -0.276 OA
ATOM     17  H   LIG d   1      -4.140  75.490 116.563  0.00  0.00     0.149 HD
ENDBRANCH   6  13
BRANCH   5  18
ATOM     18  N   LIG d   1      -1.129  76.065 114.860  0.00  0.00     0.381 N 
ATOM     19  H   LIG d   1      -0.164  75.833 114.983  0.00  0.00    -0.090 HD
ATOM     20  H   LIG d   1      -1.209  76.675 114.066  0.00  0.00    -0.090 HD
ATOM     21  H   LIG d   1      -1.660  75.236 114.706  0.00  0.00    -0.090 HD
ENDBRANCH   5  18
BRANCH   3  22
ATOM     22  C   LIG d   1      -0.243  79.541 118.033  0.00  0.00     0.382 C 
ATOM     23  O   LIG d   1       0.409  80.453 117.470  0.00  0.00    -0.241 OA
ATOM     24  O   LIG d   1      -0.005  79.261 119.224  0.00  0.00    -0.241 OA
ENDBRANCH   3  22
TORSDOF 7
ENDMDL
MODEL 7
REMARK VINA RESULT:      -5.2      3.271      4.124
REMARK  7 active torsions:
REMARK  status: ('A' for Active; 'I' for Inactive)
REMARK    1  A    between atoms: C_2  and  C_3 
REMARK    2  A    between atoms: C_3  and  O_6 
REMARK    3  A    between atoms: C_3  and  C_4 
REMARK    4  A    between atoms: C_7  and  O_6 
REMARK    5  A    between atoms: C_9  and  C_10 
REMARK    6  A    between atoms: N_15  and  C_14 
REMARK    7  A    between atoms: N_20  and  C_19 
REMARK       I    between atoms: C_22  and  N_20 
ROOT
ATOM      1  C   LIG d   1      -3.821  77.948 116.779  0.00  0.00     0.161 C 
ATOM      2  C   LIG d   1      -4.779  77.318 115.968  0.00  0.00     0.016 C 
ATOM      3  C   LIG d   1      -4.562  76.075 115.329  0.00  0.00     0.038 C 
ATOM      4  C   LIG d   1      -3.420  75.301 115.583  0.00  0.00     0.028 C 
ATOM      5  C   LIG d   1      -2.208  76.127 115.997  0.00  0.00    -0.047 C 
ATOM      6  C   LIG d   1      -2.612  77.066 117.156  0.00  0.00     0.091 C 
ENDROOT
BRANCH   1   7
ATOM      7  O   LIG d   1      -4.452  78.468 117.966  0.00  0.00    -0.368 OA
BRANCH   7   8
ATOM      8  C   LIG d   1      -5.751  79.082 117.781  0.00  0.00     0.119 C 
BRANCH   8   9
ATOM      9  C   LIG d   1      -5.587  80.595 118.020  0.00  0.00     0.028 C 
ATOM     10  C   LIG d   1      -6.899  81.369 117.805  0.00  0.00     0.006 C 
ENDBRANCH   8   9
BRANCH   8  11
ATOM     11  C   LIG d   1      -6.747  78.608 118.843  0.00  0.00     0.028 C 
ATOM     12  C   LIG d   1      -7.798  77.637 118.284  0.00  0.00     0.006 C 
ENDBRANCH   8  11
ENDBRANCH   7   8
ENDBRANCH   1   7
BRANCH   6  13
ATOM     13  N   LIG d   1      -1.506  77.970 117.566  0.00  0.00    -0.311 N 
ATOM     14  C   LIG d   1      -0.668  77.697 118.564  0.00  0.00     0.210 C 
ATOM     15  C   LIG d   1       0.388  78.774 118.834  0.00  0.00     0.109 C 
ATOM     16  O   LIG d   1      -0.678  76.652 119.231  0.00  0.00    -0.276 OA
ATOM     17  H   LIG d   1      -1.406  78.827 117.058  0.00  0.00     0.149 HD
ENDBRANCH   6  13
BRANCH   5  18
ATOM     18  N   LIG d   1      -1.131  75.187 116.362  0.00  0.00     0.381 N 
ATOM     19  H   LIG d   1      -0.243  75.639 116.276  0.00  0.00    -0.090 HD
ATOM     20  H   LIG d   1      -1.151  74.408 115.729  0.00  0.00    -0.090 HD
ATOM     21  H   LIG d   1      -1.260  74.868 117.297  0.00  0.00    -0.090 HD
ENDBRANCH   5  18
BRANCH   3  22
ATOM     22  C   LIG d   1      -5.477  75.613 114.395  0.00  0.00     0.382 C 
ATOM     23  O   LIG d   1      -5.749  74.390 114.335  0.00  0.00    -0.241 OA
ATOM     24  O   LIG d   1      -6.000  76.399 113.582  0.00  0.00    -0.241 OA
ENDBRANCH   3  22
TORSDOF 7
ENDMDL
MODEL 8
REMARK VINA RESULT:      -5.2      2.331      4.627
REMARK  7 active torsions:
REMARK  status: ('A' for Active; 'I' for Inactive)
REMARK    1  A    between atoms: C_2  and  C_3 
REMARK    2  A    between atoms: C_3  and  O_6 
REMARK    3  A    between atoms: C_3  and  C_4 
REMARK    4  A    between atoms: C_7  and  O_6 
REMARK    5  A    between atoms: C_9  and  C_10 
REMARK    6  A    between atoms: N_15  and  C_14 
REMARK    7  A    between atoms: N_20  and  C_19 
REMARK       I    between atoms: C_22  and  N_20 
ROOT
ATOM      1  C   LIG d   1      -3.031  76.983 115.260  0.00  0.00     0.161 C 
ATOM      2  C   LIG d   1      -2.704  76.229 116.400  0.00  0.00     0.016 C 
ATOM      3  C   LIG d   1      -1.436  76.274 117.025  0.00  0.00     0.038 C 
ATOM      4  C   LIG d   1      -0.452  77.195 116.640  0.00  0.00     0.028 C 
ATOM      5  C   LIG d   1      -0.557  77.619 115.178  0.00  0.00    -0.047 C 
ATOM      6  C   LIG d   1      -2.006  78.076 114.892  0.00  0.00     0.091 C 
ENDROOT
BRANCH   1   7
ATOM      7  O   LIG d   1      -4.343  77.558 115.415  0.00  0.00    -0.368 OA
BRANCH   7   8
ATOM      8  C   LIG d   1      -5.339  76.714 116.044  0.00  0.00     0.119 C 
BRANCH   8   9
ATOM      9  C   LIG d   1      -6.168  76.060 114.922  0.00  0.00     0.028 C 
ATOM     10  C   LIG d   1      -5.922  74.546 114.817  0.00  0.00     0.006 C 
ENDBRANCH   8   9
BRANCH   8  11
ATOM     11  C   LIG d   1      -6.339  77.543 116.857  0.00  0.00     0.028 C 
ATOM     12  C   LIG d   1      -7.670  76.811 117.089  0.00  0.00     0.006 C 
ENDBRANCH   8  11
ENDBRANCH   7   8
ENDBRANCH   1   7
BRANCH   6  13
ATOM     13  N   LIG d   1      -2.218  78.428 113.464  0.00  0.00    -0.311 N 
ATOM     14  C   LIG d   1      -1.669  77.755 112.454  0.00  0.00     0.210 C 
ATOM     15  C   LIG d   1      -2.001  78.297 111.060  0.00  0.00     0.109 C 
ATOM     16  O   LIG d   1      -0.966  76.741 112.579  0.00  0.00    -0.276 OA
ATOM     17  H   LIG d   1      -2.800  79.219 113.270  0.00  0.00     0.149 HD
ENDBRANCH   6  13
BRANCH   5  18
ATOM     18  N   LIG d   1       0.440  78.681 114.949  0.00  0.00     0.381 N 
ATOM     19  H   LIG d   1       1.160  78.625 115.641  0.00  0.00    -0.090 HD
ATOM     20  H   LIG d   1      -0.011  79.575 115.035  0.00  0.00    -0.090 HD
ATOM     21  H   LIG d   1       0.835  78.587 114.040  0.00  0.00    -0.090 HD
ENDBRANCH   5  18
BRANCH   3  22
ATOM     22  C   LIG d   1      -1.130  75.362 118.023  0.00  0.00     0.382 C 
ATOM     23  O   LIG d   1      -1.544  74.180 117.941  0.00  0.00    -0.241 OA
ATOM     24  O   LIG d   1      -0.483  75.717 119.027  0.00  0.00    -0.241 OA
ENDBRANCH   3  22
TORSDOF 7
ENDMDL
MODEL 9
REMARK VINA RESULT:      -4.7      2.547      5.351
REMARK  7 active torsions:
REMARK  status: ('A' for Active; 'I' for Inactive)
REMARK    1  A    between atoms: C_2  and  C_3 
REMARK    2  A    between atoms: C_3  and  O_6 
REMARK    3  A    between atoms: C_3  and  C_4 
REMARK    4  A    between atoms: C_7  and  O_6 
REMARK    5  A    between atoms: C_9  and  C_10 
REMARK    6  A    between atoms: N_15  and  C_14 
REMARK    7  A    between atoms: N_20  and  C_19 
REMARK       I    between atoms: C_22  and  N_20 
ROOT
ATOM      1  C   LIG d   1      -2.018  79.227 114.813  0.00  0.00     0.161 C 
ATOM      2  C   LIG d   1      -2.903  78.208 115.203  0.00  0.00     0.016 C 
ATOM      3  C   LIG d   1      -3.470  77.281 114.298  0.00  0.00     0.038 C 
ATOM      4  C   LIG d   1      -3.069  77.216 112.956  0.00  0.00     0.028 C 
ATOM      5  C   LIG d   1      -2.559  78.546 112.410  0.00  0.00    -0.047 C 
ATOM      6  C   LIG d   1      -1.484  79.103 113.371  0.00  0.00     0.091 C 
ENDROOT
BRANCH   1   7
ATOM      7  O   LIG d   1      -0.924  79.309 115.748  0.00  0.00    -0.368 OA
BRANCH   7   8
ATOM      8  C   LIG d   1      -1.105  78.609 117.003  0.00  0.00     0.119 C 
BRANCH   8   9
ATOM      9  C   LIG d   1      -0.632  79.549 118.129  0.00  0.00     0.028 C 
ATOM     10  C   LIG d   1      -1.549  79.494 119.363  0.00  0.00     0.006 C 
ENDBRANCH   8   9
BRANCH   8  11
ATOM     11  C   LIG d   1      -0.196  77.380 117.092  0.00  0.00     0.028 C 
ATOM     12  C   LIG d   1      -0.906  76.156 117.694  0.00  0.00     0.006 C 
ENDBRANCH   8  11
ENDBRANCH   7   8
ENDBRANCH   1   7
BRANCH   6  13
ATOM     13  N   LIG d   1      -0.992  80.442 112.956  0.00  0.00    -0.311 N 
ATOM     14  C   LIG d   1      -1.798  81.470 112.693  0.00  0.00     0.210 C 
ATOM     15  C   LIG d   1      -1.086  82.756 112.262  0.00  0.00     0.109 C 
ATOM     16  O   LIG d   1      -3.032  81.447 112.807  0.00  0.00    -0.276 OA
ATOM     17  H   LIG d   1      -0.001  80.558 112.869  0.00  0.00     0.149 HD
ENDBRANCH   6  13
BRANCH   5  18
ATOM     18  N   LIG d   1      -2.047  78.302 111.048  0.00  0.00     0.381 N 
ATOM     19  H   LIG d   1      -1.076  78.538 111.004  0.00  0.00    -0.090 HD
ATOM     20  H   LIG d   1      -2.544  78.892 110.404  0.00  0.00    -0.090 HD
ATOM     21  H   LIG d   1      -2.177  77.346 110.802  0.00  0.00    -0.090 HD
ENDBRANCH   5  18
BRANCH   3  22
ATOM     22  C   LIG d   1      -4.478  76.432 114.727  0.00  0.00     0.382 C 
ATOM     23  O   LIG d   1      -4.487  75.232 114.358  0.00  0.00    -0.241 OA
ATOM     24  O   LIG d   1      -5.404  76.860 115.441  0.00  0.00    -0.241 OA
ENDBRANCH   3  22
TORSDOF 7
ENDMDL
