MODEL 1
REMARK VINA RESULT:      -5.3      0.000      0.000
REMARK  7 active torsions:
REMARK  status: ('A' for Active; 'I' for Inactive)
REMARK    1  A    between atoms: C_2  and  C_3 
REMARK    2  A    between atoms: C_3  and  O_6 
REMARK    3  A    between atoms: C_3  and  C_4 
REMARK    4  A    between atoms: C_7  and  O_6 
REMARK    5  A    between atoms: C_9  and  C_10 
REMARK    6  A    between atoms: N_15  and  C_14 
REMARK    7  A    between atoms: N_20  and  C_19 
REMARK       I    between atoms: C_22  and  N_20 
ROOT
ATOM      1  C   LIG d   1      -6.867  77.975 116.762  0.00  0.00     0.161 C 
ATOM      2  C   LIG d   1      -6.631  76.983 115.796  0.00  0.00     0.016 C 
ATOM      3  C   LIG d   1      -5.368  76.760 115.202  0.00  0.00     0.038 C 
ATOM      4  C   LIG d   1      -4.212  77.420 115.647  0.00  0.00     0.028 C 
ATOM      5  C   LIG d   1      -4.495  78.785 116.266  0.00  0.00    -0.047 C 
ATOM      6  C   LIG d   1      -5.595  78.630 117.340  0.00  0.00     0.091 C 
ENDROOT
BRANCH   1   7
ATOM      7  O   LIG d   1      -7.682  77.439 117.824  0.00  0.00    -0.368 OA
BRANCH   7   8
ATOM      8  C   LIG d   1      -9.096  77.747 117.759  0.00  0.00     0.119 C 
BRANCH   8   9
ATOM      9  C   LIG d   1      -9.399  78.769 118.872  0.00  0.00     0.028 C 
ATOM     10  C   LIG d   1      -9.649  80.182 118.318  0.00  0.00     0.006 C 
ENDBRANCH   8   9
BRANCH   8  11
ATOM     11  C   LIG d   1      -9.949  76.519 118.092  0.00  0.00     0.028 C 
ATOM     12  C   LIG d   1      -9.758  75.371 117.089  0.00  0.00     0.006 C 
ENDBRANCH   8  11
ENDBRANCH   7   8
ENDBRANCH   1   7
BRANCH   6  13
ATOM     13  N   LIG d   1      -5.992  79.932 117.937  0.00  0.00    -0.311 N 
ATOM     14  C   LIG d   1      -5.446  80.427 119.047  0.00  0.00     0.210 C 
ATOM     15  C   LIG d   1      -6.014  81.775 119.502  0.00  0.00     0.109 C 
ATOM     16  O   LIG d   1      -4.523  79.893 119.679  0.00  0.00    -0.276 OA
ATOM     17  H   LIG d   1      -6.713  80.447 117.471  0.00  0.00     0.149 HD
ENDBRANCH   6  13
BRANCH   5  18
ATOM     18  N   LIG d   1      -3.224  79.300 116.810  0.00  0.00     0.381 N 
ATOM     19  H   LIG d   1      -2.869  80.022 116.215  0.00  0.00    -0.090 HD
ATOM     20  H   LIG d   1      -2.554  78.551 116.832  0.00  0.00    -0.090 HD
ATOM     21  H   LIG d   1      -3.366  79.656 117.729  0.00  0.00    -0.090 HD
ENDBRANCH   5  18
BRANCH   3  22
ATOM     22  C   LIG d   1      -5.258  75.897 114.122  0.00  0.00     0.382 C 
ATOM     23  O   LIG d   1      -4.544  74.869 114.211  0.00  0.00    -0.241 OA
ATOM     24  O   LIG d   1      -5.830  76.155 113.046  0.00  0.00    -0.241 OA
ENDBRANCH   3  22
TORSDOF 7
ENDMDL
MODEL 2
REMARK VINA RESULT:      -5.2      3.341      4.878
REMARK  7 active torsions:
REMARK  status: ('A' for Active; 'I' for Inactive)
REMARK    1  A    between atoms: C_2  and  C_3 
REMARK    2  A    between atoms: C_3  and  O_6 
REMARK    3  A    between atoms: C_3  and  C_4 
REMARK    4  A    between atoms: C_7  and  O_6 
REMARK    5  A    between atoms: C_9  and  C_10 
REMARK    6  A    between atoms: N_15  and  C_14 
REMARK    7  A    between atoms: N_20  and  C_19 
REMARK       I    between atoms: C_22  and  N_20 
ROOT
ATOM      1  C   LIG d   1      -3.110  77.728 115.978  0.00  0.00     0.161 C 
ATOM      2  C   LIG d   1      -3.480  78.057 114.664  0.00  0.00     0.016 C 
ATOM      3  C   LIG d   1      -2.629  77.882 113.548  0.00  0.00     0.038 C 
ATOM      4  C   LIG d   1      -1.397  77.221 113.653  0.00  0.00     0.028 C 
ATOM      5  C   LIG d   1      -0.768  77.327 115.038  0.00  0.00    -0.047 C 
ATOM      6  C   LIG d   1      -1.812  76.902 116.097  0.00  0.00     0.091 C 
ENDROOT
BRANCH   1   7
ATOM      7  O   LIG d   1      -4.198  77.049 116.636  0.00  0.00    -0.368 OA
BRANCH   7   8
ATOM      8  C   LIG d   1      -5.325  76.691 115.800  0.00  0.00     0.119 C 
BRANCH   8   9
ATOM      9  C   LIG d   1      -6.593  77.265 116.461  0.00  0.00     0.028 C 
ATOM     10  C   LIG d   1      -7.838  76.403 116.191  0.00  0.00     0.006 C 
ENDBRANCH   8   9
BRANCH   8  11
ATOM     11  C   LIG d   1      -5.536  75.174 115.769  0.00  0.00     0.028 C 
ATOM     12  C   LIG d   1      -4.544  74.453 114.842  0.00  0.00     0.006 C 
ENDBRANCH   8  11
ENDBRANCH   7   8
ENDBRANCH   1   7
BRANCH   6  13
ATOM     13  N   LIG d   1      -1.306  77.057 117.486  0.00  0.00    -0.311 N 
ATOM     14  C   LIG d   1      -0.612  76.115 118.122  0.00  0.00     0.210 C 
ATOM     15  C   LIG d   1      -0.203  76.470 119.555  0.00  0.00     0.109 C 
ATOM     16  O   LIG d   1      -0.268  75.032 117.624  0.00  0.00    -0.276 OA
ATOM     17  H   LIG d   1      -1.513  77.918 117.953  0.00  0.00     0.149 HD
ENDBRANCH   6  13
BRANCH   5  18
ATOM     18  N   LIG d   1       0.440  76.480 115.046  0.00  0.00     0.381 N 
ATOM     19  H   LIG d   1       0.234  75.600 115.475  0.00  0.00    -0.090 HD
ATOM     20  H   LIG d   1       1.153  76.936 115.587  0.00  0.00    -0.090 HD
ATOM     21  H   LIG d   1       0.761  76.336 114.114  0.00  0.00    -0.090 HD
ENDBRANCH   5  18
BRANCH   3  22
ATOM     22  C   LIG d   1      -2.992  78.408 112.318  0.00  0.00     0.382 C 
ATOM     23  O   LIG d   1      -2.952  77.687 111.292  0.00  0.00    -0.241 OA
ATOM     24  O   LIG d   1      -3.317  79.606 112.213  0.00  0.00    -0.241 OA
ENDBRANCH   3  22
TORSDOF 7
ENDMDL
MODEL 3
REMARK VINA RESULT:      -5.1      2.393      4.997
REMARK  7 active torsions:
REMARK  status: ('A' for Active; 'I' for Inactive)
REMARK    1  A    between atoms: C_2  and  C_3 
REMARK    2  A    between atoms: C_3  and  O_6 
REMARK    3  A    between atoms: C_3  and  C_4 
REMARK    4  A    between atoms: C_7  and  O_6 
REMARK    5  A    between atoms: C_9  and  C_10 
REMARK    6  A    between atoms: N_15  and  C_14 
REMARK    7  A    between atoms: N_20  and  C_19 
REMARK       I    between atoms: C_22  and  N_20 
ROOT
ATOM      1  C   LIG d   1      -4.604  76.919 117.713  0.00  0.00     0.161 C 
ATOM      2  C   LIG d   1      -5.608  77.896 117.826  0.00  0.00     0.016 C 
ATOM      3  C   LIG d   1      -5.519  79.176 117.232  0.00  0.00     0.038 C 
ATOM      4  C   LIG d   1      -4.480  79.514 116.351  0.00  0.00     0.028 C 
ATOM      5  C   LIG d   1      -3.192  78.741 116.610  0.00  0.00    -0.047 C 
ATOM      6  C   LIG d   1      -3.515  77.230 116.665  0.00  0.00     0.091 C 
ENDROOT
BRANCH   1   7
ATOM      7  O   LIG d   1      -5.201  75.634 117.449  0.00  0.00    -0.368 OA
BRANCH   7   8
ATOM      8  C   LIG d   1      -6.254  75.612 116.454  0.00  0.00     0.119 C 
BRANCH   8   9
ATOM      9  C   LIG d   1      -7.393  74.733 117.005  0.00  0.00     0.028 C 
ATOM     10  C   LIG d   1      -8.764  75.425 116.916  0.00  0.00     0.006 C 
ENDBRANCH   8   9
BRANCH   8  11
ATOM     11  C   LIG d   1      -5.792  74.919 115.169  0.00  0.00     0.028 C 
ATOM     12  C   LIG d   1      -5.628  75.894 113.992  0.00  0.00     0.006 C 
ENDBRANCH   8  11
ENDBRANCH   7   8
ENDBRANCH   1   7
BRANCH   6  13
ATOM     13  N   LIG d   1      -2.323  76.407 116.997  0.00  0.00    -0.311 N 
ATOM     14  C   LIG d   1      -1.836  75.464 116.193  0.00  0.00     0.210 C 
ATOM     15  C   LIG d   1      -0.613  74.719 116.736  0.00  0.00     0.109 C 
ATOM     16  O   LIG d   1      -2.281  75.196 115.067  0.00  0.00    -0.276 OA
ATOM     17  H   LIG d   1      -1.881  76.580 117.879  0.00  0.00     0.149 HD
ENDBRANCH   6  13
BRANCH   5  18
ATOM     18  N   LIG d   1      -2.240  79.090 115.538  0.00  0.00     0.381 N 
ATOM     19  H   LIG d   1      -2.462  79.992 115.168  0.00  0.00    -0.090 HD
ATOM     20  H   LIG d   1      -2.323  78.416 114.797  0.00  0.00    -0.090 HD
ATOM     21  H   LIG d   1      -1.310  79.089 115.895  0.00  0.00    -0.090 HD
ENDBRANCH   5  18
BRANCH   3  22
ATOM     22  C   LIG d   1      -6.456  80.147 117.548  0.00  0.00     0.382 C 
ATOM     23  O   LIG d   1      -6.162  81.063 118.353  0.00  0.00    -0.241 OA
ATOM     24  O   LIG d   1      -7.607  80.094 117.073  0.00  0.00    -0.241 OA
ENDBRANCH   3  22
TORSDOF 7
ENDMDL
MODEL 4
REMARK VINA RESULT:      -4.7      2.424      4.471
REMARK  7 active torsions:
REMARK  status: ('A' for Active; 'I' for Inactive)
REMARK    1  A    between atoms: C_2  and  C_3 
REMARK    2  A    between atoms: C_3  and  O_6 
REMARK    3  A    between atoms: C_3  and  C_4 
REMARK    4  A    between atoms: C_7  and  O_6 
REMARK    5  A    between atoms: C_9  and  C_10 
REMARK    6  A    between atoms: N_15  and  C_14 
REMARK    7  A    between atoms: N_20  and  C_19 
REMARK       I    between atoms: C_22  and  N_20 
ROOT
ATOM      1  C   LIG d   1      -6.209  79.040 117.197  0.00  0.00     0.161 C 
ATOM      2  C   LIG d   1      -4.947  79.514 116.801  0.00  0.00     0.016 C 
ATOM      3  C   LIG d   1      -4.031  78.748 116.042  0.00  0.00     0.038 C 
ATOM      4  C   LIG d   1      -4.379  77.504 115.495  0.00  0.00     0.028 C 
ATOM      5  C   LIG d   1      -5.455  76.773 116.291  0.00  0.00    -0.047 C 
ATOM      6  C   LIG d   1      -6.650  77.728 116.515  0.00  0.00     0.091 C 
ENDROOT
BRANCH   1   7
ATOM      7  O   LIG d   1      -7.200  80.067 116.996  0.00  0.00    -0.368 OA
BRANCH   7   8
ATOM      8  C   LIG d   1      -7.737  80.678 118.195  0.00  0.00     0.119 C 
BRANCH   8   9
ATOM      9  C   LIG d   1      -9.268  80.750 118.033  0.00  0.00     0.028 C 
ATOM     10  C   LIG d   1      -9.991  79.614 118.776  0.00  0.00     0.006 C 
ENDBRANCH   8   9
BRANCH   8  11
ATOM     11  C   LIG d   1      -7.275  82.131 118.335  0.00  0.00     0.028 C 
ATOM     12  C   LIG d   1      -8.120  82.931 119.339  0.00  0.00     0.006 C 
ENDBRANCH   8  11
ENDBRANCH   7   8
ENDBRANCH   1   7
BRANCH   6  13
ATOM     13  N   LIG d   1      -7.712  77.119 117.358  0.00  0.00    -0.311 N 
ATOM     14  C   LIG d   1      -8.718  76.400 116.863  0.00  0.00     0.210 C 
ATOM     15  C   LIG d   1      -9.715  75.880 117.904  0.00  0.00     0.109 C 
ATOM     16  O   LIG d   1      -8.861  76.115 115.664  0.00  0.00    -0.276 OA
ATOM     17  H   LIG d   1      -7.655  77.273 118.345  0.00  0.00     0.149 HD
ENDBRANCH   6  13
BRANCH   5  18
ATOM     18  N   LIG d   1      -5.820  75.559 115.536  0.00  0.00     0.381 N 
ATOM     19  H   LIG d   1      -6.483  75.022 116.058  0.00  0.00    -0.090 HD
ATOM     20  H   LIG d   1      -4.996  74.999 115.403  0.00  0.00    -0.090 HD
ATOM     21  H   LIG d   1      -6.206  75.810 114.652  0.00  0.00    -0.090 HD
ENDBRANCH   5  18
BRANCH   3  22
ATOM     22  C   LIG d   1      -2.737  79.210 115.857  0.00  0.00     0.382 C 
ATOM     23  O   LIG d   1      -2.029  79.507 116.850  0.00  0.00    -0.241 OA
ATOM     24  O   LIG d   1      -2.283  79.376 114.709  0.00  0.00    -0.241 OA
ENDBRANCH   3  22
TORSDOF 7
ENDMDL
MODEL 5
REMARK VINA RESULT:      -4.7      2.620      6.228
REMARK  7 active torsions:
REMARK  status: ('A' for Active; 'I' for Inactive)
REMARK    1  A    between atoms: C_2  and  C_3 
REMARK    2  A    between atoms: C_3  and  O_6 
REMARK    3  A    between atoms: C_3  and  C_4 
REMARK    4  A    between atoms: C_7  and  O_6 
REMARK    5  A    between atoms: C_9  and  C_10 
REMARK    6  A    between atoms: N_15  and  C_14 
REMARK    7  A    between atoms: N_20  and  C_19 
REMARK       I    between atoms: C_22  and  N_20 
ROOT
ATOM      1  C   LIG d   1      -5.996  78.117 116.636  0.00  0.00     0.161 C 
ATOM      2  C   LIG d   1      -6.757  79.127 117.248  0.00  0.00     0.016 C 
ATOM      3  C   LIG d   1      -8.086  78.941 117.690  0.00  0.00     0.038 C 
ATOM      4  C   LIG d   1      -8.699  77.679 117.688  0.00  0.00     0.028 C 
ATOM      5  C   LIG d   1      -8.150  76.741 116.618  0.00  0.00    -0.047 C 
ATOM      6  C   LIG d   1      -6.609  76.703 116.727  0.00  0.00     0.091 C 
ENDROOT
BRANCH   1   7
ATOM      7  O   LIG d   1      -4.659  78.119 117.174  0.00  0.00    -0.368 OA
BRANCH   7   8
ATOM      8  C   LIG d   1      -3.711  78.997 116.519  0.00  0.00     0.119 C 
BRANCH   8   9
ATOM      9  C   LIG d   1      -3.367  78.371 115.153  0.00  0.00     0.028 C 
ATOM     10  C   LIG d   1      -2.927  79.422 114.120  0.00  0.00     0.006 C 
ENDBRANCH   8   9
BRANCH   8  11
ATOM     11  C   LIG d   1      -2.385  79.054 117.284  0.00  0.00     0.028 C 
ATOM     12  C   LIG d   1      -2.328  80.214 118.291  0.00  0.00     0.006 C 
ENDBRANCH   8  11
ENDBRANCH   7   8
ENDBRANCH   1   7
BRANCH   6  13
ATOM     13  N   LIG d   1      -5.986  75.874 115.662  0.00  0.00    -0.311 N 
ATOM     14  C   LIG d   1      -5.115  74.897 115.908  0.00  0.00     0.210 C 
ATOM     15  C   LIG d   1      -4.578  74.180 114.666  0.00  0.00     0.109 C 
ATOM     16  O   LIG d   1      -4.760  74.535 117.040  0.00  0.00    -0.276 OA
ATOM     17  H   LIG d   1      -6.241  76.080 114.716  0.00  0.00     0.149 HD
ENDBRANCH   6  13
BRANCH   5  18
ATOM     18  N   LIG d   1      -8.777  75.421 116.818  0.00  0.00     0.381 N 
ATOM     19  H   LIG d   1      -8.426  74.773 116.142  0.00  0.00    -0.090 HD
ATOM     20  H   LIG d   1      -9.769  75.509 116.685  0.00  0.00    -0.090 HD
ATOM     21  H   LIG d   1      -8.586  75.089 117.738  0.00  0.00    -0.090 HD
ENDBRANCH   5  18
BRANCH   3  22
ATOM     22  C   LIG d   1      -8.832  80.034 118.105  0.00  0.00     0.382 C 
ATOM     23  O   LIG d   1      -8.266  81.131 118.330  0.00  0.00    -0.241 OA
ATOM     24  O   LIG d   1     -10.058  79.926 118.299  0.00  0.00    -0.241 OA
ENDBRANCH   3  22
TORSDOF 7
ENDMDL
MODEL 6
REMARK VINA RESULT:      -4.7      3.394      4.833
REMARK  7 active torsions:
REMARK  status: ('A' for Active; 'I' for Inactive)
REMARK    1  A    between atoms: C_2  and  C_3 
REMARK    2  A    between atoms: C_3  and  O_6 
REMARK    3  A    between atoms: C_3  and  C_4 
REMARK    4  A    between atoms: C_7  and  O_6 
REMARK    5  A    between atoms: C_9  and  C_10 
REMARK    6  A    between atoms: N_15  and  C_14 
REMARK    7  A    between atoms: N_20  and  C_19 
REMARK       I    between atoms: C_22  and  N_20 
ROOT
ATOM      1  C   LIG d   1      -3.060  77.832 116.112  0.00  0.00     0.161 C 
ATOM      2  C   LIG d   1      -3.477  78.208 114.824  0.00  0.00     0.016 C 
ATOM      3  C   LIG d   1      -2.671  78.063 113.671  0.00  0.00     0.038 C 
ATOM      4  C   LIG d   1      -1.442  77.388 113.707  0.00  0.00     0.028 C 
ATOM      5  C   LIG d   1      -0.760  77.442 115.070  0.00  0.00    -0.047 C 
ATOM      6  C   LIG d   1      -1.766  76.992 116.153  0.00  0.00     0.091 C 
ENDROOT
BRANCH   1   7
ATOM      7  O   LIG d   1      -4.128  77.141 116.789  0.00  0.00    -0.368 OA
BRANCH   7   8
ATOM      8  C   LIG d   1      -5.193  77.972 117.314  0.00  0.00     0.119 C 
BRANCH   8   9
ATOM      9  C   LIG d   1      -5.218  77.780 118.843  0.00  0.00     0.028 C 
ATOM     10  C   LIG d   1      -4.596  76.441 119.277  0.00  0.00     0.006 C 
ENDBRANCH   8   9
BRANCH   8  11
ATOM     11  C   LIG d   1      -6.564  77.498 116.823  0.00  0.00     0.028 C 
ATOM     12  C   LIG d   1      -7.716  78.380 117.330  0.00  0.00     0.006 C 
ENDBRANCH   8  11
ENDBRANCH   7   8
ENDBRANCH   1   7
BRANCH   6  13
ATOM     13  N   LIG d   1      -1.206  77.097 117.526  0.00  0.00    -0.311 N 
ATOM     14  C   LIG d   1      -0.556  76.104 118.129  0.00  0.00     0.210 C 
ATOM     15  C   LIG d   1      -0.078  76.414 119.551  0.00  0.00     0.109 C 
ATOM     16  O   LIG d   1      -0.301  75.006 117.610  0.00  0.00    -0.276 OA
ATOM     17  H   LIG d   1      -1.340  77.964 118.008  0.00  0.00     0.149 HD
ENDBRANCH   6  13
BRANCH   5  18
ATOM     18  N   LIG d   1       0.439  76.586 115.003  0.00  0.00     0.381 N 
ATOM     19  H   LIG d   1       1.173  77.067 114.523  0.00  0.00    -0.090 HD
ATOM     20  H   LIG d   1       0.216  75.754 114.484  0.00  0.00    -0.090 HD
ATOM     21  H   LIG d   1       0.736  76.342 115.922  0.00  0.00    -0.090 HD
ENDBRANCH   5  18
BRANCH   3  22
ATOM     22  C   LIG d   1      -3.076  78.632 112.473  0.00  0.00     0.382 C 
ATOM     23  O   LIG d   1      -3.410  79.840 112.435  0.00  0.00    -0.241 OA
ATOM     24  O   LIG d   1      -3.153  77.941 111.440  0.00  0.00    -0.241 OA
ENDBRANCH   3  22
TORSDOF 7
ENDMDL
MODEL 7
REMARK VINA RESULT:      -4.6      2.249      4.895
REMARK  7 active torsions:
REMARK  status: ('A' for Active; 'I' for Inactive)
REMARK    1  A    between atoms: C_2  and  C_3 
REMARK    2  A    between atoms: C_3  and  O_6 
REMARK    3  A    between atoms: C_3  and  C_4 
REMARK    4  A    between atoms: C_7  and  O_6 
REMARK    5  A    between atoms: C_9  and  C_10 
REMARK    6  A    between atoms: N_15  and  C_14 
REMARK    7  A    between atoms: N_20  and  C_19 
REMARK       I    between atoms: C_22  and  N_20 
ROOT
ATOM      1  C   LIG d   1      -6.650  78.265 117.119  0.00  0.00     0.161 C 
ATOM      2  C   LIG d   1      -7.676  79.201 117.328  0.00  0.00     0.016 C 
ATOM      3  C   LIG d   1      -7.470  80.456 117.947  0.00  0.00     0.038 C 
ATOM      4  C   LIG d   1      -6.187  80.924 118.266  0.00  0.00     0.028 C 
ATOM      5  C   LIG d   1      -5.184  79.807 118.534  0.00  0.00    -0.047 C 
ATOM      6  C   LIG d   1      -5.224  78.804 117.359  0.00  0.00     0.091 C 
ENDROOT
BRANCH   1   7
ATOM      7  O   LIG d   1      -6.759  77.708 115.794  0.00  0.00    -0.368 OA
BRANCH   7   8
ATOM      8  C   LIG d   1      -7.240  76.344 115.713  0.00  0.00     0.119 C 
BRANCH   8   9
ATOM      9  C   LIG d   1      -7.794  75.966 117.101  0.00  0.00     0.028 C 
ATOM     10  C   LIG d   1      -9.248  75.469 117.037  0.00  0.00     0.006 C 
ENDBRANCH   8   9
BRANCH   8  11
ATOM     11  C   LIG d   1      -6.094  75.363 115.453  0.00  0.00     0.028 C 
ATOM     12  C   LIG d   1      -5.289  75.709 114.190  0.00  0.00     0.006 C 
ENDBRANCH   8  11
ENDBRANCH   7   8
ENDBRANCH   1   7
BRANCH   6  13
ATOM     13  N   LIG d   1      -4.333  77.635 117.581  0.00  0.00    -0.311 N 
ATOM     14  C   LIG d   1      -3.279  77.360 116.813  0.00  0.00     0.210 C 
ATOM     15  C   LIG d   1      -2.507  76.096 117.204  0.00  0.00     0.109 C 
ATOM     16  O   LIG d   1      -2.893  78.060 115.866  0.00  0.00    -0.276 OA
ATOM     17  H   LIG d   1      -4.555  77.031 118.348  0.00  0.00     0.149 HD
ENDBRANCH   6  13
BRANCH   5  18
ATOM     18  N   LIG d   1      -3.860  80.431 118.717  0.00  0.00     0.381 N 
ATOM     19  H   LIG d   1      -3.161  79.887 118.251  0.00  0.00    -0.090 HD
ATOM     20  H   LIG d   1      -3.642  80.451 119.697  0.00  0.00    -0.090 HD
ATOM     21  H   LIG d   1      -3.866  81.358 118.351  0.00  0.00    -0.090 HD
ENDBRANCH   5  18
BRANCH   3  22
ATOM     22  C   LIG d   1      -8.561  81.239 118.291  0.00  0.00     0.382 C 
ATOM     23  O   LIG d   1      -8.911  81.335 119.492  0.00  0.00    -0.241 OA
ATOM     24  O   LIG d   1      -9.227  81.816 117.410  0.00  0.00    -0.241 OA
ENDBRANCH   3  22
TORSDOF 7
ENDMDL
MODEL 8
REMARK VINA RESULT:      -4.6      2.377      4.927
REMARK  7 active torsions:
REMARK  status: ('A' for Active; 'I' for Inactive)
REMARK    1  A    between atoms: C_2  and  C_3 
REMARK    2  A    between atoms: C_3  and  O_6 
REMARK    3  A    between atoms: C_3  and  C_4 
REMARK    4  A    between atoms: C_7  and  O_6 
REMARK    5  A    between atoms: C_9  and  C_10 
REMARK    6  A    between atoms: N_15  and  C_14 
REMARK    7  A    between atoms: N_20  and  C_19 
REMARK       I    between atoms: C_22  and  N_20 
ROOT
ATOM      1  C   LIG d   1      -7.160  78.592 117.824  0.00  0.00     0.161 C 
ATOM      2  C   LIG d   1      -8.260  79.456 117.696  0.00  0.00     0.016 C 
ATOM      3  C   LIG d   1      -8.203  80.837 117.992  0.00  0.00     0.038 C 
ATOM      4  C   LIG d   1      -6.994  81.482 118.293  0.00  0.00     0.028 C 
ATOM      5  C   LIG d   1      -5.957  80.559 118.924  0.00  0.00    -0.047 C 
ATOM      6  C   LIG d   1      -5.806  79.297 118.044  0.00  0.00     0.091 C 
ENDROOT
BRANCH   1   7
ATOM      7  O   LIG d   1      -7.090  77.718 116.680  0.00  0.00    -0.368 OA
BRANCH   7   8
ATOM      8  C   LIG d   1      -7.400  76.323 116.923  0.00  0.00     0.119 C 
BRANCH   8   9
ATOM      9  C   LIG d   1      -6.371  75.478 116.147  0.00  0.00     0.028 C 
ATOM     10  C   LIG d   1      -6.088  76.041 114.744  0.00  0.00     0.006 C 
ENDBRANCH   8   9
BRANCH   8  11
ATOM     11  C   LIG d   1      -8.762  75.945 116.334  0.00  0.00     0.028 C 
ATOM     12  C   LIG d   1      -9.831  75.705 117.412  0.00  0.00     0.006 C 
ENDBRANCH   8  11
ENDBRANCH   7   8
ENDBRANCH   1   7
BRANCH   6  13
ATOM     13  N   LIG d   1      -4.871  78.303 118.634  0.00  0.00    -0.311 N 
ATOM     14  C   LIG d   1      -3.877  77.737 117.953  0.00  0.00     0.210 C 
ATOM     15  C   LIG d   1      -3.045  76.724 118.745  0.00  0.00     0.109 C 
ATOM     16  O   LIG d   1      -3.585  78.002 116.777  0.00  0.00    -0.276 OA
ATOM     17  H   LIG d   1      -5.017  78.054 119.593  0.00  0.00     0.149 HD
ENDBRANCH   6  13
BRANCH   5  18
ATOM     18  N   LIG d   1      -4.703  81.324 119.058  0.00  0.00     0.381 N 
ATOM     19  H   LIG d   1      -3.926  80.695 119.110  0.00  0.00    -0.090 HD
ATOM     20  H   LIG d   1      -4.735  81.855 119.911  0.00  0.00    -0.090 HD
ATOM     21  H   LIG d   1      -4.592  81.937 118.281  0.00  0.00    -0.090 HD
ENDBRANCH   5  18
BRANCH   3  22
ATOM     22  C   LIG d   1      -9.373  81.581 118.026  0.00  0.00     0.382 C 
ATOM     23  O   LIG d   1      -9.722  82.247 117.022  0.00  0.00    -0.241 OA
ATOM     24  O   LIG d   1     -10.059  81.631 119.064  0.00  0.00    -0.241 OA
ENDBRANCH   3  22
TORSDOF 7
ENDMDL
MODEL 9
REMARK VINA RESULT:      -4.6      2.277      4.679
REMARK  7 active torsions:
REMARK  status: ('A' for Active; 'I' for Inactive)
REMARK    1  A    between atoms: C_2  and  C_3 
REMARK    2  A    between atoms: C_3  and  O_6 
REMARK    3  A    between atoms: C_3  and  C_4 
REMARK    4  A    between atoms: C_7  and  O_6 
REMARK    5  A    between atoms: C_9  and  C_10 
REMARK    6  A    between atoms: N_15  and  C_14 
REMARK    7  A    between atoms: N_20  and  C_19 
REMARK       I    between atoms: C_22  and  N_20 
ROOT
ATOM      1  C   LIG d   1      -6.471  77.936 116.552  0.00  0.00     0.161 C 
ATOM      2  C   LIG d   1      -7.679  77.430 117.060  0.00  0.00     0.016 C 
ATOM      3  C   LIG d   1      -8.046  76.067 116.983  0.00  0.00     0.038 C 
ATOM      4  C   LIG d   1      -7.156  75.085 116.525  0.00  0.00     0.028 C 
ATOM      5  C   LIG d   1      -6.123  75.617 115.537  0.00  0.00    -0.047 C 
ATOM      6  C   LIG d   1      -5.440  76.862 116.148  0.00  0.00     0.091 C 
ENDROOT
BRANCH   1   7
ATOM      7  O   LIG d   1      -5.891  78.857 117.497  0.00  0.00    -0.368 OA
BRANCH   7   8
ATOM      8  C   LIG d   1      -6.824  79.685 118.234  0.00  0.00     0.119 C 
BRANCH   8   9
ATOM      9  C   LIG d   1      -6.969  81.015 117.468  0.00  0.00     0.028 C 
ATOM     10  C   LIG d   1      -8.432  81.477 117.366  0.00  0.00     0.006 C 
ENDBRANCH   8   9
BRANCH   8  11
ATOM     11  C   LIG d   1      -6.265  80.067 119.608  0.00  0.00     0.028 C 
ATOM     12  C   LIG d   1      -5.513  81.408 119.593  0.00  0.00     0.006 C 
ENDBRANCH   8  11
ENDBRANCH   7   8
ENDBRANCH   1   7
BRANCH   6  13
ATOM     13  N   LIG d   1      -4.474  77.495 115.212  0.00  0.00    -0.311 N 
ATOM     14  C   LIG d   1      -3.178  77.189 115.178  0.00  0.00     0.210 C 
ATOM     15  C   LIG d   1      -2.356  77.974 114.151  0.00  0.00     0.109 C 
ATOM     16  O   LIG d   1      -2.638  76.318 115.877  0.00  0.00    -0.276 OA
ATOM     17  H   LIG d   1      -4.833  78.191 114.588  0.00  0.00     0.149 HD
ENDBRANCH   6  13
BRANCH   5  18
ATOM     18  N   LIG d   1      -5.177  74.522 115.248  0.00  0.00     0.381 N 
ATOM     19  H   LIG d   1      -5.476  74.022 114.435  0.00  0.00    -0.090 HD
ATOM     20  H   LIG d   1      -5.169  73.885 116.025  0.00  0.00    -0.090 HD
ATOM     21  H   LIG d   1      -4.263  74.891 115.102  0.00  0.00    -0.090 HD
ENDBRANCH   5  18
BRANCH   3  22
ATOM     22  C   LIG d   1      -9.331  75.680 117.332  0.00  0.00     0.382 C 
ATOM     23  O   LIG d   1     -10.059  76.453 118.001  0.00  0.00    -0.241 OA
ATOM     24  O   LIG d   1      -9.756  74.550 117.023  0.00  0.00    -0.241 OA
ENDBRANCH   3  22
TORSDOF 7
ENDMDL
