MODEL 1
REMARK VINA RESULT:      -5.0      0.000      0.000
REMARK  7 active torsions:
REMARK  status: ('A' for Active; 'I' for Inactive)
REMARK    1  A    between atoms: C_2  and  C_3 
REMARK    2  A    between atoms: C_3  and  O_6 
REMARK    3  A    between atoms: C_3  and  C_4 
REMARK    4  A    between atoms: C_7  and  O_6 
REMARK    5  A    between atoms: C_9  and  C_10 
REMARK    6  A    between atoms: N_15  and  C_14 
REMARK    7  A    between atoms: N_20  and  C_19 
REMARK       I    between atoms: C_22  and  N_20 
ROOT
ATOM      1  C   LIG d   1      -3.141  77.747 115.932  0.00  0.00     0.161 C 
ATOM      2  C   LIG d   1      -3.337  78.555 114.799  0.00  0.00     0.016 C 
ATOM      3  C   LIG d   1      -2.392  78.672 113.754  0.00  0.00     0.038 C 
ATOM      4  C   LIG d   1      -1.244  77.867 113.699  0.00  0.00     0.028 C 
ATOM      5  C   LIG d   1      -0.760  77.408 115.070  0.00  0.00    -0.047 C 
ATOM      6  C   LIG d   1      -1.945  76.777 115.836  0.00  0.00     0.091 C 
ENDROOT
BRANCH   1   7
ATOM      7  O   LIG d   1      -4.351  77.023 116.231  0.00  0.00    -0.368 OA
BRANCH   7   8
ATOM      8  C   LIG d   1      -4.632  75.876 115.392  0.00  0.00     0.119 C 
BRANCH   8   9
ATOM      9  C   LIG d   1      -6.044  76.066 114.806  0.00  0.00     0.028 C 
ATOM     10  C   LIG d   1      -6.045  76.079 113.268  0.00  0.00     0.006 C 
ENDBRANCH   8   9
BRANCH   8  11
ATOM     11  C   LIG d   1      -4.704  74.587 116.216  0.00  0.00     0.028 C 
ATOM     12  C   LIG d   1      -6.145  74.180 116.560  0.00  0.00     0.006 C 
ENDBRANCH   8  11
ENDBRANCH   7   8
ENDBRANCH   1   7
BRANCH   6  13
ATOM     13  N   LIG d   1      -1.578  76.377 117.219  0.00  0.00    -0.311 N 
ATOM     14  C   LIG d   1      -1.246  75.133 117.559  0.00  0.00     0.210 C 
ATOM     15  C   LIG d   1      -0.922  74.933 119.043  0.00  0.00     0.109 C 
ATOM     16  O   LIG d   1      -1.159  74.183 116.767  0.00  0.00    -0.276 OA
ATOM     17  H   LIG d   1      -1.592  77.093 117.920  0.00  0.00     0.149 HD
ENDBRANCH   6  13
BRANCH   5  18
ATOM     18  N   LIG d   1       0.356  76.467 114.856  0.00  0.00     0.381 N 
ATOM     19  H   LIG d   1       1.175  76.971 114.578  0.00  0.00    -0.090 HD
ATOM     20  H   LIG d   1       0.110  75.833 114.117  0.00  0.00    -0.090 HD
ATOM     21  H   LIG d   1       0.539  75.959 115.693  0.00  0.00    -0.090 HD
ENDBRANCH   5  18
BRANCH   3  22
ATOM     22  C   LIG d   1      -2.571  79.631 112.769  0.00  0.00     0.382 C 
ATOM     23  O   LIG d   1      -1.857  79.613 111.738  0.00  0.00    -0.241 OA
ATOM     24  O   LIG d   1      -3.408  80.542 112.920  0.00  0.00    -0.241 OA
ENDBRANCH   3  22
TORSDOF 7
ENDMDL
MODEL 2
REMARK VINA RESULT:      -4.8      1.533      1.747
REMARK  7 active torsions:
REMARK  status: ('A' for Active; 'I' for Inactive)
REMARK    1  A    between atoms: C_2  and  C_3 
REMARK    2  A    between atoms: C_3  and  O_6 
REMARK    3  A    between atoms: C_3  and  C_4 
REMARK    4  A    between atoms: C_7  and  O_6 
REMARK    5  A    between atoms: C_9  and  C_10 
REMARK    6  A    between atoms: N_15  and  C_14 
REMARK    7  A    between atoms: N_20  and  C_19 
REMARK       I    between atoms: C_22  and  N_20 
ROOT
ATOM      1  C   LIG d   1      -3.407  76.509 115.387  0.00  0.00     0.161 C 
ATOM      2  C   LIG d   1      -3.687  76.936 114.078  0.00  0.00     0.016 C 
ATOM      3  C   LIG d   1      -2.706  77.452 113.201  0.00  0.00     0.038 C 
ATOM      4  C   LIG d   1      -1.341  77.436 113.523  0.00  0.00     0.028 C 
ATOM      5  C   LIG d   1      -1.072  77.482 115.024  0.00  0.00    -0.047 C 
ATOM      6  C   LIG d   1      -1.905  76.380 115.717  0.00  0.00     0.091 C 
ENDROOT
BRANCH   1   7
ATOM      7  O   LIG d   1      -4.086  75.266 115.652  0.00  0.00    -0.368 OA
BRANCH   7   8
ATOM      8  C   LIG d   1      -5.091  75.299 116.695  0.00  0.00     0.119 C 
BRANCH   8   9
ATOM      9  C   LIG d   1      -6.411  74.789 116.083  0.00  0.00     0.028 C 
ATOM     10  C   LIG d   1      -7.353  75.936 115.682  0.00  0.00     0.006 C 
ENDBRANCH   8   9
BRANCH   8  11
ATOM     11  C   LIG d   1      -5.380  76.734 117.146  0.00  0.00     0.028 C 
ATOM     12  C   LIG d   1      -5.139  76.946 118.648  0.00  0.00     0.006 C 
ENDBRANCH   8  11
ENDBRANCH   7   8
ENDBRANCH   1   7
BRANCH   6  13
ATOM     13  N   LIG d   1      -1.765  76.410 117.196  0.00  0.00    -0.311 N 
ATOM     14  C   LIG d   1      -1.535  75.325 117.933  0.00  0.00     0.210 C 
ATOM     15  C   LIG d   1      -1.445  75.575 119.442  0.00  0.00     0.109 C 
ATOM     16  O   LIG d   1      -1.364  74.184 117.478  0.00  0.00    -0.276 OA
ATOM     17  H   LIG d   1      -1.859  77.300 117.645  0.00  0.00     0.149 HD
ENDBRANCH   6  13
BRANCH   5  18
ATOM     18  N   LIG d   1       0.381  77.320 115.221  0.00  0.00     0.381 N 
ATOM     19  H   LIG d   1       0.593  76.359 115.402  0.00  0.00    -0.090 HD
ATOM     20  H   LIG d   1       0.662  77.861 116.020  0.00  0.00    -0.090 HD
ATOM     21  H   LIG d   1       0.872  77.629 114.411  0.00  0.00    -0.090 HD
ENDBRANCH   5  18
BRANCH   3  22
ATOM     22  C   LIG d   1      -3.093  78.029 112.001  0.00  0.00     0.382 C 
ATOM     23  O   LIG d   1      -2.418  78.966 111.509  0.00  0.00    -0.241 OA
ATOM     24  O   LIG d   1      -4.133  77.656 111.427  0.00  0.00    -0.241 OA
ENDBRANCH   3  22
TORSDOF 7
ENDMDL
MODEL 3
REMARK VINA RESULT:      -4.7      2.109      2.393
REMARK  7 active torsions:
REMARK  status: ('A' for Active; 'I' for Inactive)
REMARK    1  A    between atoms: C_2  and  C_3 
REMARK    2  A    between atoms: C_3  and  O_6 
REMARK    3  A    between atoms: C_3  and  C_4 
REMARK    4  A    between atoms: C_7  and  O_6 
REMARK    5  A    between atoms: C_9  and  C_10 
REMARK    6  A    between atoms: N_15  and  C_14 
REMARK    7  A    between atoms: N_20  and  C_19 
REMARK       I    between atoms: C_22  and  N_20 
ROOT
ATOM      1  C   LIG d   1      -2.575  77.104 114.189  0.00  0.00     0.161 C 
ATOM      2  C   LIG d   1      -2.718  77.164 112.793  0.00  0.00     0.016 C 
ATOM      3  C   LIG d   1      -1.911  77.974 111.961  0.00  0.00     0.038 C 
ATOM      4  C   LIG d   1      -0.798  78.669 112.459  0.00  0.00     0.028 C 
ATOM      5  C   LIG d   1      -0.922  79.036 113.933  0.00  0.00    -0.047 C 
ATOM      6  C   LIG d   1      -1.295  77.769 114.736  0.00  0.00     0.091 C 
ENDROOT
BRANCH   1   7
ATOM      7  O   LIG d   1      -2.656  75.734 114.629  0.00  0.00    -0.368 OA
BRANCH   7   8
ATOM      8  C   LIG d   1      -3.878  75.354 115.308  0.00  0.00     0.119 C 
BRANCH   8   9
ATOM      9  C   LIG d   1      -4.818  74.733 114.257  0.00  0.00     0.028 C 
ATOM     10  C   LIG d   1      -5.946  75.692 113.840  0.00  0.00     0.006 C 
ENDBRANCH   8   9
BRANCH   8  11
ATOM     11  C   LIG d   1      -4.622  76.581 115.844  0.00  0.00     0.028 C 
ATOM     12  C   LIG d   1      -4.696  76.610 117.379  0.00  0.00     0.006 C 
ENDBRANCH   8  11
ENDBRANCH   7   8
ENDBRANCH   1   7
BRANCH   6  13
ATOM     13  N   LIG d   1      -1.518  78.057 116.177  0.00  0.00    -0.311 N 
ATOM     14  C   LIG d   1      -0.917  77.389 117.160  0.00  0.00     0.210 C 
ATOM     15  C   LIG d   1      -1.304  77.832 118.575  0.00  0.00     0.109 C 
ATOM     16  O   LIG d   1      -0.075  76.493 116.995  0.00  0.00    -0.276 OA
ATOM     17  H   LIG d   1      -2.163  78.789 116.402  0.00  0.00     0.149 HD
ENDBRANCH   6  13
BRANCH   5  18
ATOM     18  N   LIG d   1       0.360  79.631 114.354  0.00  0.00     0.381 N 
ATOM     19  H   LIG d   1       0.197  80.523 114.777  0.00  0.00    -0.090 HD
ATOM     20  H   LIG d   1       0.937  79.767 113.543  0.00  0.00    -0.090 HD
ATOM     21  H   LIG d   1       0.820  79.029 115.001  0.00  0.00    -0.090 HD
ENDBRANCH   5  18
BRANCH   3  22
ATOM     22  C   LIG d   1      -2.238  78.127 110.623  0.00  0.00     0.382 C 
ATOM     23  O   LIG d   1      -3.281  77.598 110.168  0.00  0.00    -0.241 OA
ATOM     24  O   LIG d   1      -1.481  78.750 109.854  0.00  0.00    -0.241 OA
ENDBRANCH   3  22
TORSDOF 7
ENDMDL
MODEL 4
REMARK VINA RESULT:      -4.6      1.387      1.833
REMARK  7 active torsions:
REMARK  status: ('A' for Active; 'I' for Inactive)
REMARK    1  A    between atoms: C_2  and  C_3 
REMARK    2  A    between atoms: C_3  and  O_6 
REMARK    3  A    between atoms: C_3  and  C_4 
REMARK    4  A    between atoms: C_7  and  O_6 
REMARK    5  A    between atoms: C_9  and  C_10 
REMARK    6  A    between atoms: N_15  and  C_14 
REMARK    7  A    between atoms: N_20  and  C_19 
REMARK       I    between atoms: C_22  and  N_20 
ROOT
ATOM      1  C   LIG d   1      -3.056  77.917 116.056  0.00  0.00     0.161 C 
ATOM      2  C   LIG d   1      -3.291  78.680 114.900  0.00  0.00     0.016 C 
ATOM      3  C   LIG d   1      -2.381  78.759 113.821  0.00  0.00     0.038 C 
ATOM      4  C   LIG d   1      -1.233  77.954 113.759  0.00  0.00     0.028 C 
ATOM      5  C   LIG d   1      -0.703  77.549 115.130  0.00  0.00    -0.047 C 
ATOM      6  C   LIG d   1      -1.861  76.946 115.958  0.00  0.00     0.091 C 
ENDROOT
BRANCH   1   7
ATOM      7  O   LIG d   1      -4.253  77.203 116.422  0.00  0.00    -0.368 OA
BRANCH   7   8
ATOM      8  C   LIG d   1      -5.501  77.917 116.244  0.00  0.00     0.119 C 
BRANCH   8   9
ATOM      9  C   LIG d   1      -5.861  78.564 117.595  0.00  0.00     0.028 C 
ATOM     10  C   LIG d   1      -7.373  78.805 117.747  0.00  0.00     0.006 C 
ENDBRANCH   8   9
BRANCH   8  11
ATOM     11  C   LIG d   1      -6.653  76.957 115.934  0.00  0.00     0.028 C 
ATOM     12  C   LIG d   1      -6.393  76.097 114.687  0.00  0.00     0.006 C 
ENDBRANCH   8  11
ENDBRANCH   7   8
ENDBRANCH   1   7
BRANCH   6  13
ATOM     13  N   LIG d   1      -1.448  76.599 117.343  0.00  0.00    -0.311 N 
ATOM     14  C   LIG d   1      -1.512  75.366 117.840  0.00  0.00     0.210 C 
ATOM     15  C   LIG d   1      -1.056  75.231 119.296  0.00  0.00     0.109 C 
ATOM     16  O   LIG d   1      -1.873  74.364 117.204  0.00  0.00    -0.276 OA
ATOM     17  H   LIG d   1      -1.112  77.347 117.919  0.00  0.00     0.149 HD
ENDBRANCH   6  13
BRANCH   5  18
ATOM     18  N   LIG d   1       0.409  76.603 114.916  0.00  0.00     0.381 N 
ATOM     19  H   LIG d   1       1.278  77.098 114.908  0.00  0.00    -0.090 HD
ATOM     20  H   LIG d   1       0.290  76.159 114.023  0.00  0.00    -0.090 HD
ATOM     21  H   LIG d   1       0.416  75.916 115.638  0.00  0.00    -0.090 HD
ENDBRANCH   5  18
BRANCH   3  22
ATOM     22  C   LIG d   1      -2.595  79.680 112.807  0.00  0.00     0.382 C 
ATOM     23  O   LIG d   1      -1.959  79.585 111.730  0.00  0.00    -0.241 OA
ATOM     24  O   LIG d   1      -3.383  80.630 112.973  0.00  0.00    -0.241 OA
ENDBRANCH   3  22
TORSDOF 7
ENDMDL
MODEL 5
REMARK VINA RESULT:      -4.6      1.873      4.856
REMARK  7 active torsions:
REMARK  status: ('A' for Active; 'I' for Inactive)
REMARK    1  A    between atoms: C_2  and  C_3 
REMARK    2  A    between atoms: C_3  and  O_6 
REMARK    3  A    between atoms: C_3  and  C_4 
REMARK    4  A    between atoms: C_7  and  O_6 
REMARK    5  A    between atoms: C_9  and  C_10 
REMARK    6  A    between atoms: N_15  and  C_14 
REMARK    7  A    between atoms: N_20  and  C_19 
REMARK       I    between atoms: C_22  and  N_20 
ROOT
ATOM      1  C   LIG d   1      -1.825  75.877 114.660  0.00  0.00     0.161 C 
ATOM      2  C   LIG d   1      -1.654  75.496 116.001  0.00  0.00     0.016 C 
ATOM      3  C   LIG d   1      -0.989  76.296 116.959  0.00  0.00     0.038 C 
ATOM      4  C   LIG d   1      -0.581  77.608 116.674  0.00  0.00     0.028 C 
ATOM      5  C   LIG d   1      -0.283  77.842 115.197  0.00  0.00    -0.047 C 
ATOM      6  C   LIG d   1      -1.485  77.352 114.358  0.00  0.00     0.091 C 
ENDROOT
BRANCH   1   7
ATOM      7  O   LIG d   1      -3.169  75.576 114.235  0.00  0.00    -0.368 OA
BRANCH   7   8
ATOM      8  C   LIG d   1      -4.178  75.556 115.275  0.00  0.00     0.119 C 
BRANCH   8   9
ATOM      9  C   LIG d   1      -5.116  74.368 114.988  0.00  0.00     0.028 C 
ATOM     10  C   LIG d   1      -6.178  74.181 116.083  0.00  0.00     0.006 C 
ENDBRANCH   8   9
BRANCH   8  11
ATOM     11  C   LIG d   1      -5.068  76.800 115.211  0.00  0.00     0.028 C 
ATOM     12  C   LIG d   1      -4.699  77.852 116.269  0.00  0.00     0.006 C 
ENDBRANCH   8  11
ENDBRANCH   7   8
ENDBRANCH   1   7
BRANCH   6  13
ATOM     13  N   LIG d   1      -1.241  77.467 112.897  0.00  0.00    -0.311 N 
ATOM     14  C   LIG d   1      -2.122  77.988 112.045  0.00  0.00     0.210 C 
ATOM     15  C   LIG d   1      -1.680  77.993 110.579  0.00  0.00     0.109 C 
ATOM     16  O   LIG d   1      -3.215  78.477 112.369  0.00  0.00    -0.276 OA
ATOM     17  H   LIG d   1      -0.366  77.123 112.552  0.00  0.00     0.149 HD
ENDBRANCH   6  13
BRANCH   5  18
ATOM     18  N   LIG d   1      -0.003  79.280 115.021  0.00  0.00     0.381 N 
ATOM     19  H   LIG d   1      -0.838  79.809 115.177  0.00  0.00    -0.090 HD
ATOM     20  H   LIG d   1       0.299  79.439 114.076  0.00  0.00    -0.090 HD
ATOM     21  H   LIG d   1       0.706  79.570 115.658  0.00  0.00    -0.090 HD
ENDBRANCH   5  18
BRANCH   3  22
ATOM     22  C   LIG d   1      -0.692  75.770 118.207  0.00  0.00     0.382 C 
ATOM     23  O   LIG d   1      -1.125  74.638 118.529  0.00  0.00    -0.241 OA
ATOM     24  O   LIG d   1      -0.033  76.433 119.031  0.00  0.00    -0.241 OA
ENDBRANCH   3  22
TORSDOF 7
ENDMDL
MODEL 6
REMARK VINA RESULT:      -4.4      2.624      4.510
REMARK  7 active torsions:
REMARK  status: ('A' for Active; 'I' for Inactive)
REMARK    1  A    between atoms: C_2  and  C_3 
REMARK    2  A    between atoms: C_3  and  O_6 
REMARK    3  A    between atoms: C_3  and  C_4 
REMARK    4  A    between atoms: C_7  and  O_6 
REMARK    5  A    between atoms: C_9  and  C_10 
REMARK    6  A    between atoms: N_15  and  C_14 
REMARK    7  A    between atoms: N_20  and  C_19 
REMARK       I    between atoms: C_22  and  N_20 
ROOT
ATOM      1  C   LIG d   1      -2.857  77.316 116.412  0.00  0.00     0.161 C 
ATOM      2  C   LIG d   1      -3.624  76.411 115.660  0.00  0.00     0.016 C 
ATOM      3  C   LIG d   1      -3.905  76.584 114.286  0.00  0.00     0.038 C 
ATOM      4  C   LIG d   1      -3.307  77.602 113.529  0.00  0.00     0.028 C 
ATOM      5  C   LIG d   1      -2.930  78.828 114.354  0.00  0.00    -0.047 C 
ATOM      6  C   LIG d   1      -2.104  78.374 115.579  0.00  0.00     0.091 C 
ENDROOT
BRANCH   1   7
ATOM      7  O   LIG d   1      -1.936  76.594 117.254  0.00  0.00    -0.368 OA
BRANCH   7   8
ATOM      8  C   LIG d   1      -1.430  75.345 116.722  0.00  0.00     0.119 C 
BRANCH   8   9
ATOM      9  C   LIG d   1      -1.322  74.351 117.894  0.00  0.00     0.028 C 
ATOM     10  C   LIG d   1      -1.045  75.053 119.235  0.00  0.00     0.006 C 
ENDBRANCH   8   9
BRANCH   8  11
ATOM     11  C   LIG d   1      -0.002  75.504 116.191  0.00  0.00     0.028 C 
ATOM     12  C   LIG d   1       0.104  75.245 114.680  0.00  0.00     0.006 C 
ENDBRANCH   8  11
ENDBRANCH   7   8
ENDBRANCH   1   7
BRANCH   6  13
ATOM     13  N   LIG d   1      -1.765  79.502 116.485  0.00  0.00    -0.311 N 
ATOM     14  C   LIG d   1      -0.552  79.691 116.999  0.00  0.00     0.210 C 
ATOM     15  C   LIG d   1      -0.423  80.904 117.925  0.00  0.00     0.109 C 
ATOM     16  O   LIG d   1       0.439  78.987 116.751  0.00  0.00    -0.276 OA
ATOM     17  H   LIG d   1      -2.503  80.140 116.714  0.00  0.00     0.149 HD
ENDBRANCH   6  13
BRANCH   5  18
ATOM     18  N   LIG d   1      -2.194  79.752 113.470  0.00  0.00     0.381 N 
ATOM     19  H   LIG d   1      -1.333  79.331 113.184  0.00  0.00    -0.090 HD
ATOM     20  H   LIG d   1      -1.982  80.590 113.981  0.00  0.00    -0.090 HD
ATOM     21  H   LIG d   1      -2.747  79.972 112.671  0.00  0.00    -0.090 HD
ENDBRANCH   5  18
BRANCH   3  22
ATOM     22  C   LIG d   1      -4.825  75.754 113.663  0.00  0.00     0.382 C 
ATOM     23  O   LIG d   1      -4.734  74.509 113.789  0.00  0.00    -0.241 OA
ATOM     24  O   LIG d   1      -5.720  76.233 112.940  0.00  0.00    -0.241 OA
ENDBRANCH   3  22
TORSDOF 7
ENDMDL
MODEL 7
REMARK VINA RESULT:      -4.3      2.216      2.723
REMARK  7 active torsions:
REMARK  status: ('A' for Active; 'I' for Inactive)
REMARK    1  A    between atoms: C_2  and  C_3 
REMARK    2  A    between atoms: C_3  and  O_6 
REMARK    3  A    between atoms: C_3  and  C_4 
REMARK    4  A    between atoms: C_7  and  O_6 
REMARK    5  A    between atoms: C_9  and  C_10 
REMARK    6  A    between atoms: N_15  and  C_14 
REMARK    7  A    between atoms: N_20  and  C_19 
REMARK       I    between atoms: C_22  and  N_20 
ROOT
ATOM      1  C   LIG d   1      -3.239  77.639 115.732  0.00  0.00     0.161 C 
ATOM      2  C   LIG d   1      -3.439  77.367 114.368  0.00  0.00     0.016 C 
ATOM      3  C   LIG d   1      -2.504  77.704 113.362  0.00  0.00     0.038 C 
ATOM      4  C   LIG d   1      -1.230  78.204 113.671  0.00  0.00     0.028 C 
ATOM      5  C   LIG d   1      -1.181  78.962 114.993  0.00  0.00    -0.047 C 
ATOM      6  C   LIG d   1      -1.807  78.083 116.099  0.00  0.00     0.091 C 
ENDROOT
BRANCH   1   7
ATOM      7  O   LIG d   1      -3.627  76.497 116.520  0.00  0.00    -0.368 OA
BRANCH   7   8
ATOM      8  C   LIG d   1      -3.181  75.206 116.035  0.00  0.00     0.119 C 
BRANCH   8   9
ATOM      9  C   LIG d   1      -4.368  74.231 116.154  0.00  0.00     0.028 C 
ATOM     10  C   LIG d   1      -5.425  74.459 115.060  0.00  0.00     0.006 C 
ENDBRANCH   8   9
BRANCH   8  11
ATOM     11  C   LIG d   1      -2.086  74.622 116.933  0.00  0.00     0.028 C 
ATOM     12  C   LIG d   1      -0.725  74.524 116.226  0.00  0.00     0.006 C 
ENDBRANCH   8  11
ENDBRANCH   7   8
ENDBRANCH   1   7
BRANCH   6  13
ATOM     13  N   LIG d   1      -1.876  78.783 117.409  0.00  0.00    -0.311 N 
ATOM     14  C   LIG d   1      -0.961  78.639 118.366  0.00  0.00     0.210 C 
ATOM     15  C   LIG d   1      -1.233  79.436 119.646  0.00  0.00     0.109 C 
ATOM     16  O   LIG d   1       0.067  77.952 118.264  0.00  0.00    -0.276 OA
ATOM     17  H   LIG d   1      -2.661  79.385 117.564  0.00  0.00     0.149 HD
ENDBRANCH   6  13
BRANCH   5  18
ATOM     18  N   LIG d   1       0.228  79.308 115.257  0.00  0.00     0.381 N 
ATOM     19  H   LIG d   1       0.706  78.515 115.636  0.00  0.00    -0.090 HD
ATOM     20  H   LIG d   1       0.260  80.049 115.935  0.00  0.00    -0.090 HD
ATOM     21  H   LIG d   1       0.671  79.600 114.414  0.00  0.00    -0.090 HD
ENDBRANCH   5  18
BRANCH   3  22
ATOM     22  C   LIG d   1      -2.857  77.578 112.027  0.00  0.00     0.382 C 
ATOM     23  O   LIG d   1      -1.990  77.262 111.177  0.00  0.00    -0.241 OA
ATOM     24  O   LIG d   1      -4.020  77.821 111.655  0.00  0.00    -0.241 OA
ENDBRANCH   3  22
TORSDOF 7
ENDMDL
MODEL 8
REMARK VINA RESULT:      -4.3      3.863      5.889
REMARK  7 active torsions:
REMARK  status: ('A' for Active; 'I' for Inactive)
REMARK    1  A    between atoms: C_2  and  C_3 
REMARK    2  A    between atoms: C_3  and  O_6 
REMARK    3  A    between atoms: C_3  and  C_4 
REMARK    4  A    between atoms: C_7  and  O_6 
REMARK    5  A    between atoms: C_9  and  C_10 
REMARK    6  A    between atoms: N_15  and  C_14 
REMARK    7  A    between atoms: N_20  and  C_19 
REMARK       I    between atoms: C_22  and  N_20 
ROOT
ATOM      1  C   LIG d   1      -6.167  77.979 117.060  0.00  0.00     0.161 C 
ATOM      2  C   LIG d   1      -7.545  78.102 117.302  0.00  0.00     0.016 C 
ATOM      3  C   LIG d   1      -8.110  79.143 118.073  0.00  0.00     0.038 C 
ATOM      4  C   LIG d   1      -7.344  80.225 118.533  0.00  0.00     0.028 C 
ATOM      5  C   LIG d   1      -5.873  79.880 118.742  0.00  0.00    -0.047 C 
ATOM      6  C   LIG d   1      -5.328  79.210 117.460  0.00  0.00     0.091 C 
ENDROOT
BRANCH   1   7
ATOM      7  O   LIG d   1      -5.941  77.647 115.676  0.00  0.00    -0.368 OA
BRANCH   7   8
ATOM      8  C   LIG d   1      -6.167  76.264 115.307  0.00  0.00     0.119 C 
BRANCH   8   9
ATOM      9  C   LIG d   1      -5.472  75.383 116.363  0.00  0.00     0.028 C 
ATOM     10  C   LIG d   1      -6.332  74.180 116.783  0.00  0.00     0.006 C 
ENDBRANCH   8   9
BRANCH   8  11
ATOM     11  C   LIG d   1      -5.482  75.922 113.980  0.00  0.00     0.028 C 
ATOM     12  C   LIG d   1      -4.035  76.434 113.907  0.00  0.00     0.006 C 
ENDBRANCH   8  11
ENDBRANCH   7   8
ENDBRANCH   1   7
BRANCH   6  13
ATOM     13  N   LIG d   1      -3.918  78.765 117.610  0.00  0.00    -0.311 N 
ATOM     14  C   LIG d   1      -3.005  78.886 116.648  0.00  0.00     0.210 C 
ATOM     15  C   LIG d   1      -1.616  78.344 117.002  0.00  0.00     0.109 C 
ATOM     16  O   LIG d   1      -3.204  79.420 115.546  0.00  0.00    -0.276 OA
ATOM     17  H   LIG d   1      -3.661  78.348 118.484  0.00  0.00     0.149 HD
ENDBRANCH   6  13
BRANCH   5  18
ATOM     18  N   LIG d   1      -5.168  81.128 119.088  0.00  0.00     0.381 N 
ATOM     19  H   LIG d   1      -4.688  81.480 118.284  0.00  0.00    -0.090 HD
ATOM     20  H   LIG d   1      -4.487  80.930 119.800  0.00  0.00    -0.090 HD
ATOM     21  H   LIG d   1      -5.818  81.807 119.419  0.00  0.00    -0.090 HD
ENDBRANCH   5  18
BRANCH   3  22
ATOM     22  C   LIG d   1      -9.450  79.088 118.426  0.00  0.00     0.382 C 
ATOM     23  O   LIG d   1     -10.060  80.139 118.739  0.00  0.00    -0.241 OA
ATOM     24  O   LIG d   1     -10.045  77.995 118.479  0.00  0.00    -0.241 OA
ENDBRANCH   3  22
TORSDOF 7
ENDMDL
MODEL 9
REMARK VINA RESULT:      -4.3      3.369      4.638
REMARK  7 active torsions:
REMARK  status: ('A' for Active; 'I' for Inactive)
REMARK    1  A    between atoms: C_2  and  C_3 
REMARK    2  A    between atoms: C_3  and  O_6 
REMARK    3  A    between atoms: C_3  and  C_4 
REMARK    4  A    between atoms: C_7  and  O_6 
REMARK    5  A    between atoms: C_9  and  C_10 
REMARK    6  A    between atoms: N_15  and  C_14 
REMARK    7  A    between atoms: N_20  and  C_19 
REMARK       I    between atoms: C_22  and  N_20 
ROOT
ATOM      1  C   LIG d   1      -3.454  78.800 116.281  0.00  0.00     0.161 C 
ATOM      2  C   LIG d   1      -4.157  77.839 115.536  0.00  0.00     0.016 C 
ATOM      3  C   LIG d   1      -3.526  76.882 114.708  0.00  0.00     0.038 C 
ATOM      4  C   LIG d   1      -2.132  76.723 114.688  0.00  0.00     0.028 C 
ATOM      5  C   LIG d   1      -1.372  77.998 115.036  0.00  0.00    -0.047 C 
ATOM      6  C   LIG d   1      -1.930  78.571 116.359  0.00  0.00     0.091 C 
ENDROOT
BRANCH   1   7
ATOM      7  O   LIG d   1      -4.014  78.896 117.606  0.00  0.00    -0.368 OA
BRANCH   7   8
ATOM      8  C   LIG d   1      -4.800  80.082 117.881  0.00  0.00     0.119 C 
BRANCH   8   9
ATOM      9  C   LIG d   1      -4.690  80.370 119.391  0.00  0.00     0.028 C 
ATOM     10  C   LIG d   1      -3.892  81.651 119.686  0.00  0.00     0.006 C 
ENDBRANCH   8   9
BRANCH   8  11
ATOM     11  C   LIG d   1      -6.290  79.835 117.623  0.00  0.00     0.028 C 
ATOM     12  C   LIG d   1      -7.098  81.137 117.508  0.00  0.00     0.006 C 
ENDBRANCH   8  11
ENDBRANCH   7   8
ENDBRANCH   1   7
BRANCH   6  13
ATOM     13  N   LIG d   1      -1.299  79.865 116.728  0.00  0.00    -0.311 N 
ATOM     14  C   LIG d   1      -0.915  80.166 117.967  0.00  0.00     0.210 C 
ATOM     15  C   LIG d   1      -0.304  81.561 118.133  0.00  0.00     0.109 C 
ATOM     16  O   LIG d   1      -0.993  79.399 118.938  0.00  0.00    -0.276 OA
ATOM     17  H   LIG d   1      -1.169  80.534 115.995  0.00  0.00     0.149 HD
ENDBRANCH   6  13
BRANCH   5  18
ATOM     18  N   LIG d   1       0.061  77.656 115.113  0.00  0.00     0.381 N 
ATOM     19  H   LIG d   1       0.459  77.657 114.195  0.00  0.00    -0.090 HD
ATOM     20  H   LIG d   1       0.155  76.732 115.496  0.00  0.00    -0.090 HD
ATOM     21  H   LIG d   1       0.538  78.313 115.690  0.00  0.00    -0.090 HD
ENDBRANCH   5  18
BRANCH   3  22
ATOM     22  C   LIG d   1      -4.290  76.097 113.859  0.00  0.00     0.382 C 
ATOM     23  O   LIG d   1      -4.232  74.846 113.938  0.00  0.00    -0.241 OA
ATOM     24  O   LIG d   1      -5.004  76.623 112.984  0.00  0.00    -0.241 OA
ENDBRANCH   3  22
TORSDOF 7
ENDMDL
