MODEL 1
REMARK VINA RESULT:      -5.3      0.000      0.000
REMARK  7 active torsions:
REMARK  status: ('A' for Active; 'I' for Inactive)
REMARK    1  A    between atoms: C_2  and  C_3 
REMARK    2  A    between atoms: C_3  and  O_6 
REMARK    3  A    between atoms: C_3  and  C_4 
REMARK    4  A    between atoms: C_7  and  O_6 
REMARK    5  A    between atoms: C_9  and  C_10 
REMARK    6  A    between atoms: N_15  and  C_14 
REMARK    7  A    between atoms: N_20  and  C_19 
REMARK       I    between atoms: C_22  and  N_20 
ROOT
ATOM      1  C   LIG d   1      -2.117  78.448 115.622  0.00  0.00     0.161 C 
ATOM      2  C   LIG d   1      -2.518  79.576 114.887  0.00  0.00     0.016 C 
ATOM      3  C   LIG d   1      -2.239  79.747 113.511  0.00  0.00     0.038 C 
ATOM      4  C   LIG d   1      -1.669  78.725 112.738  0.00  0.00     0.028 C 
ATOM      5  C   LIG d   1      -0.793  77.772 113.544  0.00  0.00    -0.047 C 
ATOM      6  C   LIG d   1      -1.591  77.274 114.771  0.00  0.00     0.091 C 
ENDROOT
BRANCH   1   7
ATOM      7  O   LIG d   1      -3.197  78.009 116.470  0.00  0.00    -0.368 OA
BRANCH   7   8
ATOM      8  C   LIG d   1      -4.491  77.870 115.833  0.00  0.00     0.119 C 
BRANCH   8   9
ATOM      9  C   LIG d   1      -5.554  78.363 116.834  0.00  0.00     0.028 C 
ATOM     10  C   LIG d   1      -6.605  77.286 117.151  0.00  0.00     0.006 C 
ENDBRANCH   8   9
BRANCH   8  11
ATOM     11  C   LIG d   1      -4.829  76.400 115.573  0.00  0.00     0.028 C 
ATOM     12  C   LIG d   1      -4.970  76.076 114.077  0.00  0.00     0.006 C 
ENDBRANCH   8  11
ENDBRANCH   7   8
ENDBRANCH   1   7
BRANCH   6  13
ATOM     13  N   LIG d   1      -0.779  76.402 115.659  0.00  0.00    -0.311 N 
ATOM     14  C   LIG d   1      -0.650  75.089 115.479  0.00  0.00     0.210 C 
ATOM     15  C   LIG d   1       0.216  74.375 116.522  0.00  0.00     0.109 C 
ATOM     16  O   LIG d   1      -1.145  74.452 114.537  0.00  0.00    -0.276 OA
ATOM     17  H   LIG d   1      -0.318  76.842 116.432  0.00  0.00     0.149 HD
ENDBRANCH   6  13
BRANCH   5  18
ATOM     18  N   LIG d   1      -0.376  76.680 112.644  0.00  0.00     0.381 N 
ATOM     19  H   LIG d   1      -0.633  76.901 111.702  0.00  0.00    -0.090 HD
ATOM     20  H   LIG d   1      -0.853  75.837 112.912  0.00  0.00    -0.090 HD
ATOM     21  H   LIG d   1       0.609  76.547 112.704  0.00  0.00    -0.090 HD
ENDBRANCH   5  18
BRANCH   3  22
ATOM     22  C   LIG d   1      -2.497  80.967 112.904  0.00  0.00     0.382 C 
ATOM     23  O   LIG d   1      -3.671  81.406 112.853  0.00  0.00    -0.241 OA
ATOM     24  O   LIG d   1      -1.576  81.612 112.368  0.00  0.00    -0.241 OA
ENDBRANCH   3  22
TORSDOF 7
ENDMDL
MODEL 2
REMARK VINA RESULT:      -5.1      3.482      6.395
REMARK  7 active torsions:
REMARK  status: ('A' for Active; 'I' for Inactive)
REMARK    1  A    between atoms: C_2  and  C_3 
REMARK    2  A    between atoms: C_3  and  O_6 
REMARK    3  A    between atoms: C_3  and  C_4 
REMARK    4  A    between atoms: C_7  and  O_6 
REMARK    5  A    between atoms: C_9  and  C_10 
REMARK    6  A    between atoms: N_15  and  C_14 
REMARK    7  A    between atoms: N_20  and  C_19 
REMARK       I    between atoms: C_22  and  N_20 
ROOT
ATOM      1  C   LIG d   1      -5.996  77.621 117.116  0.00  0.00     0.161 C 
ATOM      2  C   LIG d   1      -7.347  77.366 117.404  0.00  0.00     0.016 C 
ATOM      3  C   LIG d   1      -8.200  78.303 118.031  0.00  0.00     0.038 C 
ATOM      4  C   LIG d   1      -7.796  79.624 118.279  0.00  0.00     0.028 C 
ATOM      5  C   LIG d   1      -6.289  79.771 118.466  0.00  0.00    -0.047 C 
ATOM      6  C   LIG d   1      -5.568  79.095 117.278  0.00  0.00     0.091 C 
ENDROOT
BRANCH   1   7
ATOM      7  O   LIG d   1      -5.681  77.151 115.791  0.00  0.00    -0.368 OA
BRANCH   7   8
ATOM      8  C   LIG d   1      -5.419  75.731 115.664  0.00  0.00     0.119 C 
BRANCH   8   9
ATOM      9  C   LIG d   1      -4.001  75.472 116.210  0.00  0.00     0.028 C 
ATOM     10  C   LIG d   1      -2.904  75.903 115.222  0.00  0.00     0.006 C 
ENDBRANCH   8   9
BRANCH   8  11
ATOM     11  C   LIG d   1      -5.372  75.302 114.194  0.00  0.00     0.028 C 
ATOM     12  C   LIG d   1      -5.969  76.355 113.247  0.00  0.00     0.006 C 
ENDBRANCH   8  11
ENDBRANCH   7   8
ENDBRANCH   1   7
BRANCH   6  13
ATOM     13  N   LIG d   1      -4.089  79.120 117.424  0.00  0.00    -0.311 N 
ATOM     14  C   LIG d   1      -3.261  79.483 116.446  0.00  0.00     0.210 C 
ATOM     15  C   LIG d   1      -1.773  79.418 116.801  0.00  0.00     0.109 C 
ATOM     16  O   LIG d   1      -3.620  79.883 115.328  0.00  0.00    -0.276 OA
ATOM     17  H   LIG d   1      -3.713  78.840 118.309  0.00  0.00     0.149 HD
ENDBRANCH   6  13
BRANCH   5  18
ATOM     18  N   LIG d   1      -5.993  81.212 118.578  0.00  0.00     0.381 N 
ATOM     19  H   LIG d   1      -5.088  81.402 118.196  0.00  0.00    -0.090 HD
ATOM     20  H   LIG d   1      -5.986  81.468 119.549  0.00  0.00    -0.090 HD
ATOM     21  H   LIG d   1      -6.684  81.741 118.093  0.00  0.00    -0.090 HD
ENDBRANCH   5  18
BRANCH   3  22
ATOM     22  C   LIG d   1      -9.460  77.910 118.455  0.00  0.00     0.382 C 
ATOM     23  O   LIG d   1     -10.024  76.927 117.916  0.00  0.00    -0.241 OA
ATOM     24  O   LIG d   1     -10.059  78.552 119.338  0.00  0.00    -0.241 OA
ENDBRANCH   3  22
TORSDOF 7
ENDMDL
MODEL 3
REMARK VINA RESULT:      -5.1      1.594      2.192
REMARK  7 active torsions:
REMARK  status: ('A' for Active; 'I' for Inactive)
REMARK    1  A    between atoms: C_2  and  C_3 
REMARK    2  A    between atoms: C_3  and  O_6 
REMARK    3  A    between atoms: C_3  and  C_4 
REMARK    4  A    between atoms: C_7  and  O_6 
REMARK    5  A    between atoms: C_9  and  C_10 
REMARK    6  A    between atoms: N_15  and  C_14 
REMARK    7  A    between atoms: N_20  and  C_19 
REMARK       I    between atoms: C_22  and  N_20 
ROOT
ATOM      1  C   LIG d   1      -2.773  78.454 115.881  0.00  0.00     0.161 C 
ATOM      2  C   LIG d   1      -2.941  79.520 114.982  0.00  0.00     0.016 C 
ATOM      3  C   LIG d   1      -2.274  79.601 113.737  0.00  0.00     0.038 C 
ATOM      4  C   LIG d   1      -1.506  78.539 113.238  0.00  0.00     0.028 C 
ATOM      5  C   LIG d   1      -0.904  77.661 114.330  0.00  0.00    -0.047 C 
ATOM      6  C   LIG d   1      -2.025  77.234 115.305  0.00  0.00     0.091 C 
ENDROOT
BRANCH   1   7
ATOM      7  O   LIG d   1      -4.054  78.054 116.408  0.00  0.00    -0.368 OA
BRANCH   7   8
ATOM      8  C   LIG d   1      -4.460  78.687 117.646  0.00  0.00     0.119 C 
BRANCH   8   9
ATOM      9  C   LIG d   1      -4.750  77.567 118.665  0.00  0.00     0.028 C 
ATOM     10  C   LIG d   1      -3.559  77.304 119.602  0.00  0.00     0.006 C 
ENDBRANCH   8   9
BRANCH   8  11
ATOM     11  C   LIG d   1      -5.785  79.437 117.480  0.00  0.00     0.028 C 
ATOM     12  C   LIG d   1      -5.667  80.934 117.806  0.00  0.00     0.006 C 
ENDBRANCH   8  11
ENDBRANCH   7   8
ENDBRANCH   1   7
BRANCH   6  13
ATOM     13  N   LIG d   1      -1.508  76.441 116.451  0.00  0.00    -0.311 N 
ATOM     14  C   LIG d   1      -2.027  75.274 116.828  0.00  0.00     0.210 C 
ATOM     15  C   LIG d   1      -1.356  74.632 118.047  0.00  0.00     0.109 C 
ATOM     16  O   LIG d   1      -2.957  74.693 116.249  0.00  0.00    -0.276 OA
ATOM     17  H   LIG d   1      -0.734  76.823 116.957  0.00  0.00     0.149 HD
ENDBRANCH   6  13
BRANCH   5  18
ATOM     18  N   LIG d   1      -0.245  76.518 113.670  0.00  0.00     0.381 N 
ATOM     19  H   LIG d   1       0.186  75.933 114.357  0.00  0.00    -0.090 HD
ATOM     20  H   LIG d   1       0.471  76.866 113.057  0.00  0.00    -0.090 HD
ATOM     21  H   LIG d   1      -0.913  75.994 113.149  0.00  0.00    -0.090 HD
ENDBRANCH   5  18
BRANCH   3  22
ATOM     22  C   LIG d   1      -2.342  80.771 112.996  0.00  0.00     0.382 C 
ATOM     23  O   LIG d   1      -3.432  81.382 112.887  0.00  0.00    -0.241 OA
ATOM     24  O   LIG d   1      -1.337  81.199 112.399  0.00  0.00    -0.241 OA
ENDBRANCH   3  22
TORSDOF 7
ENDMDL
MODEL 4
REMARK VINA RESULT:      -5.0      3.599      5.760
REMARK  7 active torsions:
REMARK  status: ('A' for Active; 'I' for Inactive)
REMARK    1  A    between atoms: C_2  and  C_3 
REMARK    2  A    between atoms: C_3  and  O_6 
REMARK    3  A    between atoms: C_3  and  C_4 
REMARK    4  A    between atoms: C_7  and  O_6 
REMARK    5  A    between atoms: C_9  and  C_10 
REMARK    6  A    between atoms: N_15  and  C_14 
REMARK    7  A    between atoms: N_20  and  C_19 
REMARK       I    between atoms: C_22  and  N_20 
ROOT
ATOM      1  C   LIG d   1      -6.454  77.432 116.962  0.00  0.00     0.161 C 
ATOM      2  C   LIG d   1      -6.198  76.780 115.744  0.00  0.00     0.016 C 
ATOM      3  C   LIG d   1      -4.906  76.660 115.182  0.00  0.00     0.038 C 
ATOM      4  C   LIG d   1      -3.755  77.056 115.879  0.00  0.00     0.028 C 
ATOM      5  C   LIG d   1      -4.009  78.172 116.885  0.00  0.00    -0.047 C 
ATOM      6  C   LIG d   1      -5.197  77.771 117.790  0.00  0.00     0.091 C 
ENDROOT
BRANCH   1   7
ATOM      7  O   LIG d   1      -7.376  76.653 117.749  0.00  0.00    -0.368 OA
BRANCH   7   8
ATOM      8  C   LIG d   1      -8.764  77.067 117.700  0.00  0.00     0.119 C 
BRANCH   8   9
ATOM      9  C   LIG d   1      -9.076  77.799 119.019  0.00  0.00     0.028 C 
ATOM     10  C   LIG d   1      -9.551  79.244 118.791  0.00  0.00     0.006 C 
ENDBRANCH   8   9
BRANCH   8  11
ATOM     11  C   LIG d   1      -9.705  75.859 117.673  0.00  0.00     0.028 C 
ATOM     12  C   LIG d   1      -8.956  74.521 117.572  0.00  0.00     0.006 C 
ENDBRANCH   8  11
ENDBRANCH   7   8
ENDBRANCH   1   7
BRANCH   6  13
ATOM     13  N   LIG d   1      -5.566  78.845 118.749  0.00  0.00    -0.311 N 
ATOM     14  C   LIG d   1      -6.000  80.047 118.373  0.00  0.00     0.210 C 
ATOM     15  C   LIG d   1      -6.307  81.012 119.522  0.00  0.00     0.109 C 
ATOM     16  O   LIG d   1      -6.190  80.394 117.197  0.00  0.00    -0.276 OA
ATOM     17  H   LIG d   1      -5.472  78.638 119.724  0.00  0.00     0.149 HD
ENDBRANCH   6  13
BRANCH   5  18
ATOM     18  N   LIG d   1      -2.758  78.390 117.636  0.00  0.00     0.381 N 
ATOM     19  H   LIG d   1      -2.929  78.290 118.616  0.00  0.00    -0.090 HD
ATOM     20  H   LIG d   1      -2.436  79.326 117.466  0.00  0.00    -0.090 HD
ATOM     21  H   LIG d   1      -2.067  77.735 117.343  0.00  0.00    -0.090 HD
ENDBRANCH   5  18
BRANCH   3  22
ATOM     22  C   LIG d   1      -4.761  76.176 113.891  0.00  0.00     0.382 C 
ATOM     23  O   LIG d   1      -4.233  76.894 113.008  0.00  0.00    -0.241 OA
ATOM     24  O   LIG d   1      -5.192  75.047 113.587  0.00  0.00    -0.241 OA
ENDBRANCH   3  22
TORSDOF 7
ENDMDL
MODEL 5
REMARK VINA RESULT:      -4.9      3.469      6.745
REMARK  7 active torsions:
REMARK  status: ('A' for Active; 'I' for Inactive)
REMARK    1  A    between atoms: C_2  and  C_3 
REMARK    2  A    between atoms: C_3  and  O_6 
REMARK    3  A    between atoms: C_3  and  C_4 
REMARK    4  A    between atoms: C_7  and  O_6 
REMARK    5  A    between atoms: C_9  and  C_10 
REMARK    6  A    between atoms: N_15  and  C_14 
REMARK    7  A    between atoms: N_20  and  C_19 
REMARK       I    between atoms: C_22  and  N_20 
ROOT
ATOM      1  C   LIG d   1      -4.399  79.020 116.824  0.00  0.00     0.161 C 
ATOM      2  C   LIG d   1      -4.245  77.715 116.327  0.00  0.00     0.016 C 
ATOM      3  C   LIG d   1      -5.268  76.739 116.373  0.00  0.00     0.038 C 
ATOM      4  C   LIG d   1      -6.572  77.051 116.784  0.00  0.00     0.028 C 
ATOM      5  C   LIG d   1      -6.636  78.217 117.764  0.00  0.00    -0.047 C 
ATOM      6  C   LIG d   1      -5.850  79.411 117.175  0.00  0.00     0.091 C 
ENDROOT
BRANCH   1   7
ATOM      7  O   LIG d   1      -3.836  79.966 115.894  0.00  0.00    -0.368 OA
BRANCH   7   8
ATOM      8  C   LIG d   1      -2.601  79.568 115.249  0.00  0.00     0.119 C 
BRANCH   8   9
ATOM      9  C   LIG d   1      -1.438  80.074 116.123  0.00  0.00     0.028 C 
ATOM     10  C   LIG d   1      -0.064  79.654 115.573  0.00  0.00     0.006 C 
ENDBRANCH   8   9
BRANCH   8  11
ATOM     11  C   LIG d   1      -2.428  80.268 113.898  0.00  0.00     0.028 C 
ATOM     12  C   LIG d   1      -2.473  79.292 112.711  0.00  0.00     0.006 C 
ENDBRANCH   8  11
ENDBRANCH   7   8
ENDBRANCH   1   7
BRANCH   6  13
ATOM     13  N   LIG d   1      -5.791  80.567 118.108  0.00  0.00    -0.311 N 
ATOM     14  C   LIG d   1      -6.597  81.623 118.018  0.00  0.00     0.210 C 
ATOM     15  C   LIG d   1      -6.354  82.712 119.068  0.00  0.00     0.109 C 
ATOM     16  O   LIG d   1      -7.510  81.747 117.189  0.00  0.00    -0.276 OA
ATOM     17  H   LIG d   1      -5.099  80.534 118.831  0.00  0.00     0.149 HD
ENDBRANCH   6  13
BRANCH   5  18
ATOM     18  N   LIG d   1      -8.059  78.523 118.002  0.00  0.00     0.381 N 
ATOM     19  H   LIG d   1      -8.215  79.507 117.908  0.00  0.00    -0.090 HD
ATOM     20  H   LIG d   1      -8.297  78.254 118.940  0.00  0.00    -0.090 HD
ATOM     21  H   LIG d   1      -8.628  78.026 117.352  0.00  0.00    -0.090 HD
ENDBRANCH   5  18
BRANCH   3  22
ATOM     22  C   LIG d   1      -4.978  75.424 116.041  0.00  0.00     0.382 C 
ATOM     23  O   LIG d   1      -3.823  74.971 116.226  0.00  0.00    -0.241 OA
ATOM     24  O   LIG d   1      -5.846  74.699 115.518  0.00  0.00    -0.241 OA
ENDBRANCH   3  22
TORSDOF 7
ENDMDL
MODEL 6
REMARK VINA RESULT:      -4.7      2.442      3.587
REMARK  7 active torsions:
REMARK  status: ('A' for Active; 'I' for Inactive)
REMARK    1  A    between atoms: C_2  and  C_3 
REMARK    2  A    between atoms: C_3  and  O_6 
REMARK    3  A    between atoms: C_3  and  C_4 
REMARK    4  A    between atoms: C_7  and  O_6 
REMARK    5  A    between atoms: C_9  and  C_10 
REMARK    6  A    between atoms: N_15  and  C_14 
REMARK    7  A    between atoms: N_20  and  C_19 
REMARK       I    between atoms: C_22  and  N_20 
ROOT
ATOM      1  C   LIG d   1      -2.765  77.892 114.774  0.00  0.00     0.161 C 
ATOM      2  C   LIG d   1      -2.726  77.637 113.393  0.00  0.00     0.016 C 
ATOM      3  C   LIG d   1      -1.759  78.196 112.525  0.00  0.00     0.038 C 
ATOM      4  C   LIG d   1      -0.667  78.932 113.008  0.00  0.00     0.028 C 
ATOM      5  C   LIG d   1      -0.947  79.633 114.333  0.00  0.00    -0.047 C 
ATOM      6  C   LIG d   1      -1.516  78.603 115.336  0.00  0.00     0.091 C 
ENDROOT
BRANCH   1   7
ATOM      7  O   LIG d   1      -3.007  76.665 115.490  0.00  0.00    -0.368 OA
BRANCH   7   8
ATOM      8  C   LIG d   1      -4.306  76.540 116.120  0.00  0.00     0.119 C 
BRANCH   8   9
ATOM      9  C   LIG d   1      -4.076  76.424 117.639  0.00  0.00     0.028 C 
ATOM     10  C   LIG d   1      -2.773  75.681 117.979  0.00  0.00     0.006 C 
ENDBRANCH   8   9
BRANCH   8  11
ATOM     11  C   LIG d   1      -4.999  75.236 115.714  0.00  0.00     0.028 C 
ATOM     12  C   LIG d   1      -5.532  75.268 114.273  0.00  0.00     0.006 C 
ENDBRANCH   8  11
ENDBRANCH   7   8
ENDBRANCH   1   7
BRANCH   6  13
ATOM     13  N   LIG d   1      -1.896  79.223 116.631  0.00  0.00    -0.311 N 
ATOM     14  C   LIG d   1      -3.005  79.941 116.803  0.00  0.00     0.210 C 
ATOM     15  C   LIG d   1      -3.197  80.507 118.214  0.00  0.00     0.109 C 
ATOM     16  O   LIG d   1      -3.864  80.135 115.930  0.00  0.00    -0.276 OA
ATOM     17  H   LIG d   1      -1.271  79.090 117.402  0.00  0.00     0.149 HD
ENDBRANCH   6  13
BRANCH   5  18
ATOM     18  N   LIG d   1       0.314  80.247 114.788  0.00  0.00     0.381 N 
ATOM     19  H   LIG d   1       0.154  81.201 115.045  0.00  0.00    -0.090 HD
ATOM     20  H   LIG d   1       0.975  80.231 114.031  0.00  0.00    -0.090 HD
ATOM     21  H   LIG d   1       0.678  79.743 115.567  0.00  0.00    -0.090 HD
ENDBRANCH   5  18
BRANCH   3  22
ATOM     22  C   LIG d   1      -1.903  78.053 111.154  0.00  0.00     0.382 C 
ATOM     23  O   LIG d   1      -1.058  78.563 110.379  0.00  0.00    -0.241 OA
ATOM     24  O   LIG d   1      -2.890  77.459 110.680  0.00  0.00    -0.241 OA
ENDBRANCH   3  22
TORSDOF 7
ENDMDL
MODEL 7
REMARK VINA RESULT:      -4.6      3.304      5.410
REMARK  7 active torsions:
REMARK  status: ('A' for Active; 'I' for Inactive)
REMARK    1  A    between atoms: C_2  and  C_3 
REMARK    2  A    between atoms: C_3  and  O_6 
REMARK    3  A    between atoms: C_3  and  C_4 
REMARK    4  A    between atoms: C_7  and  O_6 
REMARK    5  A    between atoms: C_9  and  C_10 
REMARK    6  A    between atoms: N_15  and  C_14 
REMARK    7  A    between atoms: N_20  and  C_19 
REMARK       I    between atoms: C_22  and  N_20 
ROOT
ATOM      1  C   LIG d   1      -5.945  77.631 117.067  0.00  0.00     0.161 C 
ATOM      2  C   LIG d   1      -6.204  76.915 115.887  0.00  0.00     0.016 C 
ATOM      3  C   LIG d   1      -5.201  76.561 114.955  0.00  0.00     0.038 C 
ATOM      4  C   LIG d   1      -3.839  76.770 115.217  0.00  0.00     0.028 C 
ATOM      5  C   LIG d   1      -3.575  77.939 116.161  0.00  0.00    -0.047 C 
ATOM      6  C   LIG d   1      -4.450  77.770 117.424  0.00  0.00     0.091 C 
ENDROOT
BRANCH   1   7
ATOM      7  O   LIG d   1      -6.669  77.042 118.165  0.00  0.00    -0.368 OA
BRANCH   7   8
ATOM      8  C   LIG d   1      -7.831  77.774 118.627  0.00  0.00     0.119 C 
BRANCH   8   9
ATOM      9  C   LIG d   1      -9.078  77.071 118.057  0.00  0.00     0.028 C 
ATOM     10  C   LIG d   1      -8.937  75.539 118.051  0.00  0.00     0.006 C 
ENDBRANCH   8   9
BRANCH   8  11
ATOM     11  C   LIG d   1      -7.864  79.191 118.048  0.00  0.00     0.028 C 
ATOM     12  C   LIG d   1      -9.138  79.961 118.429  0.00  0.00     0.006 C 
ENDBRANCH   8  11
ENDBRANCH   7   8
ENDBRANCH   1   7
BRANCH   6  13
ATOM     13  N   LIG d   1      -4.316  78.915 118.363  0.00  0.00    -0.311 N 
ATOM     14  C   LIG d   1      -4.483  80.185 117.998  0.00  0.00     0.210 C 
ATOM     15  C   LIG d   1      -4.280  81.211 119.118  0.00  0.00     0.109 C 
ATOM     16  O   LIG d   1      -4.811  80.558 116.862  0.00  0.00    -0.276 OA
ATOM     17  H   LIG d   1      -4.082  78.701 119.312  0.00  0.00     0.149 HD
ENDBRANCH   6  13
BRANCH   5  18
ATOM     18  N   LIG d   1      -2.130  77.956 116.456  0.00  0.00     0.381 N 
ATOM     19  H   LIG d   1      -1.950  77.446 117.297  0.00  0.00    -0.090 HD
ATOM     20  H   LIG d   1      -1.839  78.908 116.595  0.00  0.00    -0.090 HD
ATOM     21  H   LIG d   1      -1.623  77.553 115.699  0.00  0.00    -0.090 HD
ENDBRANCH   5  18
BRANCH   3  22
ATOM     22  C   LIG d   1      -5.561  76.028 113.727  0.00  0.00     0.382 C 
ATOM     23  O   LIG d   1      -5.548  74.785 113.556  0.00  0.00    -0.241 OA
ATOM     24  O   LIG d   1      -5.856  76.775 112.775  0.00  0.00    -0.241 OA
ENDBRANCH   3  22
TORSDOF 7
ENDMDL
MODEL 8
REMARK VINA RESULT:      -4.6      2.588      3.857
REMARK  7 active torsions:
REMARK  status: ('A' for Active; 'I' for Inactive)
REMARK    1  A    between atoms: C_2  and  C_3 
REMARK    2  A    between atoms: C_3  and  O_6 
REMARK    3  A    between atoms: C_3  and  C_4 
REMARK    4  A    between atoms: C_7  and  O_6 
REMARK    5  A    between atoms: C_9  and  C_10 
REMARK    6  A    between atoms: N_15  and  C_14 
REMARK    7  A    between atoms: N_20  and  C_19 
REMARK       I    between atoms: C_22  and  N_20 
ROOT
ATOM      1  C   LIG d   1      -2.836  78.322 114.920  0.00  0.00     0.161 C 
ATOM      2  C   LIG d   1      -2.783  77.752 113.637  0.00  0.00     0.016 C 
ATOM      3  C   LIG d   1      -1.753  78.024 112.707  0.00  0.00     0.038 C 
ATOM      4  C   LIG d   1      -0.618  78.771 113.054  0.00  0.00     0.028 C 
ATOM      5  C   LIG d   1      -0.875  79.778 114.170  0.00  0.00    -0.047 C 
ATOM      6  C   LIG d   1      -1.548  79.052 115.357  0.00  0.00     0.091 C 
ENDROOT
BRANCH   1   7
ATOM      7  O   LIG d   1      -3.193  77.315 115.887  0.00  0.00    -0.368 OA
BRANCH   7   8
ATOM      8  C   LIG d   1      -3.225  75.949 115.404  0.00  0.00     0.119 C 
BRANCH   8   9
ATOM      9  C   LIG d   1      -4.571  75.336 115.835  0.00  0.00     0.028 C 
ATOM     10  C   LIG d   1      -5.590  75.289 114.685  0.00  0.00     0.006 C 
ENDBRANCH   8   9
BRANCH   8  11
ATOM     11  C   LIG d   1      -2.152  75.093 116.083  0.00  0.00     0.028 C 
ATOM     12  C   LIG d   1      -0.929  74.847 115.186  0.00  0.00     0.006 C 
ENDBRANCH   8  11
ENDBRANCH   7   8
ENDBRANCH   1   7
BRANCH   6  13
ATOM     13  N   LIG d   1      -1.910  79.981 116.458  0.00  0.00    -0.311 N 
ATOM     14  C   LIG d   1      -1.112  80.239 117.493  0.00  0.00     0.210 C 
ATOM     15  C   LIG d   1      -1.687  81.211 118.527  0.00  0.00     0.109 C 
ATOM     16  O   LIG d   1       0.031  79.779 117.635  0.00  0.00    -0.276 OA
ATOM     17  H   LIG d   1      -2.808  80.423 116.407  0.00  0.00     0.149 HD
ENDBRANCH   6  13
BRANCH   5  18
ATOM     18  N   LIG d   1       0.420  80.389 114.526  0.00  0.00     0.381 N 
ATOM     19  H   LIG d   1       0.278  81.121 115.192  0.00  0.00    -0.090 HD
ATOM     20  H   LIG d   1       0.829  80.789 113.700  0.00  0.00    -0.090 HD
ATOM     21  H   LIG d   1       1.030  79.698 114.906  0.00  0.00    -0.090 HD
ENDBRANCH   5  18
BRANCH   3  22
ATOM     22  C   LIG d   1      -1.873  77.578 111.399  0.00  0.00     0.382 C 
ATOM     23  O   LIG d   1      -0.851  77.231 110.759  0.00  0.00    -0.241 OA
ATOM     24  O   LIG d   1      -2.984  77.559 110.837  0.00  0.00    -0.241 OA
ENDBRANCH   3  22
TORSDOF 7
ENDMDL
MODEL 9
REMARK VINA RESULT:      -4.6      3.437      6.230
REMARK  7 active torsions:
REMARK  status: ('A' for Active; 'I' for Inactive)
REMARK    1  A    between atoms: C_2  and  C_3 
REMARK    2  A    between atoms: C_3  and  O_6 
REMARK    3  A    between atoms: C_3  and  C_4 
REMARK    4  A    between atoms: C_7  and  O_6 
REMARK    5  A    between atoms: C_9  and  C_10 
REMARK    6  A    between atoms: N_15  and  C_14 
REMARK    7  A    between atoms: N_20  and  C_19 
REMARK       I    between atoms: C_22  and  N_20 
ROOT
ATOM      1  C   LIG d   1      -6.040  78.558 117.329  0.00  0.00     0.161 C 
ATOM      2  C   LIG d   1      -7.335  78.350 117.832  0.00  0.00     0.016 C 
ATOM      3  C   LIG d   1      -8.060  77.151 117.645  0.00  0.00     0.038 C 
ATOM      4  C   LIG d   1      -7.475  76.014 117.066  0.00  0.00     0.028 C 
ATOM      5  C   LIG d   1      -6.347  76.342 116.094  0.00  0.00    -0.047 C 
ATOM      6  C   LIG d   1      -5.344  77.290 116.790  0.00  0.00     0.091 C 
ENDROOT
BRANCH   1   7
ATOM      7  O   LIG d   1      -5.221  79.191 118.332  0.00  0.00    -0.368 OA
BRANCH   7   8
ATOM      8  C   LIG d   1      -4.788  80.543 118.041  0.00  0.00     0.119 C 
BRANCH   8   9
ATOM      9  C   LIG d   1      -3.376  80.714 118.632  0.00  0.00     0.028 C 
ATOM     10  C   LIG d   1      -2.274  80.245 117.667  0.00  0.00     0.006 C 
ENDBRANCH   8   9
BRANCH   8  11
ATOM     11  C   LIG d   1      -5.659  81.575 118.764  0.00  0.00     0.028 C 
ATOM     12  C   LIG d   1      -6.850  82.048 117.917  0.00  0.00     0.006 C 
ENDBRANCH   8  11
ENDBRANCH   7   8
ENDBRANCH   1   7
BRANCH   6  13
ATOM     13  N   LIG d   1      -4.253  77.728 115.882  0.00  0.00    -0.311 N 
ATOM     14  C   LIG d   1      -3.084  77.096 115.783  0.00  0.00     0.210 C 
ATOM     15  C   LIG d   1      -2.090  77.725 114.801  0.00  0.00     0.109 C 
ATOM     16  O   LIG d   1      -2.788  76.057 116.391  0.00  0.00    -0.276 OA
ATOM     17  H   LIG d   1      -4.420  78.545 115.328  0.00  0.00     0.149 HD
ENDBRANCH   6  13
BRANCH   5  18
ATOM     18  N   LIG d   1      -5.738  75.066 115.671  0.00  0.00     0.381 N 
ATOM     19  H   LIG d   1      -6.052  74.327 116.268  0.00  0.00    -0.090 HD
ATOM     20  H   LIG d   1      -4.740  75.138 115.757  0.00  0.00    -0.090 HD
ATOM     21  H   LIG d   1      -5.984  74.868 114.726  0.00  0.00    -0.090 HD
ENDBRANCH   5  18
BRANCH   3  22
ATOM     22  C   LIG d   1      -9.398  77.093 118.003  0.00  0.00     0.382 C 
ATOM     23  O   LIG d   1     -10.059  76.048 117.792  0.00  0.00    -0.241 OA
ATOM     24  O   LIG d   1      -9.964  78.088 118.494  0.00  0.00    -0.241 OA
ENDBRANCH   3  22
TORSDOF 7
ENDMDL
