MODEL 1
REMARK VINA RESULT:      -5.0      0.000      0.000
REMARK  7 active torsions:
REMARK  status: ('A' for Active; 'I' for Inactive)
REMARK    1  A    between atoms: C_2  and  C_3 
REMARK    2  A    between atoms: C_3  and  O_6 
REMARK    3  A    between atoms: C_3  and  C_4 
REMARK    4  A    between atoms: C_7  and  O_6 
REMARK    5  A    between atoms: C_9  and  C_10 
REMARK    6  A    between atoms: N_15  and  C_14 
REMARK    7  A    between atoms: N_20  and  C_19 
REMARK       I    between atoms: C_22  and  N_20 
ROOT
ATOM      1  C   LIG d   1      -2.488  78.335 115.028  0.00  0.00     0.161 C 
ATOM      2  C   LIG d   1      -2.823  79.563 114.433  0.00  0.00     0.016 C 
ATOM      3  C   LIG d   1      -2.533  79.880 113.086  0.00  0.00     0.038 C 
ATOM      4  C   LIG d   1      -2.018  78.926 112.194  0.00  0.00     0.028 C 
ATOM      5  C   LIG d   1      -1.199  77.837 112.879  0.00  0.00    -0.047 C 
ATOM      6  C   LIG d   1      -2.027  77.242 114.041  0.00  0.00     0.091 C 
ENDROOT
BRANCH   1   7
ATOM      7  O   LIG d   1      -3.593  77.860 115.822  0.00  0.00    -0.368 OA
BRANCH   7   8
ATOM      8  C   LIG d   1      -3.432  77.950 117.259  0.00  0.00     0.119 C 
BRANCH   8   9
ATOM      9  C   LIG d   1      -3.935  76.626 117.866  0.00  0.00     0.028 C 
ATOM     10  C   LIG d   1      -2.883  75.958 118.768  0.00  0.00     0.006 C 
ENDBRANCH   8   9
BRANCH   8  11
ATOM     11  C   LIG d   1      -4.333  79.037 117.853  0.00  0.00     0.028 C 
ATOM     12  C   LIG d   1      -5.733  78.518 118.216  0.00  0.00     0.006 C 
ENDBRANCH   8  11
ENDBRANCH   7   8
ENDBRANCH   1   7
BRANCH   6  13
ATOM     13  N   LIG d   1      -1.268  76.228 114.817  0.00  0.00    -0.311 N 
ATOM     14  C   LIG d   1      -1.794  75.076 115.230  0.00  0.00     0.210 C 
ATOM     15  C   LIG d   1      -0.844  74.182 116.033  0.00  0.00     0.109 C 
ATOM     16  O   LIG d   1      -2.948  74.697 114.982  0.00  0.00    -0.276 OA
ATOM     17  H   LIG d   1      -0.314  76.440 115.036  0.00  0.00     0.149 HD
ENDBRANCH   6  13
BRANCH   5  18
ATOM     18  N   LIG d   1      -0.842  76.838 111.854  0.00  0.00     0.381 N 
ATOM     19  H   LIG d   1      -0.781  75.931 112.271  0.00  0.00    -0.090 HD
ATOM     20  H   LIG d   1       0.059  77.071 111.473  0.00  0.00    -0.090 HD
ATOM     21  H   LIG d   1      -1.525  76.833 111.129  0.00  0.00    -0.090 HD
ENDBRANCH   5  18
BRANCH   3  22
ATOM     22  C   LIG d   1      -2.720  81.175 112.629  0.00  0.00     0.382 C 
ATOM     23  O   LIG d   1      -3.871  81.674 112.613  0.00  0.00    -0.241 OA
ATOM     24  O   LIG d   1      -1.759  81.835 112.190  0.00  0.00    -0.241 OA
ENDBRANCH   3  22
TORSDOF 7
ENDMDL
MODEL 2
REMARK VINA RESULT:      -4.8      2.774      5.293
REMARK  7 active torsions:
REMARK  status: ('A' for Active; 'I' for Inactive)
REMARK    1  A    between atoms: C_2  and  C_3 
REMARK    2  A    between atoms: C_3  and  O_6 
REMARK    3  A    between atoms: C_3  and  C_4 
REMARK    4  A    between atoms: C_7  and  O_6 
REMARK    5  A    between atoms: C_9  and  C_10 
REMARK    6  A    between atoms: N_15  and  C_14 
REMARK    7  A    between atoms: N_20  and  C_19 
REMARK       I    between atoms: C_22  and  N_20 
ROOT
ATOM      1  C   LIG d   1      -1.243  75.598 115.352  0.00  0.00     0.161 C 
ATOM      2  C   LIG d   1      -0.890  75.276 116.673  0.00  0.00     0.016 C 
ATOM      3  C   LIG d   1      -0.394  76.223 117.599  0.00  0.00     0.038 C 
ATOM      4  C   LIG d   1      -0.361  77.595 117.310  0.00  0.00     0.028 C 
ATOM      5  C   LIG d   1      -0.232  77.897 115.820  0.00  0.00    -0.047 C 
ATOM      6  C   LIG d   1      -1.318  77.110 115.053  0.00  0.00     0.091 C 
ENDROOT
BRANCH   1   7
ATOM      7  O   LIG d   1      -2.488  74.957 115.009  0.00  0.00    -0.368 OA
BRANCH   7   8
ATOM      8  C   LIG d   1      -3.694  75.651 115.412  0.00  0.00     0.119 C 
BRANCH   8   9
ATOM      9  C   LIG d   1      -4.209  74.976 116.698  0.00  0.00     0.028 C 
ATOM     10  C   LIG d   1      -4.285  75.954 117.883  0.00  0.00     0.006 C 
ENDBRANCH   8   9
BRANCH   8  11
ATOM     11  C   LIG d   1      -4.813  75.467 114.382  0.00  0.00     0.028 C 
ATOM     12  C   LIG d   1      -5.902  74.490 114.854  0.00  0.00     0.006 C 
ENDBRANCH   8  11
ENDBRANCH   7   8
ENDBRANCH   1   7
BRANCH   6  13
ATOM     13  N   LIG d   1      -1.210  77.283 113.581  0.00  0.00    -0.311 N 
ATOM     14  C   LIG d   1      -2.120  77.924 112.849  0.00  0.00     0.210 C 
ATOM     15  C   LIG d   1      -1.825  77.971 111.346  0.00  0.00     0.109 C 
ATOM     16  O   LIG d   1      -3.126  78.486 113.306  0.00  0.00    -0.276 OA
ATOM     17  H   LIG d   1      -0.408  76.885 113.132  0.00  0.00     0.149 HD
ENDBRANCH   6  13
BRANCH   5  18
ATOM     18  N   LIG d   1      -0.348  79.358 115.650  0.00  0.00     0.381 N 
ATOM     19  H   LIG d   1      -1.000  79.563 114.920  0.00  0.00    -0.090 HD
ATOM     20  H   LIG d   1       0.549  79.726 115.385  0.00  0.00    -0.090 HD
ATOM     21  H   LIG d   1      -0.649  79.778 116.502  0.00  0.00    -0.090 HD
ENDBRANCH   5  18
BRANCH   3  22
ATOM     22  C   LIG d   1       0.112  75.794 118.816  0.00  0.00     0.382 C 
ATOM     23  O   LIG d   1       0.401  74.584 118.984  0.00  0.00    -0.241 OA
ATOM     24  O   LIG d   1       0.241  76.592 119.763  0.00  0.00    -0.241 OA
ENDBRANCH   3  22
TORSDOF 7
ENDMDL
MODEL 3
REMARK VINA RESULT:      -4.6      2.219      3.025
REMARK  7 active torsions:
REMARK  status: ('A' for Active; 'I' for Inactive)
REMARK    1  A    between atoms: C_2  and  C_3 
REMARK    2  A    between atoms: C_3  and  O_6 
REMARK    3  A    between atoms: C_3  and  C_4 
REMARK    4  A    between atoms: C_7  and  O_6 
REMARK    5  A    between atoms: C_9  and  C_10 
REMARK    6  A    between atoms: N_15  and  C_14 
REMARK    7  A    between atoms: N_20  and  C_19 
REMARK       I    between atoms: C_22  and  N_20 
ROOT
ATOM      1  C   LIG d   1      -2.837  77.083 115.220  0.00  0.00     0.161 C 
ATOM      2  C   LIG d   1      -2.989  77.977 114.147  0.00  0.00     0.016 C 
ATOM      3  C   LIG d   1      -2.083  79.028 113.875  0.00  0.00     0.038 C 
ATOM      4  C   LIG d   1      -0.873  79.163 114.572  0.00  0.00     0.028 C 
ATOM      5  C   LIG d   1      -0.922  78.592 115.986  0.00  0.00    -0.047 C 
ATOM      6  C   LIG d   1      -1.465  77.146 115.925  0.00  0.00     0.091 C 
ENDROOT
BRANCH   1   7
ATOM      7  O   LIG d   1      -3.112  75.739 114.779  0.00  0.00    -0.368 OA
BRANCH   7   8
ATOM      8  C   LIG d   1      -4.213  75.065 115.437  0.00  0.00     0.119 C 
BRANCH   8   9
ATOM      9  C   LIG d   1      -5.142  74.514 114.338  0.00  0.00     0.028 C 
ATOM     10  C   LIG d   1      -6.164  75.558 113.857  0.00  0.00     0.006 C 
ENDBRANCH   8   9
BRANCH   8  11
ATOM     11  C   LIG d   1      -5.070  76.049 116.238  0.00  0.00     0.028 C 
ATOM     12  C   LIG d   1      -5.059  75.758 117.747  0.00  0.00     0.006 C 
ENDBRANCH   8  11
ENDBRANCH   7   8
ENDBRANCH   1   7
BRANCH   6  13
ATOM     13  N   LIG d   1      -1.625  76.543 117.274  0.00  0.00    -0.311 N 
ATOM     14  C   LIG d   1      -1.173  75.332 117.593  0.00  0.00     0.210 C 
ATOM     15  C   LIG d   1      -1.460  74.893 119.032  0.00  0.00     0.109 C 
ATOM     16  O   LIG d   1      -0.532  74.592 116.831  0.00  0.00    -0.276 OA
ATOM     17  H   LIG d   1      -2.105  77.088 117.963  0.00  0.00     0.149 HD
ENDBRANCH   6  13
BRANCH   5  18
ATOM     18  N   LIG d   1       0.440  78.674 116.547  0.00  0.00     0.381 N 
ATOM     19  H   LIG d   1       1.010  77.949 116.161  0.00  0.00    -0.090 HD
ATOM     20  H   LIG d   1       0.390  78.540 117.542  0.00  0.00    -0.090 HD
ATOM     21  H   LIG d   1       0.839  79.564 116.344  0.00  0.00    -0.090 HD
ENDBRANCH   5  18
BRANCH   3  22
ATOM     22  C   LIG d   1      -2.402  79.981 112.920  0.00  0.00     0.382 C 
ATOM     23  O   LIG d   1      -3.536  80.520 112.927  0.00  0.00    -0.241 OA
ATOM     24  O   LIG d   1      -1.588  80.278 112.026  0.00  0.00    -0.241 OA
ENDBRANCH   3  22
TORSDOF 7
ENDMDL
MODEL 4
REMARK VINA RESULT:      -4.5      4.366      5.697
REMARK  7 active torsions:
REMARK  status: ('A' for Active; 'I' for Inactive)
REMARK    1  A    between atoms: C_2  and  C_3 
REMARK    2  A    between atoms: C_3  and  O_6 
REMARK    3  A    between atoms: C_3  and  C_4 
REMARK    4  A    between atoms: C_7  and  O_6 
REMARK    5  A    between atoms: C_9  and  C_10 
REMARK    6  A    between atoms: N_15  and  C_14 
REMARK    7  A    between atoms: N_20  and  C_19 
REMARK       I    between atoms: C_22  and  N_20 
ROOT
ATOM      1  C   LIG d   1      -6.499  77.453 117.697  0.00  0.00     0.161 C 
ATOM      2  C   LIG d   1      -7.339  78.578 117.735  0.00  0.00     0.016 C 
ATOM      3  C   LIG d   1      -6.880  79.882 118.033  0.00  0.00     0.038 C 
ATOM      4  C   LIG d   1      -5.515  80.175 118.166  0.00  0.00     0.028 C 
ATOM      5  C   LIG d   1      -4.683  78.986 118.634  0.00  0.00    -0.047 C 
ATOM      6  C   LIG d   1      -4.989  77.771 117.729  0.00  0.00     0.091 C 
ENDROOT
BRANCH   1   7
ATOM      7  O   LIG d   1      -6.816  76.645 116.546  0.00  0.00    -0.368 OA
BRANCH   7   8
ATOM      8  C   LIG d   1      -7.403  75.349 116.818  0.00  0.00     0.119 C 
BRANCH   8   9
ATOM      9  C   LIG d   1      -6.624  74.305 115.995  0.00  0.00     0.028 C 
ATOM     10  C   LIG d   1      -5.926  74.924 114.772  0.00  0.00     0.006 C 
ENDBRANCH   8   9
BRANCH   8  11
ATOM     11  C   LIG d   1      -8.845  75.273 116.309  0.00  0.00     0.028 C 
ATOM     12  C   LIG d   1      -9.870  75.756 117.347  0.00  0.00     0.006 C 
ENDBRANCH   8  11
ENDBRANCH   7   8
ENDBRANCH   1   7
BRANCH   6  13
ATOM     13  N   LIG d   1      -4.280  76.542 118.171  0.00  0.00    -0.311 N 
ATOM     14  C   LIG d   1      -3.385  75.902 117.420  0.00  0.00     0.210 C 
ATOM     15  C   LIG d   1      -2.787  74.644 118.057  0.00  0.00     0.109 C 
ATOM     16  O   LIG d   1      -3.007  76.275 116.299  0.00  0.00    -0.276 OA
ATOM     17  H   LIG d   1      -4.504  76.188 119.080  0.00  0.00     0.149 HD
ENDBRANCH   6  13
BRANCH   5  18
ATOM     18  N   LIG d   1      -3.265  79.392 118.597  0.00  0.00     0.381 N 
ATOM     19  H   LIG d   1      -2.967  79.667 119.511  0.00  0.00    -0.090 HD
ATOM     20  H   LIG d   1      -3.169  80.181 117.983  0.00  0.00    -0.090 HD
ATOM     21  H   LIG d   1      -2.703  78.637 118.270  0.00  0.00    -0.090 HD
ENDBRANCH   5  18
BRANCH   3  22
ATOM     22  C   LIG d   1      -7.796  80.902 118.241  0.00  0.00     0.382 C 
ATOM     23  O   LIG d   1      -7.854  81.475 119.356  0.00  0.00    -0.241 OA
ATOM     24  O   LIG d   1      -8.595  81.226 117.342  0.00  0.00    -0.241 OA
ENDBRANCH   3  22
TORSDOF 7
ENDMDL
MODEL 5
REMARK VINA RESULT:      -4.4      1.959      2.638
REMARK  7 active torsions:
REMARK  status: ('A' for Active; 'I' for Inactive)
REMARK    1  A    between atoms: C_2  and  C_3 
REMARK    2  A    between atoms: C_3  and  O_6 
REMARK    3  A    between atoms: C_3  and  C_4 
REMARK    4  A    between atoms: C_7  and  O_6 
REMARK    5  A    between atoms: C_9  and  C_10 
REMARK    6  A    between atoms: N_15  and  C_14 
REMARK    7  A    between atoms: N_20  and  C_19 
REMARK       I    between atoms: C_22  and  N_20 
ROOT
ATOM      1  C   LIG d   1      -2.007  77.786 116.605  0.00  0.00     0.161 C 
ATOM      2  C   LIG d   1      -2.523  78.548 115.544  0.00  0.00     0.016 C 
ATOM      3  C   LIG d   1      -2.183  78.327 114.189  0.00  0.00     0.038 C 
ATOM      4  C   LIG d   1      -1.414  77.225 113.788  0.00  0.00     0.028 C 
ATOM      5  C   LIG d   1      -0.460  76.726 114.869  0.00  0.00    -0.047 C 
ATOM      6  C   LIG d   1      -1.254  76.509 116.177  0.00  0.00     0.091 C 
ENDROOT
BRANCH   1   7
ATOM      7  O   LIG d   1      -3.062  77.459 117.531  0.00  0.00    -0.368 OA
BRANCH   7   8
ATOM      8  C   LIG d   1      -4.351  77.149 116.945  0.00  0.00     0.119 C 
BRANCH   8   9
ATOM      9  C   LIG d   1      -5.430  77.815 117.821  0.00  0.00     0.028 C 
ATOM     10  C   LIG d   1      -5.162  77.630 119.324  0.00  0.00     0.006 C 
ENDBRANCH   8   9
BRANCH   8  11
ATOM     11  C   LIG d   1      -4.645  75.648 117.010  0.00  0.00     0.028 C 
ATOM     12  C   LIG d   1      -4.557  74.963 115.637  0.00  0.00     0.006 C 
ENDBRANCH   8  11
ENDBRANCH   7   8
ENDBRANCH   1   7
BRANCH   6  13
ATOM     13  N   LIG d   1      -0.381  76.101 117.309  0.00  0.00    -0.311 N 
ATOM     14  C   LIG d   1      -0.589  75.006 118.038  0.00  0.00     0.210 C 
ATOM     15  C   LIG d   1       0.418  74.782 119.170  0.00  0.00     0.109 C 
ATOM     16  O   LIG d   1      -1.493  74.182 117.834  0.00  0.00    -0.276 OA
ATOM     17  H   LIG d   1       0.395  76.697 117.524  0.00  0.00     0.149 HD
ENDBRANCH   6  13
BRANCH   5  18
ATOM     18  N   LIG d   1       0.176  75.494 114.367  0.00  0.00     0.381 N 
ATOM     19  H   LIG d   1      -0.503  74.929 113.897  0.00  0.00    -0.090 HD
ATOM     20  H   LIG d   1       0.534  74.972 115.148  0.00  0.00    -0.090 HD
ATOM     21  H   LIG d   1       0.918  75.723 113.743  0.00  0.00    -0.090 HD
ENDBRANCH   5  18
BRANCH   3  22
ATOM     22  C   LIG d   1      -2.580  79.239 113.223  0.00  0.00     0.382 C 
ATOM     23  O   LIG d   1      -3.366  80.170 113.525  0.00  0.00    -0.241 OA
ATOM     24  O   LIG d   1      -2.198  79.117 112.044  0.00  0.00    -0.241 OA
ENDBRANCH   3  22
TORSDOF 7
ENDMDL
MODEL 6
REMARK VINA RESULT:      -4.4      1.893      2.411
REMARK  7 active torsions:
REMARK  status: ('A' for Active; 'I' for Inactive)
REMARK    1  A    between atoms: C_2  and  C_3 
REMARK    2  A    between atoms: C_3  and  O_6 
REMARK    3  A    between atoms: C_3  and  C_4 
REMARK    4  A    between atoms: C_7  and  O_6 
REMARK    5  A    between atoms: C_9  and  C_10 
REMARK    6  A    between atoms: N_15  and  C_14 
REMARK    7  A    between atoms: N_20  and  C_19 
REMARK       I    between atoms: C_22  and  N_20 
ROOT
ATOM      1  C   LIG d   1      -2.013  77.991 116.531  0.00  0.00     0.161 C 
ATOM      2  C   LIG d   1      -2.499  78.751 115.454  0.00  0.00     0.016 C 
ATOM      3  C   LIG d   1      -2.189  78.473 114.103  0.00  0.00     0.038 C 
ATOM      4  C   LIG d   1      -1.490  77.317 113.725  0.00  0.00     0.028 C 
ATOM      5  C   LIG d   1      -0.552  76.796 114.809  0.00  0.00    -0.047 C 
ATOM      6  C   LIG d   1      -1.340  76.661 116.132  0.00  0.00     0.091 C 
ENDROOT
BRANCH   1   7
ATOM      7  O   LIG d   1      -3.073  77.752 117.478  0.00  0.00    -0.368 OA
BRANCH   7   8
ATOM      8  C   LIG d   1      -3.792  78.922 117.940  0.00  0.00     0.119 C 
BRANCH   8   9
ATOM      9  C   LIG d   1      -3.413  79.144 119.417  0.00  0.00     0.028 C 
ATOM     10  C   LIG d   1      -2.327  80.219 119.589  0.00  0.00     0.006 C 
ENDBRANCH   8   9
BRANCH   8  11
ATOM     11  C   LIG d   1      -5.304  78.684 117.940  0.00  0.00     0.028 C 
ATOM     12  C   LIG d   1      -6.113  79.989 118.010  0.00  0.00     0.006 C 
ENDBRANCH   8  11
ENDBRANCH   7   8
ENDBRANCH   1   7
BRANCH   6  13
ATOM     13  N   LIG d   1      -0.477  76.237 117.265  0.00  0.00    -0.311 N 
ATOM     14  C   LIG d   1      -0.604  75.064 117.884  0.00  0.00     0.210 C 
ATOM     15  C   LIG d   1       0.374  74.834 119.040  0.00  0.00     0.109 C 
ATOM     16  O   LIG d   1      -1.413  74.180 117.565  0.00  0.00    -0.276 OA
ATOM     17  H   LIG d   1       0.227  76.881 117.569  0.00  0.00     0.149 HD
ENDBRANCH   6  13
BRANCH   5  18
ATOM     18  N   LIG d   1       0.007  75.515 114.336  0.00  0.00     0.381 N 
ATOM     19  H   LIG d   1      -0.637  74.773 114.528  0.00  0.00    -0.090 HD
ATOM     20  H   LIG d   1       0.860  75.329 114.833  0.00  0.00    -0.090 HD
ATOM     21  H   LIG d   1       0.188  75.562 113.358  0.00  0.00    -0.090 HD
ENDBRANCH   5  18
BRANCH   3  22
ATOM     22  C   LIG d   1      -2.547  79.379 113.115  0.00  0.00     0.382 C 
ATOM     23  O   LIG d   1      -3.381  80.282 113.365  0.00  0.00    -0.241 OA
ATOM     24  O   LIG d   1      -2.079  79.277 111.965  0.00  0.00    -0.241 OA
ENDBRANCH   3  22
TORSDOF 7
ENDMDL
MODEL 7
REMARK VINA RESULT:      -4.2      2.930      5.430
REMARK  7 active torsions:
REMARK  status: ('A' for Active; 'I' for Inactive)
REMARK    1  A    between atoms: C_2  and  C_3 
REMARK    2  A    between atoms: C_3  and  O_6 
REMARK    3  A    between atoms: C_3  and  C_4 
REMARK    4  A    between atoms: C_7  and  O_6 
REMARK    5  A    between atoms: C_9  and  C_10 
REMARK    6  A    between atoms: N_15  and  C_14 
REMARK    7  A    between atoms: N_20  and  C_19 
REMARK       I    between atoms: C_22  and  N_20 
ROOT
ATOM      1  C   LIG d   1      -3.102  75.556 115.176  0.00  0.00     0.161 C 
ATOM      2  C   LIG d   1      -4.432  75.608 114.725  0.00  0.00     0.016 C 
ATOM      3  C   LIG d   1      -5.533  75.859 115.575  0.00  0.00     0.038 C 
ATOM      4  C   LIG d   1      -5.363  76.229 116.918  0.00  0.00     0.028 C 
ATOM      5  C   LIG d   1      -4.074  75.696 117.535  0.00  0.00    -0.047 C 
ATOM      6  C   LIG d   1      -2.888  76.066 116.616  0.00  0.00     0.091 C 
ENDROOT
BRANCH   1   7
ATOM      7  O   LIG d   1      -2.247  76.268 114.259  0.00  0.00    -0.368 OA
BRANCH   7   8
ATOM      8  C   LIG d   1      -2.395  77.709 114.239  0.00  0.00     0.119 C 
BRANCH   8   9
ATOM      9  C   LIG d   1      -2.890  78.104 112.834  0.00  0.00     0.028 C 
ATOM     10  C   LIG d   1      -1.801  77.943 111.761  0.00  0.00     0.006 C 
ENDBRANCH   8   9
BRANCH   8  11
ATOM     11  C   LIG d   1      -1.043  78.410 114.404  0.00  0.00     0.028 C 
ATOM     12  C   LIG d   1      -0.858  79.027 115.799  0.00  0.00     0.006 C 
ENDBRANCH   8  11
ENDBRANCH   7   8
ENDBRANCH   1   7
BRANCH   6  13
ATOM     13  N   LIG d   1      -1.598  75.510 117.103  0.00  0.00    -0.311 N 
ATOM     14  C   LIG d   1      -0.865  76.085 118.054  0.00  0.00     0.210 C 
ATOM     15  C   LIG d   1       0.440  75.357 118.393  0.00  0.00     0.109 C 
ATOM     16  O   LIG d   1      -1.186  77.111 118.672  0.00  0.00    -0.276 OA
ATOM     17  H   LIG d   1      -1.278  74.662 116.678  0.00  0.00     0.149 HD
ENDBRANCH   6  13
BRANCH   5  18
ATOM     18  N   LIG d   1      -3.958  76.269 118.889  0.00  0.00     0.381 N 
ATOM     19  H   LIG d   1      -3.599  77.201 118.832  0.00  0.00    -0.090 HD
ATOM     20  H   LIG d   1      -3.312  75.714 119.422  0.00  0.00    -0.090 HD
ATOM     21  H   LIG d   1      -4.849  76.275 119.334  0.00  0.00    -0.090 HD
ENDBRANCH   5  18
BRANCH   3  22
ATOM     22  C   LIG d   1      -6.823  75.703 115.093  0.00  0.00     0.382 C 
ATOM     23  O   LIG d   1      -7.105  76.067 113.926  0.00  0.00    -0.241 OA
ATOM     24  O   LIG d   1      -7.720  75.244 115.825  0.00  0.00    -0.241 OA
ENDBRANCH   3  22
TORSDOF 7
ENDMDL
MODEL 8
REMARK VINA RESULT:      -4.1      4.709      6.527
REMARK  7 active torsions:
REMARK  status: ('A' for Active; 'I' for Inactive)
REMARK    1  A    between atoms: C_2  and  C_3 
REMARK    2  A    between atoms: C_3  and  O_6 
REMARK    3  A    between atoms: C_3  and  C_4 
REMARK    4  A    between atoms: C_7  and  O_6 
REMARK    5  A    between atoms: C_9  and  C_10 
REMARK    6  A    between atoms: N_15  and  C_14 
REMARK    7  A    between atoms: N_20  and  C_19 
REMARK       I    between atoms: C_22  and  N_20 
ROOT
ATOM      1  C   LIG d   1      -6.723  78.151 117.882  0.00  0.00     0.161 C 
ATOM      2  C   LIG d   1      -7.308  79.425 117.969  0.00  0.00     0.016 C 
ATOM      3  C   LIG d   1      -8.698  79.634 118.125  0.00  0.00     0.038 C 
ATOM      4  C   LIG d   1      -9.586  78.573 118.357  0.00  0.00     0.028 C 
ATOM      5  C   LIG d   1      -9.111  77.247 117.773  0.00  0.00    -0.047 C 
ATOM      6  C   LIG d   1      -7.663  76.982 118.245  0.00  0.00     0.091 C 
ENDROOT
BRANCH   1   7
ATOM      7  O   LIG d   1      -5.531  78.105 118.690  0.00  0.00    -0.368 OA
BRANCH   7   8
ATOM      8  C   LIG d   1      -4.319  78.596 118.067  0.00  0.00     0.119 C 
BRANCH   8   9
ATOM      9  C   LIG d   1      -3.709  77.433 117.260  0.00  0.00     0.028 C 
ATOM     10  C   LIG d   1      -3.516  76.167 118.111  0.00  0.00     0.006 C 
ENDBRANCH   8   9
BRANCH   8  11
ATOM     11  C   LIG d   1      -3.262  78.961 119.114  0.00  0.00     0.028 C 
ATOM     12  C   LIG d   1      -3.637  80.209 119.928  0.00  0.00     0.006 C 
ENDBRANCH   8  11
ENDBRANCH   7   8
ENDBRANCH   1   7
BRANCH   6  13
ATOM     13  N   LIG d   1      -7.091  75.745 117.651  0.00  0.00    -0.311 N 
ATOM     14  C   LIG d   1      -6.857  75.597 116.348  0.00  0.00     0.210 C 
ATOM     15  C   LIG d   1      -6.284  74.235 115.944  0.00  0.00     0.109 C 
ATOM     16  O   LIG d   1      -7.041  76.476 115.493  0.00  0.00    -0.276 OA
ATOM     17  H   LIG d   1      -6.883  74.992 118.278  0.00  0.00     0.149 HD
ENDBRANCH   6  13
BRANCH   5  18
ATOM     18  N   LIG d   1     -10.060  76.204 118.206  0.00  0.00     0.381 N 
ATOM     19  H   LIG d   1     -10.568  75.860 117.416  0.00  0.00    -0.090 HD
ATOM     20  H   LIG d   1     -10.715  76.609 118.851  0.00  0.00    -0.090 HD
ATOM     21  H   LIG d   1      -9.569  75.457 118.646  0.00  0.00    -0.090 HD
ENDBRANCH   5  18
BRANCH   3  22
ATOM     22  C   LIG d   1      -9.218  80.915 118.009  0.00  0.00     0.382 C 
ATOM     23  O   LIG d   1      -9.767  81.460 118.996  0.00  0.00    -0.241 OA
ATOM     24  O   LIG d   1      -9.184  81.514 116.917  0.00  0.00    -0.241 OA
ENDBRANCH   3  22
TORSDOF 7
ENDMDL
MODEL 9
REMARK VINA RESULT:      -4.1      3.891      5.693
REMARK  7 active torsions:
REMARK  status: ('A' for Active; 'I' for Inactive)
REMARK    1  A    between atoms: C_2  and  C_3 
REMARK    2  A    between atoms: C_3  and  O_6 
REMARK    3  A    between atoms: C_3  and  C_4 
REMARK    4  A    between atoms: C_7  and  O_6 
REMARK    5  A    between atoms: C_9  and  C_10 
REMARK    6  A    between atoms: N_15  and  C_14 
REMARK    7  A    between atoms: N_20  and  C_19 
REMARK       I    between atoms: C_22  and  N_20 
ROOT
ATOM      1  C   LIG d   1      -5.473  76.453 118.204  0.00  0.00     0.161 C 
ATOM      2  C   LIG d   1      -4.137  76.826 117.980  0.00  0.00     0.016 C 
ATOM      3  C   LIG d   1      -3.429  76.513 116.797  0.00  0.00     0.038 C 
ATOM      4  C   LIG d   1      -4.060  75.932 115.687  0.00  0.00     0.028 C 
ATOM      5  C   LIG d   1      -5.273  75.084 116.055  0.00  0.00    -0.047 C 
ATOM      6  C   LIG d   1      -6.211  75.916 116.960  0.00  0.00     0.091 C 
ENDROOT
BRANCH   1   7
ATOM      7  O   LIG d   1      -6.199  77.557 118.779  0.00  0.00    -0.368 OA
BRANCH   7   8
ATOM      8  C   LIG d   1      -6.687  78.554 117.848  0.00  0.00     0.119 C 
BRANCH   8   9
ATOM      9  C   LIG d   1      -6.027  79.896 118.219  0.00  0.00     0.028 C 
ATOM     10  C   LIG d   1      -6.935  81.100 117.917  0.00  0.00     0.006 C 
ENDBRANCH   8   9
BRANCH   8  11
ATOM     11  C   LIG d   1      -8.192  78.782 118.014  0.00  0.00     0.028 C 
ATOM     12  C   LIG d   1      -8.774  78.054 119.235  0.00  0.00     0.006 C 
ENDBRANCH   8  11
ENDBRANCH   7   8
ENDBRANCH   1   7
BRANCH   6  13
ATOM     13  N   LIG d   1      -7.382  75.133 117.434  0.00  0.00    -0.311 N 
ATOM     14  C   LIG d   1      -8.580  75.181 116.854  0.00  0.00     0.210 C 
ATOM     15  C   LIG d   1      -9.653  74.310 117.515  0.00  0.00     0.109 C 
ATOM     16  O   LIG d   1      -8.847  75.837 115.836  0.00  0.00    -0.276 OA
ATOM     17  H   LIG d   1      -7.245  74.549 118.237  0.00  0.00     0.149 HD
ENDBRANCH   6  13
BRANCH   5  18
ATOM     18  N   LIG d   1      -5.914  74.653 114.798  0.00  0.00     0.381 N 
ATOM     19  H   LIG d   1      -6.891  74.865 114.827  0.00  0.00    -0.090 HD
ATOM     20  H   LIG d   1      -5.809  73.658 114.704  0.00  0.00    -0.090 HD
ATOM     21  H   LIG d   1      -5.489  75.114 114.024  0.00  0.00    -0.090 HD
ENDBRANCH   5  18
BRANCH   3  22
ATOM     22  C   LIG d   1      -2.064  76.746 116.732  0.00  0.00     0.382 C 
ATOM     23  O   LIG d   1      -1.394  76.849 117.788  0.00  0.00    -0.241 OA
ATOM     24  O   LIG d   1      -1.501  76.898 115.631  0.00  0.00    -0.241 OA
ENDBRANCH   3  22
TORSDOF 7
ENDMDL
