MODEL 1
REMARK VINA RESULT:      -5.0      0.000      0.000
REMARK  7 active torsions:
REMARK  status: ('A' for Active; 'I' for Inactive)
REMARK    1  A    between atoms: C_2  and  C_3 
REMARK    2  A    between atoms: C_3  and  O_6 
REMARK    3  A    between atoms: C_3  and  C_4 
REMARK    4  A    between atoms: C_7  and  O_6 
REMARK    5  A    between atoms: C_9  and  C_10 
REMARK    6  A    between atoms: N_15  and  C_14 
REMARK    7  A    between atoms: N_20  and  C_19 
REMARK       I    between atoms: C_22  and  N_20 
ROOT
ATOM      1  C   LIG d   1      -3.482  79.280 115.554  0.00  0.00     0.161 C 
ATOM      2  C   LIG d   1      -3.202  80.281 114.609  0.00  0.00     0.016 C 
ATOM      3  C   LIG d   1      -2.269  80.121 113.559  0.00  0.00     0.038 C 
ATOM      4  C   LIG d   1      -1.659  78.886 113.291  0.00  0.00     0.028 C 
ATOM      5  C   LIG d   1      -1.530  77.995 114.521  0.00  0.00    -0.047 C 
ATOM      6  C   LIG d   1      -2.909  77.889 115.211  0.00  0.00     0.091 C 
ENDROOT
BRANCH   1   7
ATOM      7  O   LIG d   1      -4.904  79.196 115.771  0.00  0.00    -0.368 OA
BRANCH   7   8
ATOM      8  C   LIG d   1      -5.363  79.491 117.113  0.00  0.00     0.119 C 
BRANCH   8   9
ATOM      9  C   LIG d   1      -6.719  78.785 117.304  0.00  0.00     0.028 C 
ATOM     10  C   LIG d   1      -6.683  77.313 116.861  0.00  0.00     0.006 C 
ENDBRANCH   8   9
BRANCH   8  11
ATOM     11  C   LIG d   1      -5.655  80.984 117.288  0.00  0.00     0.028 C 
ATOM     12  C   LIG d   1      -7.158  81.301 117.287  0.00  0.00     0.006 C 
ENDBRANCH   8  11
ENDBRANCH   7   8
ENDBRANCH   1   7
BRANCH   6  13
ATOM     13  N   LIG d   1      -2.853  77.103 116.471  0.00  0.00    -0.311 N 
ATOM     14  C   LIG d   1      -3.161  75.809 116.542  0.00  0.00     0.210 C 
ATOM     15  C   LIG d   1      -3.056  75.195 117.942  0.00  0.00     0.109 C 
ATOM     16  O   LIG d   1      -3.479  75.103 115.573  0.00  0.00    -0.276 OA
ATOM     17  H   LIG d   1      -2.574  77.589 117.301  0.00  0.00     0.149 HD
ENDBRANCH   6  13
BRANCH   5  18
ATOM     18  N   LIG d   1      -1.006  76.691 114.073  0.00  0.00     0.381 N 
ATOM     19  H   LIG d   1      -0.554  76.227 114.836  0.00  0.00    -0.090 HD
ATOM     20  H   LIG d   1      -0.325  76.845 113.350  0.00  0.00    -0.090 HD
ATOM     21  H   LIG d   1      -1.749  76.126 113.725  0.00  0.00    -0.090 HD
ENDBRANCH   5  18
BRANCH   3  22
ATOM     22  C   LIG d   1      -1.908  81.215 112.788  0.00  0.00     0.382 C 
ATOM     23  O   LIG d   1      -2.758  82.096 112.513  0.00  0.00    -0.241 OA
ATOM     24  O   LIG d   1      -0.755  81.310 112.327  0.00  0.00    -0.241 OA
ENDBRANCH   3  22
TORSDOF 7
ENDMDL
MODEL 2
REMARK VINA RESULT:      -5.0      2.536      5.381
REMARK  7 active torsions:
REMARK  status: ('A' for Active; 'I' for Inactive)
REMARK    1  A    between atoms: C_2  and  C_3 
REMARK    2  A    between atoms: C_3  and  O_6 
REMARK    3  A    between atoms: C_3  and  C_4 
REMARK    4  A    between atoms: C_7  and  O_6 
REMARK    5  A    between atoms: C_9  and  C_10 
REMARK    6  A    between atoms: N_15  and  C_14 
REMARK    7  A    between atoms: N_20  and  C_19 
REMARK       I    between atoms: C_22  and  N_20 
ROOT
ATOM      1  C   LIG d   1      -1.857  76.409 115.076  0.00  0.00     0.161 C 
ATOM      2  C   LIG d   1      -1.798  75.885 116.378  0.00  0.00     0.016 C 
ATOM      3  C   LIG d   1      -1.414  76.644 117.506  0.00  0.00     0.038 C 
ATOM      4  C   LIG d   1      -1.207  78.030 117.432  0.00  0.00     0.028 C 
ATOM      5  C   LIG d   1      -0.764  78.503 116.051  0.00  0.00    -0.047 C 
ATOM      6  C   LIG d   1      -1.742  77.946 114.992  0.00  0.00     0.091 C 
ENDROOT
BRANCH   1   7
ATOM      7  O   LIG d   1      -3.061  75.961 114.422  0.00  0.00    -0.368 OA
BRANCH   7   8
ATOM      8  C   LIG d   1      -4.173  75.631 115.291  0.00  0.00     0.119 C 
BRANCH   8   9
ATOM      9  C   LIG d   1      -4.874  74.394 114.697  0.00  0.00     0.028 C 
ATOM     10  C   LIG d   1      -6.281  74.181 115.279  0.00  0.00     0.006 C 
ENDBRANCH   8   9
BRANCH   8  11
ATOM     11  C   LIG d   1      -5.231  76.739 115.286  0.00  0.00     0.028 C 
ATOM     12  C   LIG d   1      -5.205  77.594 116.562  0.00  0.00     0.006 C 
ENDBRANCH   8  11
ENDBRANCH   7   8
ENDBRANCH   1   7
BRANCH   6  13
ATOM     13  N   LIG d   1      -1.334  78.292 113.606  0.00  0.00    -0.311 N 
ATOM     14  C   LIG d   1      -2.131  78.918 112.742  0.00  0.00     0.210 C 
ATOM     15  C   LIG d   1      -1.520  79.160 111.358  0.00  0.00     0.109 C 
ATOM     16  O   LIG d   1      -3.274  79.324 113.000  0.00  0.00    -0.276 OA
ATOM     17  H   LIG d   1      -0.411  78.027 113.323  0.00  0.00     0.149 HD
ENDBRANCH   6  13
BRANCH   5  18
ATOM     18  N   LIG d   1      -0.719  79.977 116.079  0.00  0.00     0.381 N 
ATOM     19  H   LIG d   1      -0.042  80.307 115.420  0.00  0.00    -0.090 HD
ATOM     20  H   LIG d   1      -0.438  80.277 116.996  0.00  0.00    -0.090 HD
ATOM     21  H   LIG d   1      -1.616  80.350 115.860  0.00  0.00    -0.090 HD
ENDBRANCH   5  18
BRANCH   3  22
ATOM     22  C   LIG d   1      -1.194  76.010 118.719  0.00  0.00     0.382 C 
ATOM     23  O   LIG d   1      -0.119  76.197 119.340  0.00  0.00    -0.241 OA
ATOM     24  O   LIG d   1      -2.037  75.217 119.180  0.00  0.00    -0.241 OA
ENDBRANCH   3  22
TORSDOF 7
ENDMDL
MODEL 3
REMARK VINA RESULT:      -4.9      1.543      2.304
REMARK  7 active torsions:
REMARK  status: ('A' for Active; 'I' for Inactive)
REMARK    1  A    between atoms: C_2  and  C_3 
REMARK    2  A    between atoms: C_3  and  O_6 
REMARK    3  A    between atoms: C_3  and  C_4 
REMARK    4  A    between atoms: C_7  and  O_6 
REMARK    5  A    between atoms: C_9  and  C_10 
REMARK    6  A    between atoms: N_15  and  C_14 
REMARK    7  A    between atoms: N_20  and  C_19 
REMARK       I    between atoms: C_22  and  N_20 
ROOT
ATOM      1  C   LIG d   1      -2.323  78.785 115.158  0.00  0.00     0.161 C 
ATOM      2  C   LIG d   1      -2.692  80.028 114.617  0.00  0.00     0.016 C 
ATOM      3  C   LIG d   1      -2.677  80.309 113.231  0.00  0.00     0.038 C 
ATOM      4  C   LIG d   1      -2.435  79.311 112.275  0.00  0.00     0.028 C 
ATOM      5  C   LIG d   1      -1.567  78.171 112.795  0.00  0.00    -0.047 C 
ATOM      6  C   LIG d   1      -2.163  77.651 114.123  0.00  0.00     0.091 C 
ENDROOT
BRANCH   1   7
ATOM      7  O   LIG d   1      -3.261  78.400 116.182  0.00  0.00    -0.368 OA
BRANCH   7   8
ATOM      8  C   LIG d   1      -4.140  79.445 116.666  0.00  0.00     0.119 C 
BRANCH   8   9
ATOM      9  C   LIG d   1      -3.720  79.769 118.113  0.00  0.00     0.028 C 
ATOM     10  C   LIG d   1      -4.655  80.792 118.780  0.00  0.00     0.006 C 
ENDBRANCH   8   9
BRANCH   8  11
ATOM     11  C   LIG d   1      -5.587  78.955 116.764  0.00  0.00     0.028 C 
ATOM     12  C   LIG d   1      -5.768  77.522 116.237  0.00  0.00     0.006 C 
ENDBRANCH   8  11
ENDBRANCH   7   8
ENDBRANCH   1   7
BRANCH   6  13
ATOM     13  N   LIG d   1      -1.327  76.590 114.743  0.00  0.00    -0.311 N 
ATOM     14  C   LIG d   1      -1.808  75.410 115.130  0.00  0.00     0.210 C 
ATOM     15  C   LIG d   1      -0.780  74.469 115.765  0.00  0.00     0.109 C 
ATOM     16  O   LIG d   1      -2.983  75.041 114.978  0.00  0.00    -0.276 OA
ATOM     17  H   LIG d   1      -0.356  76.794 114.875  0.00  0.00     0.149 HD
ENDBRANCH   6  13
BRANCH   5  18
ATOM     18  N   LIG d   1      -1.510  77.138 111.743  0.00  0.00     0.381 N 
ATOM     19  H   LIG d   1      -0.604  77.138 111.318  0.00  0.00    -0.090 HD
ATOM     20  H   LIG d   1      -2.190  77.356 111.037  0.00  0.00    -0.090 HD
ATOM     21  H   LIG d   1      -1.701  76.242 112.134  0.00  0.00    -0.090 HD
ENDBRANCH   5  18
BRANCH   3  22
ATOM     22  C   LIG d   1      -2.867  81.610 112.792  0.00  0.00     0.382 C 
ATOM     23  O   LIG d   1      -1.962  82.192 112.146  0.00  0.00    -0.241 OA
ATOM     24  O   LIG d   1      -3.914  82.225 113.071  0.00  0.00    -0.241 OA
ENDBRANCH   3  22
TORSDOF 7
ENDMDL
MODEL 4
REMARK VINA RESULT:      -4.9      2.604      5.869
REMARK  7 active torsions:
REMARK  status: ('A' for Active; 'I' for Inactive)
REMARK    1  A    between atoms: C_2  and  C_3 
REMARK    2  A    between atoms: C_3  and  O_6 
REMARK    3  A    between atoms: C_3  and  C_4 
REMARK    4  A    between atoms: C_7  and  O_6 
REMARK    5  A    between atoms: C_9  and  C_10 
REMARK    6  A    between atoms: N_15  and  C_14 
REMARK    7  A    between atoms: N_20  and  C_19 
REMARK       I    between atoms: C_22  and  N_20 
ROOT
ATOM      1  C   LIG d   1      -4.423  78.447 116.111  0.00  0.00     0.161 C 
ATOM      2  C   LIG d   1      -4.215  77.266 115.380  0.00  0.00     0.016 C 
ATOM      3  C   LIG d   1      -5.160  76.217 115.310  0.00  0.00     0.038 C 
ATOM      4  C   LIG d   1      -6.450  76.344 115.848  0.00  0.00     0.028 C 
ATOM      5  C   LIG d   1      -6.523  77.313 117.024  0.00  0.00    -0.047 C 
ATOM      6  C   LIG d   1      -5.868  78.651 116.613  0.00  0.00     0.091 C 
ENDROOT
BRANCH   1   7
ATOM      7  O   LIG d   1      -3.997  79.584 115.334  0.00  0.00    -0.368 OA
BRANCH   7   8
ATOM      8  C   LIG d   1      -2.767  79.421 114.587  0.00  0.00     0.119 C 
BRANCH   8   9
ATOM      9  C   LIG d   1      -1.629  80.029 115.430  0.00  0.00     0.028 C 
ATOM     10  C   LIG d   1      -0.764  78.955 116.111  0.00  0.00     0.006 C 
ENDBRANCH   8   9
BRANCH   8  11
ATOM     11  C   LIG d   1      -2.790  80.235 113.290  0.00  0.00     0.028 C 
ATOM     12  C   LIG d   1      -2.093  79.518 112.124  0.00  0.00     0.006 C 
ENDBRANCH   8  11
ENDBRANCH   7   8
ENDBRANCH   1   7
BRANCH   6  13
ATOM     13  N   LIG d   1      -5.822  79.627 117.733  0.00  0.00    -0.311 N 
ATOM     14  C   LIG d   1      -6.391  80.830 117.681  0.00  0.00     0.210 C 
ATOM     15  C   LIG d   1      -6.207  81.687 118.937  0.00  0.00     0.109 C 
ATOM     16  O   LIG d   1      -7.059  81.256 116.726  0.00  0.00    -0.276 OA
ATOM     17  H   LIG d   1      -5.327  79.351 118.558  0.00  0.00     0.149 HD
ENDBRANCH   6  13
BRANCH   5  18
ATOM     18  N   LIG d   1      -7.943  77.454 117.397  0.00  0.00     0.381 N 
ATOM     19  H   LIG d   1      -8.486  76.751 116.938  0.00  0.00    -0.090 HD
ATOM     20  H   LIG d   1      -8.271  78.354 117.093  0.00  0.00    -0.090 HD
ATOM     21  H   LIG d   1      -8.046  77.371 118.385  0.00  0.00    -0.090 HD
ENDBRANCH   5  18
BRANCH   3  22
ATOM     22  C   LIG d   1      -4.805  75.009 114.731  0.00  0.00     0.382 C 
ATOM     23  O   LIG d   1      -3.651  74.546 114.904  0.00  0.00    -0.241 OA
ATOM     24  O   LIG d   1      -5.608  74.397 114.002  0.00  0.00    -0.241 OA
ENDBRANCH   3  22
TORSDOF 7
ENDMDL
MODEL 5
REMARK VINA RESULT:      -4.8      2.792      3.412
REMARK  7 active torsions:
REMARK  status: ('A' for Active; 'I' for Inactive)
REMARK    1  A    between atoms: C_2  and  C_3 
REMARK    2  A    between atoms: C_3  and  O_6 
REMARK    3  A    between atoms: C_3  and  C_4 
REMARK    4  A    between atoms: C_7  and  O_6 
REMARK    5  A    between atoms: C_9  and  C_10 
REMARK    6  A    between atoms: N_15  and  C_14 
REMARK    7  A    between atoms: N_20  and  C_19 
REMARK       I    between atoms: C_22  and  N_20 
ROOT
ATOM      1  C   LIG d   1      -3.373  76.609 115.439  0.00  0.00     0.161 C 
ATOM      2  C   LIG d   1      -3.426  76.995 114.089  0.00  0.00     0.016 C 
ATOM      3  C   LIG d   1      -2.489  77.870 113.492  0.00  0.00     0.038 C 
ATOM      4  C   LIG d   1      -1.341  78.302 114.172  0.00  0.00     0.028 C 
ATOM      5  C   LIG d   1      -1.513  78.344 115.687  0.00  0.00    -0.047 C 
ATOM      6  C   LIG d   1      -2.064  76.982 116.167  0.00  0.00     0.091 C 
ENDROOT
BRANCH   1   7
ATOM      7  O   LIG d   1      -3.624  75.194 115.553  0.00  0.00    -0.368 OA
BRANCH   7   8
ATOM      8  C   LIG d   1      -4.899  74.817 116.128  0.00  0.00     0.119 C 
BRANCH   8   9
ATOM      9  C   LIG d   1      -5.829  74.414 114.968  0.00  0.00     0.028 C 
ATOM     10  C   LIG d   1      -6.760  75.559 114.536  0.00  0.00     0.006 C 
ENDBRANCH   8   9
BRANCH   8  11
ATOM     11  C   LIG d   1      -5.583  76.013 116.798  0.00  0.00     0.028 C 
ATOM     12  C   LIG d   1      -5.754  75.827 118.315  0.00  0.00     0.006 C 
ENDBRANCH   8  11
ENDBRANCH   7   8
ENDBRANCH   1   7
BRANCH   6  13
ATOM     13  N   LIG d   1      -2.342  76.966 117.627  0.00  0.00    -0.311 N 
ATOM     14  C   LIG d   1      -1.806  76.080 118.465  0.00  0.00     0.210 C 
ATOM     15  C   LIG d   1      -2.241  76.228 119.927  0.00  0.00     0.109 C 
ATOM     16  O   LIG d   1      -0.988  75.206 118.142  0.00  0.00    -0.276 OA
ATOM     17  H   LIG d   1      -2.972  77.660 117.979  0.00  0.00     0.149 HD
ENDBRANCH   6  13
BRANCH   5  18
ATOM     18  N   LIG d   1      -0.203  78.677 116.276  0.00  0.00     0.381 N 
ATOM     19  H   LIG d   1      -0.010  78.064 117.042  0.00  0.00    -0.090 HD
ATOM     20  H   LIG d   1      -0.233  79.619 116.626  0.00  0.00    -0.090 HD
ATOM     21  H   LIG d   1       0.512  78.595 115.587  0.00  0.00    -0.090 HD
ENDBRANCH   5  18
BRANCH   3  22
ATOM     22  C   LIG d   1      -2.718  78.354 112.213  0.00  0.00     0.382 C 
ATOM     23  O   LIG d   1      -2.508  79.563 111.953  0.00  0.00    -0.241 OA
ATOM     24  O   LIG d   1      -3.175  77.606 111.327  0.00  0.00    -0.241 OA
ENDBRANCH   3  22
TORSDOF 7
ENDMDL
MODEL 6
REMARK VINA RESULT:      -4.8      2.809      6.420
REMARK  7 active torsions:
REMARK  status: ('A' for Active; 'I' for Inactive)
REMARK    1  A    between atoms: C_2  and  C_3 
REMARK    2  A    between atoms: C_3  and  O_6 
REMARK    3  A    between atoms: C_3  and  C_4 
REMARK    4  A    between atoms: C_7  and  O_6 
REMARK    5  A    between atoms: C_9  and  C_10 
REMARK    6  A    between atoms: N_15  and  C_14 
REMARK    7  A    between atoms: N_20  and  C_19 
REMARK       I    between atoms: C_22  and  N_20 
ROOT
ATOM      1  C   LIG d   1      -5.760  77.723 116.666  0.00  0.00     0.161 C 
ATOM      2  C   LIG d   1      -7.082  77.440 117.045  0.00  0.00     0.016 C 
ATOM      3  C   LIG d   1      -7.965  78.410 117.574  0.00  0.00     0.038 C 
ATOM      4  C   LIG d   1      -7.630  79.771 117.618  0.00  0.00     0.028 C 
ATOM      5  C   LIG d   1      -6.129  80.023 117.716  0.00  0.00    -0.047 C 
ATOM      6  C   LIG d   1      -5.413  79.225 116.602  0.00  0.00     0.091 C 
ENDROOT
BRANCH   1   7
ATOM      7  O   LIG d   1      -5.466  77.088 115.406  0.00  0.00    -0.368 OA
BRANCH   7   8
ATOM      8  C   LIG d   1      -4.560  75.959 115.457  0.00  0.00     0.119 C 
BRANCH   8   9
ATOM      9  C   LIG d   1      -3.268  76.367 114.723  0.00  0.00     0.028 C 
ATOM     10  C   LIG d   1      -2.006  76.089 115.556  0.00  0.00     0.006 C 
ENDBRANCH   8   9
BRANCH   8  11
ATOM     11  C   LIG d   1      -5.112  74.765 114.673  0.00  0.00     0.028 C 
ATOM     12  C   LIG d   1      -6.389  74.181 115.297  0.00  0.00     0.006 C 
ENDBRANCH   8  11
ENDBRANCH   7   8
ENDBRANCH   1   7
BRANCH   6  13
ATOM     13  N   LIG d   1      -3.934  79.349 116.679  0.00  0.00    -0.311 N 
ATOM     14  C   LIG d   1      -3.182  79.790 115.672  0.00  0.00     0.210 C 
ATOM     15  C   LIG d   1      -1.676  79.820 115.954  0.00  0.00     0.109 C 
ATOM     16  O   LIG d   1      -3.621  80.190 114.583  0.00  0.00    -0.276 OA
ATOM     17  H   LIG d   1      -3.497  79.076 117.537  0.00  0.00     0.149 HD
ENDBRANCH   6  13
BRANCH   5  18
ATOM     18  N   LIG d   1      -5.914  81.479 117.614  0.00  0.00     0.381 N 
ATOM     19  H   LIG d   1      -6.105  81.912 118.495  0.00  0.00    -0.090 HD
ATOM     20  H   LIG d   1      -6.551  81.855 116.933  0.00  0.00    -0.090 HD
ATOM     21  H   LIG d   1      -4.975  81.666 117.340  0.00  0.00    -0.090 HD
ENDBRANCH   5  18
BRANCH   3  22
ATOM     22  C   LIG d   1      -9.184  78.014 118.102  0.00  0.00     0.382 C 
ATOM     23  O   LIG d   1      -9.428  76.795 118.271  0.00  0.00    -0.241 OA
ATOM     24  O   LIG d   1     -10.060  78.858 118.372  0.00  0.00    -0.241 OA
ENDBRANCH   3  22
TORSDOF 7
ENDMDL
MODEL 7
REMARK VINA RESULT:      -4.6      2.980      4.517
REMARK  7 active torsions:
REMARK  status: ('A' for Active; 'I' for Inactive)
REMARK    1  A    between atoms: C_2  and  C_3 
REMARK    2  A    between atoms: C_3  and  O_6 
REMARK    3  A    between atoms: C_3  and  C_4 
REMARK    4  A    between atoms: C_7  and  O_6 
REMARK    5  A    between atoms: C_9  and  C_10 
REMARK    6  A    between atoms: N_15  and  C_14 
REMARK    7  A    between atoms: N_20  and  C_19 
REMARK       I    between atoms: C_22  and  N_20 
ROOT
ATOM      1  C   LIG d   1      -5.572  77.438 116.617  0.00  0.00     0.161 C 
ATOM      2  C   LIG d   1      -6.274  78.630 116.858  0.00  0.00     0.016 C 
ATOM      3  C   LIG d   1      -5.650  79.896 116.950  0.00  0.00     0.038 C 
ATOM      4  C   LIG d   1      -4.291  80.076 116.653  0.00  0.00     0.028 C 
ATOM      5  C   LIG d   1      -3.447  78.829 116.899  0.00  0.00    -0.047 C 
ATOM      6  C   LIG d   1      -4.104  77.629 116.180  0.00  0.00     0.091 C 
ENDROOT
BRANCH   1   7
ATOM      7  O   LIG d   1      -6.282  76.640 115.649  0.00  0.00    -0.368 OA
BRANCH   7   8
ATOM      8  C   LIG d   1      -6.986  75.485 116.169  0.00  0.00     0.119 C 
BRANCH   8   9
ATOM      9  C   LIG d   1      -6.862  75.520 117.705  0.00  0.00     0.028 C 
ATOM     10  C   LIG d   1      -8.158  75.083 118.408  0.00  0.00     0.006 C 
ENDBRANCH   8   9
BRANCH   8  11
ATOM     11  C   LIG d   1      -6.310  74.180 115.737  0.00  0.00     0.028 C 
ATOM     12  C   LIG d   1      -5.747  74.245 114.308  0.00  0.00     0.006 C 
ENDBRANCH   8  11
ENDBRANCH   7   8
ENDBRANCH   1   7
BRANCH   6  13
ATOM     13  N   LIG d   1      -3.388  76.353 116.439  0.00  0.00    -0.311 N 
ATOM     14  C   LIG d   1      -2.719  75.684 115.501  0.00  0.00     0.210 C 
ATOM     15  C   LIG d   1      -2.070  74.380 115.975  0.00  0.00     0.109 C 
ATOM     16  O   LIG d   1      -2.575  76.063 114.329  0.00  0.00    -0.276 OA
ATOM     17  H   LIG d   1      -3.427  75.989 117.371  0.00  0.00     0.149 HD
ENDBRANCH   6  13
BRANCH   5  18
ATOM     18  N   LIG d   1      -2.082  79.114 116.419  0.00  0.00     0.381 N 
ATOM     19  H   LIG d   1      -1.838  78.473 115.691  0.00  0.00    -0.090 HD
ATOM     20  H   LIG d   1      -1.437  78.987 117.180  0.00  0.00    -0.090 HD
ATOM     21  H   LIG d   1      -2.027  80.049 116.081  0.00  0.00    -0.090 HD
ENDBRANCH   5  18
BRANCH   3  22
ATOM     22  C   LIG d   1      -6.381  80.993 117.380  0.00  0.00     0.382 C 
ATOM     23  O   LIG d   1      -7.464  81.285 116.818  0.00  0.00    -0.241 OA
ATOM     24  O   LIG d   1      -5.950  81.719 118.295  0.00  0.00    -0.241 OA
ENDBRANCH   3  22
TORSDOF 7
ENDMDL
MODEL 8
REMARK VINA RESULT:      -4.6      2.857      4.340
REMARK  7 active torsions:
REMARK  status: ('A' for Active; 'I' for Inactive)
REMARK    1  A    between atoms: C_2  and  C_3 
REMARK    2  A    between atoms: C_3  and  O_6 
REMARK    3  A    between atoms: C_3  and  C_4 
REMARK    4  A    between atoms: C_7  and  O_6 
REMARK    5  A    between atoms: C_9  and  C_10 
REMARK    6  A    between atoms: N_15  and  C_14 
REMARK    7  A    between atoms: N_20  and  C_19 
REMARK       I    between atoms: C_22  and  N_20 
ROOT
ATOM      1  C   LIG d   1      -5.450  77.478 116.889  0.00  0.00     0.161 C 
ATOM      2  C   LIG d   1      -6.137  78.678 117.138  0.00  0.00     0.016 C 
ATOM      3  C   LIG d   1      -5.558  79.956 116.963  0.00  0.00     0.038 C 
ATOM      4  C   LIG d   1      -4.294  80.124 116.380  0.00  0.00     0.028 C 
ATOM      5  C   LIG d   1      -3.369  78.928 116.584  0.00  0.00    -0.047 C 
ATOM      6  C   LIG d   1      -4.108  77.643 116.147  0.00  0.00     0.091 C 
ENDROOT
BRANCH   1   7
ATOM      7  O   LIG d   1      -6.307  76.563 116.178  0.00  0.00    -0.368 OA
BRANCH   7   8
ATOM      8  C   LIG d   1      -6.728  75.384 116.908  0.00  0.00     0.119 C 
BRANCH   8   9
ATOM      9  C   LIG d   1      -6.604  74.180 115.955  0.00  0.00     0.028 C 
ATOM     10  C   LIG d   1      -5.929  74.552 114.624  0.00  0.00     0.006 C 
ENDBRANCH   8   9
BRANCH   8  11
ATOM     11  C   LIG d   1      -8.212  75.458 117.278  0.00  0.00     0.028 C 
ATOM     12  C   LIG d   1      -8.442  75.903 118.731  0.00  0.00     0.006 C 
ENDBRANCH   8  11
ENDBRANCH   7   8
ENDBRANCH   1   7
BRANCH   6  13
ATOM     13  N   LIG d   1      -3.305  76.416 116.392  0.00  0.00    -0.311 N 
ATOM     14  C   LIG d   1      -2.556  75.832 115.459  0.00  0.00     0.210 C 
ATOM     15  C   LIG d   1      -1.824  74.566 115.916  0.00  0.00     0.109 C 
ATOM     16  O   LIG d   1      -2.402  76.259 114.305  0.00  0.00    -0.276 OA
ATOM     17  H   LIG d   1      -3.346  76.020 117.311  0.00  0.00     0.149 HD
ENDBRANCH   6  13
BRANCH   5  18
ATOM     18  N   LIG d   1      -2.139  79.179 115.810  0.00  0.00     0.381 N 
ATOM     19  H   LIG d   1      -1.449  78.491 116.037  0.00  0.00    -0.090 HD
ATOM     20  H   LIG d   1      -1.776  80.083 116.060  0.00  0.00    -0.090 HD
ATOM     21  H   LIG d   1      -2.338  79.152 114.834  0.00  0.00    -0.090 HD
ENDBRANCH   5  18
BRANCH   3  22
ATOM     22  C   LIG d   1      -6.232  81.082 117.412  0.00  0.00     0.382 C 
ATOM     23  O   LIG d   1      -7.055  81.660 116.662  0.00  0.00    -0.241 OA
ATOM     24  O   LIG d   1      -5.993  81.553 118.540  0.00  0.00    -0.241 OA
ENDBRANCH   3  22
TORSDOF 7
ENDMDL
MODEL 9
REMARK VINA RESULT:      -4.5      2.705      4.143
REMARK  7 active torsions:
REMARK  status: ('A' for Active; 'I' for Inactive)
REMARK    1  A    between atoms: C_2  and  C_3 
REMARK    2  A    between atoms: C_3  and  O_6 
REMARK    3  A    between atoms: C_3  and  C_4 
REMARK    4  A    between atoms: C_7  and  O_6 
REMARK    5  A    between atoms: C_9  and  C_10 
REMARK    6  A    between atoms: N_15  and  C_14 
REMARK    7  A    between atoms: N_20  and  C_19 
REMARK       I    between atoms: C_22  and  N_20 
ROOT
ATOM      1  C   LIG d   1      -3.505  78.024 115.180  0.00  0.00     0.161 C 
ATOM      2  C   LIG d   1      -3.317  77.842 113.800  0.00  0.00     0.016 C 
ATOM      3  C   LIG d   1      -2.286  78.472 113.066  0.00  0.00     0.038 C 
ATOM      4  C   LIG d   1      -1.275  79.215 113.694  0.00  0.00     0.028 C 
ATOM      5  C   LIG d   1      -1.714  79.838 115.015  0.00  0.00    -0.047 C 
ATOM      6  C   LIG d   1      -2.346  78.742 115.902  0.00  0.00     0.091 C 
ENDROOT
BRANCH   1   7
ATOM      7  O   LIG d   1      -3.778  76.755 115.807  0.00  0.00    -0.368 OA
BRANCH   7   8
ATOM      8  C   LIG d   1      -3.311  75.581 115.099  0.00  0.00     0.119 C 
BRANCH   8   9
ATOM      9  C   LIG d   1      -4.454  74.547 115.112  0.00  0.00     0.028 C 
ATOM     10  C   LIG d   1      -5.782  75.134 114.605  0.00  0.00     0.006 C 
ENDBRANCH   8   9
BRANCH   8  11
ATOM     11  C   LIG d   1      -2.149  74.910 115.838  0.00  0.00     0.028 C 
ATOM     12  C   LIG d   1      -0.776  75.293 115.262  0.00  0.00     0.006 C 
ENDBRANCH   8  11
ENDBRANCH   7   8
ENDBRANCH   1   7
BRANCH   6  13
ATOM     13  N   LIG d   1      -2.879  79.283 117.180  0.00  0.00    -0.311 N 
ATOM     14  C   LIG d   1      -2.336  79.025 118.368  0.00  0.00     0.210 C 
ATOM     15  C   LIG d   1      -3.053  79.667 119.560  0.00  0.00     0.109 C 
ATOM     16  O   LIG d   1      -1.309  78.353 118.546  0.00  0.00    -0.276 OA
ATOM     17  H   LIG d   1      -3.692  79.865 117.125  0.00  0.00     0.149 HD
ENDBRANCH   6  13
BRANCH   5  18
ATOM     18  N   LIG d   1      -0.527  80.465 115.628  0.00  0.00     0.381 N 
ATOM     19  H   LIG d   1       0.206  80.536 114.951  0.00  0.00    -0.090 HD
ATOM     20  H   LIG d   1      -0.206  79.884 116.382  0.00  0.00    -0.090 HD
ATOM     21  H   LIG d   1      -0.760  81.371 115.972  0.00  0.00    -0.090 HD
ENDBRANCH   5  18
BRANCH   3  22
ATOM     22  C   LIG d   1      -2.283  78.396 111.681  0.00  0.00     0.382 C 
ATOM     23  O   LIG d   1      -1.649  79.244 111.008  0.00  0.00    -0.241 OA
ATOM     24  O   LIG d   1      -2.942  77.516 111.096  0.00  0.00    -0.241 OA
ENDBRANCH   3  22
TORSDOF 7
ENDMDL
