MODEL 1
REMARK VINA RESULT:      -5.6      0.000      0.000
REMARK  7 active torsions:
REMARK  status: ('A' for Active; 'I' for Inactive)
REMARK    1  A    between atoms: C_2  and  C_3 
REMARK    2  A    between atoms: C_3  and  O_6 
REMARK    3  A    between atoms: C_3  and  C_4 
REMARK    4  A    between atoms: C_7  and  O_6 
REMARK    5  A    between atoms: C_9  and  C_10 
REMARK    6  A    between atoms: N_15  and  C_14 
REMARK    7  A    between atoms: N_20  and  C_19 
REMARK       I    between atoms: C_22  and  N_20 
ROOT
ATOM      1  C   LIG d   1      -6.909  77.307 117.171  0.00  0.00     0.161 C 
ATOM      2  C   LIG d   1      -8.105  77.982 117.470  0.00  0.00     0.016 C 
ATOM      3  C   LIG d   1      -8.172  79.372 117.720  0.00  0.00     0.038 C 
ATOM      4  C   LIG d   1      -7.064  80.213 117.538  0.00  0.00     0.028 C 
ATOM      5  C   LIG d   1      -5.728  79.503 117.729  0.00  0.00    -0.047 C 
ATOM      6  C   LIG d   1      -5.709  78.226 116.859  0.00  0.00     0.091 C 
ENDROOT
BRANCH   1   7
ATOM      7  O   LIG d   1      -7.128  76.383 116.087  0.00  0.00    -0.368 OA
BRANCH   7   8
ATOM      8  C   LIG d   1      -7.094  74.976 116.433  0.00  0.00     0.119 C 
BRANCH   8   9
ATOM      9  C   LIG d   1      -5.826  74.374 115.797  0.00  0.00     0.028 C 
ATOM     10  C   LIG d   1      -5.444  75.068 114.479  0.00  0.00     0.006 C 
ENDBRANCH   8   9
BRANCH   8  11
ATOM     11  C   LIG d   1      -8.264  74.218 115.799  0.00  0.00     0.028 C 
ATOM     12  C   LIG d   1      -9.631  74.820 116.164  0.00  0.00     0.006 C 
ENDBRANCH   8  11
ENDBRANCH   7   8
ENDBRANCH   1   7
BRANCH   6  13
ATOM     13  N   LIG d   1      -4.470  77.427 117.051  0.00  0.00    -0.311 N 
ATOM     14  C   LIG d   1      -3.423  77.491 116.231  0.00  0.00     0.210 C 
ATOM     15  C   LIG d   1      -2.256  76.570 116.600  0.00  0.00     0.109 C 
ATOM     16  O   LIG d   1      -3.337  78.246 115.251  0.00  0.00    -0.276 OA
ATOM     17  H   LIG d   1      -4.442  76.811 117.840  0.00  0.00     0.149 HD
ENDBRANCH   6  13
BRANCH   5  18
ATOM     18  N   LIG d   1      -4.661  80.459 117.376  0.00  0.00     0.381 N 
ATOM     19  H   LIG d   1      -4.865  81.355 117.771  0.00  0.00    -0.090 HD
ATOM     20  H   LIG d   1      -4.629  80.555 116.376  0.00  0.00    -0.090 HD
ATOM     21  H   LIG d   1      -3.784  80.131 117.714  0.00  0.00    -0.090 HD
ENDBRANCH   5  18
BRANCH   3  22
ATOM     22  C   LIG d   1      -9.350  79.928 118.196  0.00  0.00     0.382 C 
ATOM     23  O   LIG d   1     -10.059  80.635 117.441  0.00  0.00    -0.241 OA
ATOM     24  O   LIG d   1      -9.689  79.768 119.384  0.00  0.00    -0.241 OA
ENDBRANCH   3  22
TORSDOF 7
ENDMDL
MODEL 2
REMARK VINA RESULT:      -5.5      0.908      1.880
REMARK  7 active torsions:
REMARK  status: ('A' for Active; 'I' for Inactive)
REMARK    1  A    between atoms: C_2  and  C_3 
REMARK    2  A    between atoms: C_3  and  O_6 
REMARK    3  A    between atoms: C_3  and  C_4 
REMARK    4  A    between atoms: C_7  and  O_6 
REMARK    5  A    between atoms: C_9  and  C_10 
REMARK    6  A    between atoms: N_15  and  C_14 
REMARK    7  A    between atoms: N_20  and  C_19 
REMARK       I    between atoms: C_22  and  N_20 
ROOT
ATOM      1  C   LIG d   1      -6.345  76.871 117.691  0.00  0.00     0.161 C 
ATOM      2  C   LIG d   1      -7.608  77.484 117.752  0.00  0.00     0.016 C 
ATOM      3  C   LIG d   1      -7.802  78.879 117.632  0.00  0.00     0.038 C 
ATOM      4  C   LIG d   1      -6.755  79.747 117.289  0.00  0.00     0.028 C 
ATOM      5  C   LIG d   1      -5.382  79.237 117.716  0.00  0.00    -0.047 C 
ATOM      6  C   LIG d   1      -5.204  77.789 117.207  0.00  0.00     0.091 C 
ENDROOT
BRANCH   1   7
ATOM      7  O   LIG d   1      -6.417  75.686 116.873  0.00  0.00    -0.368 OA
BRANCH   7   8
ATOM      8  C   LIG d   1      -7.306  75.752 115.732  0.00  0.00     0.119 C 
BRANCH   8   9
ATOM      9  C   LIG d   1      -8.163  74.471 115.738  0.00  0.00     0.028 C 
ATOM     10  C   LIG d   1      -9.643  74.756 116.041  0.00  0.00     0.006 C 
ENDBRANCH   8   9
BRANCH   8  11
ATOM     11  C   LIG d   1      -6.526  75.711 114.414  0.00  0.00     0.028 C 
ATOM     12  C   LIG d   1      -5.111  75.133 114.577  0.00  0.00     0.006 C 
ENDBRANCH   8  11
ENDBRANCH   7   8
ENDBRANCH   1   7
BRANCH   6  13
ATOM     13  N   LIG d   1      -3.921  77.185 117.653  0.00  0.00    -0.311 N 
ATOM     14  C   LIG d   1      -2.822  77.158 116.901  0.00  0.00     0.210 C 
ATOM     15  C   LIG d   1      -1.615  76.470 117.544  0.00  0.00     0.109 C 
ATOM     16  O   LIG d   1      -2.724  77.667 115.774  0.00  0.00    -0.276 OA
ATOM     17  H   LIG d   1      -3.903  76.777 118.567  0.00  0.00     0.149 HD
ENDBRANCH   6  13
BRANCH   5  18
ATOM     18  N   LIG d   1      -4.374  80.168 117.176  0.00  0.00     0.381 N 
ATOM     19  H   LIG d   1      -4.811  81.032 116.923  0.00  0.00    -0.090 HD
ATOM     20  H   LIG d   1      -3.969  79.766 116.349  0.00  0.00    -0.090 HD
ATOM     21  H   LIG d   1      -3.663  80.333 117.855  0.00  0.00    -0.090 HD
ENDBRANCH   5  18
BRANCH   3  22
ATOM     22  C   LIG d   1      -9.050  79.424 117.895  0.00  0.00     0.382 C 
ATOM     23  O   LIG d   1      -9.160  80.651 118.131  0.00  0.00    -0.241 OA
ATOM     24  O   LIG d   1     -10.060  78.697 117.942  0.00  0.00    -0.241 OA
ENDBRANCH   3  22
TORSDOF 7
ENDMDL
MODEL 3
REMARK VINA RESULT:      -5.2      1.973      2.863
REMARK  7 active torsions:
REMARK  status: ('A' for Active; 'I' for Inactive)
REMARK    1  A    between atoms: C_2  and  C_3 
REMARK    2  A    between atoms: C_3  and  O_6 
REMARK    3  A    between atoms: C_3  and  C_4 
REMARK    4  A    between atoms: C_7  and  O_6 
REMARK    5  A    between atoms: C_9  and  C_10 
REMARK    6  A    between atoms: N_15  and  C_14 
REMARK    7  A    between atoms: N_20  and  C_19 
REMARK       I    between atoms: C_22  and  N_20 
ROOT
ATOM      1  C   LIG d   1      -5.015  77.047 117.455  0.00  0.00     0.161 C 
ATOM      2  C   LIG d   1      -5.847  78.156 117.681  0.00  0.00     0.016 C 
ATOM      3  C   LIG d   1      -5.461  79.487 117.402  0.00  0.00     0.038 C 
ATOM      4  C   LIG d   1      -4.266  79.788 116.732  0.00  0.00     0.028 C 
ATOM      5  C   LIG d   1      -3.175  78.743 116.941  0.00  0.00    -0.047 C 
ATOM      6  C   LIG d   1      -3.751  77.345 116.622  0.00  0.00     0.091 C 
ENDROOT
BRANCH   1   7
ATOM      7  O   LIG d   1      -5.775  75.982 116.849  0.00  0.00    -0.368 OA
BRANCH   7   8
ATOM      8  C   LIG d   1      -6.812  76.387 115.921  0.00  0.00     0.119 C 
BRANCH   8   9
ATOM      9  C   LIG d   1      -8.159  75.904 116.493  0.00  0.00     0.028 C 
ATOM     10  C   LIG d   1      -8.654  74.613 115.820  0.00  0.00     0.006 C 
ENDBRANCH   8   9
BRANCH   8  11
ATOM     11  C   LIG d   1      -6.664  75.672 114.575  0.00  0.00     0.028 C 
ATOM     12  C   LIG d   1      -5.326  74.929 114.438  0.00  0.00     0.006 C 
ENDBRANCH   8  11
ENDBRANCH   7   8
ENDBRANCH   1   7
BRANCH   6  13
ATOM     13  N   LIG d   1      -2.774  76.256 116.881  0.00  0.00    -0.311 N 
ATOM     14  C   LIG d   1      -2.001  75.723 115.936  0.00  0.00     0.210 C 
ATOM     15  C   LIG d   1      -1.078  74.598 116.414  0.00  0.00     0.109 C 
ATOM     16  O   LIG d   1      -1.970  76.097 114.754  0.00  0.00    -0.276 OA
ATOM     17  H   LIG d   1      -2.711  75.914 117.820  0.00  0.00     0.149 HD
ENDBRANCH   6  13
BRANCH   5  18
ATOM     18  N   LIG d   1      -2.036  79.110 116.079  0.00  0.00     0.381 N 
ATOM     19  H   LIG d   1      -2.265  78.934 115.121  0.00  0.00    -0.090 HD
ATOM     20  H   LIG d   1      -1.246  78.539 116.324  0.00  0.00    -0.090 HD
ATOM     21  H   LIG d   1      -1.810  80.072 116.203  0.00  0.00    -0.090 HD
ENDBRANCH   5  18
BRANCH   3  22
ATOM     22  C   LIG d   1      -6.258  80.538 117.830  0.00  0.00     0.382 C 
ATOM     23  O   LIG d   1      -6.144  80.974 119.001  0.00  0.00    -0.241 OA
ATOM     24  O   LIG d   1      -7.121  81.025 117.075  0.00  0.00    -0.241 OA
ENDBRANCH   3  22
TORSDOF 7
ENDMDL
MODEL 4
REMARK VINA RESULT:      -5.1      2.444      6.422
REMARK  7 active torsions:
REMARK  status: ('A' for Active; 'I' for Inactive)
REMARK    1  A    between atoms: C_2  and  C_3 
REMARK    2  A    between atoms: C_3  and  O_6 
REMARK    3  A    between atoms: C_3  and  C_4 
REMARK    4  A    between atoms: C_7  and  O_6 
REMARK    5  A    between atoms: C_9  and  C_10 
REMARK    6  A    between atoms: N_15  and  C_14 
REMARK    7  A    between atoms: N_20  and  C_19 
REMARK       I    between atoms: C_22  and  N_20 
ROOT
ATOM      1  C   LIG d   1      -5.219  78.148 116.939  0.00  0.00     0.161 C 
ATOM      2  C   LIG d   1      -4.429  77.319 116.125  0.00  0.00     0.016 C 
ATOM      3  C   LIG d   1      -4.918  76.152 115.494  0.00  0.00     0.038 C 
ATOM      4  C   LIG d   1      -6.280  75.814 115.514  0.00  0.00     0.028 C 
ATOM      5  C   LIG d   1      -7.018  76.343 116.739  0.00  0.00    -0.047 C 
ATOM      6  C   LIG d   1      -6.734  77.856 116.881  0.00  0.00     0.091 C 
ENDROOT
BRANCH   1   7
ATOM      7  O   LIG d   1      -4.963  79.530 116.623  0.00  0.00    -0.368 OA
BRANCH   7   8
ATOM      8  C   LIG d   1      -3.900  80.168 117.373  0.00  0.00     0.119 C 
BRANCH   8   9
ATOM      9  C   LIG d   1      -4.519  80.730 118.668  0.00  0.00     0.028 C 
ATOM     10  C   LIG d   1      -3.936  80.072 119.930  0.00  0.00     0.006 C 
ENDBRANCH   8   9
BRANCH   8  11
ATOM     11  C   LIG d   1      -3.345  81.386 116.627  0.00  0.00     0.028 C 
ATOM     12  C   LIG d   1      -1.961  81.817 117.137  0.00  0.00     0.006 C 
ENDBRANCH   8  11
ENDBRANCH   7   8
ENDBRANCH   1   7
BRANCH   6  13
ATOM     13  N   LIG d   1      -7.350  78.436 118.102  0.00  0.00    -0.311 N 
ATOM     14  C   LIG d   1      -8.046  79.572 118.104  0.00  0.00     0.210 C 
ATOM     15  C   LIG d   1      -8.578  80.003 119.474  0.00  0.00     0.109 C 
ATOM     16  O   LIG d   1      -8.300  80.247 117.095  0.00  0.00    -0.276 OA
ATOM     17  H   LIG d   1      -7.220  77.937 118.960  0.00  0.00     0.149 HD
ENDBRANCH   6  13
BRANCH   5  18
ATOM     18  N   LIG d   1      -8.450  76.038 116.562  0.00  0.00     0.381 N 
ATOM     19  H   LIG d   1      -8.672  76.006 115.587  0.00  0.00    -0.090 HD
ATOM     20  H   LIG d   1      -8.993  76.771 116.985  0.00  0.00    -0.090 HD
ATOM     21  H   LIG d   1      -8.668  75.165 116.989  0.00  0.00    -0.090 HD
ENDBRANCH   5  18
BRANCH   3  22
ATOM     22  C   LIG d   1      -4.034  75.287 114.869  0.00  0.00     0.382 C 
ATOM     23  O   LIG d   1      -2.800  75.504 114.923  0.00  0.00    -0.241 OA
ATOM     24  O   LIG d   1      -4.457  74.316 114.213  0.00  0.00    -0.241 OA
ENDBRANCH   3  22
TORSDOF 7
ENDMDL
MODEL 5
REMARK VINA RESULT:      -5.0      2.438      6.299
REMARK  7 active torsions:
REMARK  status: ('A' for Active; 'I' for Inactive)
REMARK    1  A    between atoms: C_2  and  C_3 
REMARK    2  A    between atoms: C_3  and  O_6 
REMARK    3  A    between atoms: C_3  and  C_4 
REMARK    4  A    between atoms: C_7  and  O_6 
REMARK    5  A    between atoms: C_9  and  C_10 
REMARK    6  A    between atoms: N_15  and  C_14 
REMARK    7  A    between atoms: N_20  and  C_19 
REMARK       I    between atoms: C_22  and  N_20 
ROOT
ATOM      1  C   LIG d   1      -5.170  78.412 117.008  0.00  0.00     0.161 C 
ATOM      2  C   LIG d   1      -4.306  77.628 116.227  0.00  0.00     0.016 C 
ATOM      3  C   LIG d   1      -4.697  76.417 115.610  0.00  0.00     0.038 C 
ATOM      4  C   LIG d   1      -6.031  75.983 115.609  0.00  0.00     0.028 C 
ATOM      5  C   LIG d   1      -6.831  76.481 116.808  0.00  0.00    -0.047 C 
ATOM      6  C   LIG d   1      -6.658  78.012 116.926  0.00  0.00     0.091 C 
ENDROOT
BRANCH   1   7
ATOM      7  O   LIG d   1      -5.006  79.804 116.671  0.00  0.00    -0.368 OA
BRANCH   7   8
ATOM      8  C   LIG d   1      -4.395  80.638 117.686  0.00  0.00     0.119 C 
BRANCH   8   9
ATOM      9  C   LIG d   1      -2.978  80.996 117.199  0.00  0.00     0.028 C 
ATOM     10  C   LIG d   1      -2.972  82.198 116.241  0.00  0.00     0.006 C 
ENDBRANCH   8   9
BRANCH   8  11
ATOM     11  C   LIG d   1      -4.193  79.866 118.993  0.00  0.00     0.028 C 
ATOM     12  C   LIG d   1      -3.176  80.538 119.930  0.00  0.00     0.006 C 
ENDBRANCH   8  11
ENDBRANCH   7   8
ENDBRANCH   1   7
BRANCH   6  13
ATOM     13  N   LIG d   1      -7.340  78.569 118.124  0.00  0.00    -0.311 N 
ATOM     14  C   LIG d   1      -8.086  79.673 118.096  0.00  0.00     0.210 C 
ATOM     15  C   LIG d   1      -8.682  80.084 119.446  0.00  0.00     0.109 C 
ATOM     16  O   LIG d   1      -8.336  80.332 117.076  0.00  0.00    -0.276 OA
ATOM     17  H   LIG d   1      -7.217  78.079 118.988  0.00  0.00     0.149 HD
ENDBRANCH   6  13
BRANCH   5  18
ATOM     18  N   LIG d   1      -8.234  76.071 116.610  0.00  0.00     0.381 N 
ATOM     19  H   LIG d   1      -8.360  75.735 115.675  0.00  0.00    -0.090 HD
ATOM     20  H   LIG d   1      -8.828  76.870 116.740  0.00  0.00    -0.090 HD
ATOM     21  H   LIG d   1      -8.477  75.357 117.262  0.00  0.00    -0.090 HD
ENDBRANCH   5  18
BRANCH   3  22
ATOM     22  C   LIG d   1      -3.740  75.606 115.019  0.00  0.00     0.382 C 
ATOM     23  O   LIG d   1      -2.590  76.054 114.797  0.00  0.00    -0.241 OA
ATOM     24  O   LIG d   1      -4.026  74.446 114.666  0.00  0.00    -0.241 OA
ENDBRANCH   3  22
TORSDOF 7
ENDMDL
MODEL 6
REMARK VINA RESULT:      -5.0      3.830      6.579
REMARK  7 active torsions:
REMARK  status: ('A' for Active; 'I' for Inactive)
REMARK    1  A    between atoms: C_2  and  C_3 
REMARK    2  A    between atoms: C_3  and  O_6 
REMARK    3  A    between atoms: C_3  and  C_4 
REMARK    4  A    between atoms: C_7  and  O_6 
REMARK    5  A    between atoms: C_9  and  C_10 
REMARK    6  A    between atoms: N_15  and  C_14 
REMARK    7  A    between atoms: N_20  and  C_19 
REMARK       I    between atoms: C_22  and  N_20 
ROOT
ATOM      1  C   LIG d   1      -2.892  79.933 115.496  0.00  0.00     0.161 C 
ATOM      2  C   LIG d   1      -2.739  81.176 114.858  0.00  0.00     0.016 C 
ATOM      3  C   LIG d   1      -2.203  81.322 113.559  0.00  0.00     0.038 C 
ATOM      4  C   LIG d   1      -1.921  80.216 112.743  0.00  0.00     0.028 C 
ATOM      5  C   LIG d   1      -1.587  78.953 113.530  0.00  0.00    -0.047 C 
ATOM      6  C   LIG d   1      -2.695  78.707 114.579  0.00  0.00     0.091 C 
ENDROOT
BRANCH   1   7
ATOM      7  O   LIG d   1      -4.178  79.872 116.144  0.00  0.00    -0.368 OA
BRANCH   7   8
ATOM      8  C   LIG d   1      -4.378  80.784 117.251  0.00  0.00     0.119 C 
BRANCH   8   9
ATOM      9  C   LIG d   1      -3.145  80.675 118.169  0.00  0.00     0.028 C 
ATOM     10  C   LIG d   1      -3.527  80.561 119.654  0.00  0.00     0.006 C 
ENDBRANCH   8   9
BRANCH   8  11
ATOM     11  C   LIG d   1      -5.567  80.357 118.118  0.00  0.00     0.028 C 
ATOM     12  C   LIG d   1      -6.896  80.973 117.651  0.00  0.00     0.006 C 
ENDBRANCH   8  11
ENDBRANCH   7   8
ENDBRANCH   1   7
BRANCH   6  13
ATOM     13  N   LIG d   1      -2.402  77.538 115.449  0.00  0.00    -0.311 N 
ATOM     14  C   LIG d   1      -2.850  76.309 115.199  0.00  0.00     0.210 C 
ATOM     15  C   LIG d   1      -2.449  75.252 116.233  0.00  0.00     0.109 C 
ATOM     16  O   LIG d   1      -3.513  75.986 114.202  0.00  0.00    -0.276 OA
ATOM     17  H   LIG d   1      -1.844  77.704 116.263  0.00  0.00     0.149 HD
ENDBRANCH   6  13
BRANCH   5  18
ATOM     18  N   LIG d   1      -1.451  77.848 112.562  0.00  0.00     0.381 N 
ATOM     19  H   LIG d   1      -1.733  78.157 111.653  0.00  0.00    -0.090 HD
ATOM     20  H   LIG d   1      -2.056  77.096 112.841  0.00  0.00    -0.090 HD
ATOM     21  H   LIG d   1      -0.507  77.532 112.535  0.00  0.00    -0.090 HD
ENDBRANCH   5  18
BRANCH   3  22
ATOM     22  C   LIG d   1      -1.905  82.588 113.077  0.00  0.00     0.382 C 
ATOM     23  O   LIG d   1      -1.764  83.546 113.876  0.00  0.00    -0.241 OA
ATOM     24  O   LIG d   1      -1.820  82.794 111.852  0.00  0.00    -0.241 OA
ENDBRANCH   3  22
TORSDOF 7
ENDMDL
MODEL 7
REMARK VINA RESULT:      -4.8      1.817      4.680
REMARK  7 active torsions:
REMARK  status: ('A' for Active; 'I' for Inactive)
REMARK    1  A    between atoms: C_2  and  C_3 
REMARK    2  A    between atoms: C_3  and  O_6 
REMARK    3  A    between atoms: C_3  and  C_4 
REMARK    4  A    between atoms: C_7  and  O_6 
REMARK    5  A    between atoms: C_9  and  C_10 
REMARK    6  A    between atoms: N_15  and  C_14 
REMARK    7  A    between atoms: N_20  and  C_19 
REMARK       I    between atoms: C_22  and  N_20 
ROOT
ATOM      1  C   LIG d   1      -6.252  77.694 117.079  0.00  0.00     0.161 C 
ATOM      2  C   LIG d   1      -4.933  77.236 117.233  0.00  0.00     0.016 C 
ATOM      3  C   LIG d   1      -4.005  77.822 118.124  0.00  0.00     0.038 C 
ATOM      4  C   LIG d   1      -4.381  78.818 119.038  0.00  0.00     0.028 C 
ATOM      5  C   LIG d   1      -5.567  79.654 118.568  0.00  0.00    -0.047 C 
ATOM      6  C   LIG d   1      -6.714  78.707 118.147  0.00  0.00     0.091 C 
ENDROOT
BRANCH   1   7
ATOM      7  O   LIG d   1      -7.155  76.572 117.029  0.00  0.00    -0.368 OA
BRANCH   7   8
ATOM      8  C   LIG d   1      -6.736  75.452 116.211  0.00  0.00     0.119 C 
BRANCH   8   9
ATOM      9  C   LIG d   1      -6.977  75.838 114.739  0.00  0.00     0.028 C 
ATOM     10  C   LIG d   1      -5.725  75.642 113.868  0.00  0.00     0.006 C 
ENDBRANCH   8   9
BRANCH   8  11
ATOM     11  C   LIG d   1      -7.615  74.222 116.457  0.00  0.00     0.028 C 
ATOM     12  C   LIG d   1      -9.037  74.384 115.896  0.00  0.00     0.006 C 
ENDBRANCH   8  11
ENDBRANCH   7   8
ENDBRANCH   1   7
BRANCH   6  13
ATOM     13  N   LIG d   1      -7.882  79.442 117.595  0.00  0.00    -0.311 N 
ATOM     14  C   LIG d   1      -8.931  79.807 118.329  0.00  0.00     0.210 C 
ATOM     15  C   LIG d   1     -10.036  80.538 117.559  0.00  0.00     0.109 C 
ATOM     16  O   LIG d   1      -9.038  79.624 119.551  0.00  0.00    -0.276 OA
ATOM     17  H   LIG d   1      -7.864  79.658 116.618  0.00  0.00     0.149 HD
ENDBRANCH   6  13
BRANCH   5  18
ATOM     18  N   LIG d   1      -5.940  80.559 119.672  0.00  0.00     0.381 N 
ATOM     19  H   LIG d   1      -5.952  81.504 119.346  0.00  0.00    -0.090 HD
ATOM     20  H   LIG d   1      -5.250  80.485 120.400  0.00  0.00    -0.090 HD
ATOM     21  H   LIG d   1      -6.837  80.311 120.028  0.00  0.00    -0.090 HD
ENDBRANCH   5  18
BRANCH   3  22
ATOM     22  C   LIG d   1      -2.673  77.440 118.078  0.00  0.00     0.382 C 
ATOM     23  O   LIG d   1      -2.091  77.323 116.973  0.00  0.00    -0.241 OA
ATOM     24  O   LIG d   1      -2.057  77.168 119.127  0.00  0.00    -0.241 OA
ENDBRANCH   3  22
TORSDOF 7
ENDMDL
MODEL 8
REMARK VINA RESULT:      -4.7      4.492      5.493
REMARK  7 active torsions:
REMARK  status: ('A' for Active; 'I' for Inactive)
REMARK    1  A    between atoms: C_2  and  C_3 
REMARK    2  A    between atoms: C_3  and  O_6 
REMARK    3  A    between atoms: C_3  and  C_4 
REMARK    4  A    between atoms: C_7  and  O_6 
REMARK    5  A    between atoms: C_9  and  C_10 
REMARK    6  A    between atoms: N_15  and  C_14 
REMARK    7  A    between atoms: N_20  and  C_19 
REMARK       I    between atoms: C_22  and  N_20 
ROOT
ATOM      1  C   LIG d   1      -1.585  78.007 114.710  0.00  0.00     0.161 C 
ATOM      2  C   LIG d   1      -1.884  78.313 116.048  0.00  0.00     0.016 C 
ATOM      3  C   LIG d   1      -2.488  79.526 116.451  0.00  0.00     0.038 C 
ATOM      4  C   LIG d   1      -2.975  80.457 115.522  0.00  0.00     0.028 C 
ATOM      5  C   LIG d   1      -2.241  80.420 114.186  0.00  0.00    -0.047 C 
ATOM      6  C   LIG d   1      -2.209  78.962 113.672  0.00  0.00     0.091 C 
ENDROOT
BRANCH   1   7
ATOM      7  O   LIG d   1      -1.959  76.644 114.425  0.00  0.00    -0.368 OA
BRANCH   7   8
ATOM      8  C   LIG d   1      -2.961  76.064 115.296  0.00  0.00     0.119 C 
BRANCH   8   9
ATOM      9  C   LIG d   1      -2.545  74.606 115.574  0.00  0.00     0.028 C 
ATOM     10  C   LIG d   1      -1.219  74.513 116.348  0.00  0.00     0.006 C 
ENDBRANCH   8   9
BRANCH   8  11
ATOM     11  C   LIG d   1      -4.320  75.970 114.595  0.00  0.00     0.028 C 
ATOM     12  C   LIG d   1      -4.934  74.563 114.673  0.00  0.00     0.006 C 
ENDBRANCH   8  11
ENDBRANCH   7   8
ENDBRANCH   1   7
BRANCH   6  13
ATOM     13  N   LIG d   1      -1.436  78.823 112.410  0.00  0.00    -0.311 N 
ATOM     14  C   LIG d   1      -1.960  78.358 111.277  0.00  0.00     0.210 C 
ATOM     15  C   LIG d   1      -0.984  78.277 110.099  0.00  0.00     0.109 C 
ATOM     16  O   LIG d   1      -3.148  78.035 111.127  0.00  0.00    -0.276 OA
ATOM     17  H   LIG d   1      -0.472  79.092 112.434  0.00  0.00     0.149 HD
ENDBRANCH   6  13
BRANCH   5  18
ATOM     18  N   LIG d   1      -2.938  81.341 113.268  0.00  0.00     0.381 N 
ATOM     19  H   LIG d   1      -3.226  82.160 113.765  0.00  0.00    -0.090 HD
ATOM     20  H   LIG d   1      -3.759  80.885 112.911  0.00  0.00    -0.090 HD
ATOM     21  H   LIG d   1      -2.336  81.594 112.517  0.00  0.00    -0.090 HD
ENDBRANCH   5  18
BRANCH   3  22
ATOM     22  C   LIG d   1      -2.575  79.835 117.800  0.00  0.00     0.382 C 
ATOM     23  O   LIG d   1      -2.886  80.997 118.159  0.00  0.00    -0.241 OA
ATOM     24  O   LIG d   1      -2.302  78.979 118.663  0.00  0.00    -0.241 OA
ENDBRANCH   3  22
TORSDOF 7
ENDMDL
MODEL 9
REMARK VINA RESULT:      -4.6      2.317      4.954
REMARK  7 active torsions:
REMARK  status: ('A' for Active; 'I' for Inactive)
REMARK    1  A    between atoms: C_2  and  C_3 
REMARK    2  A    between atoms: C_3  and  O_6 
REMARK    3  A    between atoms: C_3  and  C_4 
REMARK    4  A    between atoms: C_7  and  O_6 
REMARK    5  A    between atoms: C_9  and  C_10 
REMARK    6  A    between atoms: N_15  and  C_14 
REMARK    7  A    between atoms: N_20  and  C_19 
REMARK       I    between atoms: C_22  and  N_20 
ROOT
ATOM      1  C   LIG d   1      -4.940  77.595 116.722  0.00  0.00     0.161 C 
ATOM      2  C   LIG d   1      -6.242  77.072 116.641  0.00  0.00     0.016 C 
ATOM      3  C   LIG d   1      -6.518  75.699 116.447  0.00  0.00     0.038 C 
ATOM      4  C   LIG d   1      -5.506  74.728 116.471  0.00  0.00     0.028 C 
ATOM      5  C   LIG d   1      -4.143  75.263 116.045  0.00  0.00    -0.047 C 
ATOM      6  C   LIG d   1      -3.826  76.537 116.862  0.00  0.00     0.091 C 
ENDROOT
BRANCH   1   7
ATOM      7  O   LIG d   1      -4.863  78.549 117.799  0.00  0.00    -0.368 OA
BRANCH   7   8
ATOM      8  C   LIG d   1      -5.046  79.939 117.433  0.00  0.00     0.119 C 
BRANCH   8   9
ATOM      9  C   LIG d   1      -3.753  80.690 117.806  0.00  0.00     0.028 C 
ATOM     10  C   LIG d   1      -2.890  81.019 116.577  0.00  0.00     0.006 C 
ENDBRANCH   8   9
BRANCH   8  11
ATOM     11  C   LIG d   1      -6.150  80.595 118.267  0.00  0.00     0.028 C 
ATOM     12  C   LIG d   1      -7.507  80.619 117.546  0.00  0.00     0.006 C 
ENDBRANCH   8  11
ENDBRANCH   7   8
ENDBRANCH   1   7
BRANCH   6  13
ATOM     13  N   LIG d   1      -2.548  77.172 116.448  0.00  0.00    -0.311 N 
ATOM     14  C   LIG d   1      -1.603  77.546 117.309  0.00  0.00     0.210 C 
ATOM     15  C   LIG d   1      -0.372  78.200 116.674  0.00  0.00     0.109 C 
ATOM     16  O   LIG d   1      -1.653  77.370 118.535  0.00  0.00    -0.276 OA
ATOM     17  H   LIG d   1      -2.410  77.325 115.468  0.00  0.00     0.149 HD
ENDBRANCH   6  13
BRANCH   5  18
ATOM     18  N   LIG d   1      -3.157  74.185 116.249  0.00  0.00     0.381 N 
ATOM     19  H   LIG d   1      -2.502  74.454 116.956  0.00  0.00    -0.090 HD
ATOM     20  H   LIG d   1      -2.653  74.039 115.392  0.00  0.00    -0.090 HD
ATOM     21  H   LIG d   1      -3.621  73.345 116.518  0.00  0.00    -0.090 HD
ENDBRANCH   5  18
BRANCH   3  22
ATOM     22  C   LIG d   1      -7.817  75.290 116.185  0.00  0.00     0.382 C 
ATOM     23  O   LIG d   1      -8.784  75.982 116.583  0.00  0.00    -0.241 OA
ATOM     24  O   LIG d   1      -8.033  74.215 115.594  0.00  0.00    -0.241 OA
ENDBRANCH   3  22
TORSDOF 7
ENDMDL
