MODEL 1
REMARK VINA RESULT:      -5.7      0.000      0.000
REMARK  7 active torsions:
REMARK  status: ('A' for Active; 'I' for Inactive)
REMARK    1  A    between atoms: C_2  and  C_3 
REMARK    2  A    between atoms: C_3  and  O_6 
REMARK    3  A    between atoms: C_3  and  C_4 
REMARK    4  A    between atoms: C_7  and  O_6 
REMARK    5  A    between atoms: C_9  and  C_10 
REMARK    6  A    between atoms: N_15  and  C_14 
REMARK    7  A    between atoms: N_20  and  C_19 
REMARK       I    between atoms: C_22  and  N_20 
ROOT
ATOM      1  C   LIG d   1      -2.852  79.751 115.563  0.00  0.00     0.161 C 
ATOM      2  C   LIG d   1      -2.671  80.981 114.909  0.00  0.00     0.016 C 
ATOM      3  C   LIG d   1      -2.108  81.100 113.618  0.00  0.00     0.038 C 
ATOM      4  C   LIG d   1      -1.824  79.977 112.826  0.00  0.00     0.028 C 
ATOM      5  C   LIG d   1      -1.520  78.724 113.640  0.00  0.00    -0.047 C 
ATOM      6  C   LIG d   1      -2.651  78.508 114.671  0.00  0.00     0.091 C 
ENDROOT
BRANCH   1   7
ATOM      7  O   LIG d   1      -4.151  79.716 116.186  0.00  0.00    -0.368 OA
BRANCH   7   8
ATOM      8  C   LIG d   1      -4.296  80.489 117.403  0.00  0.00     0.119 C 
BRANCH   8   9
ATOM      9  C   LIG d   1      -3.144  80.088 118.345  0.00  0.00     0.028 C 
ATOM     10  C   LIG d   1      -3.389  80.538 119.796  0.00  0.00     0.006 C 
ENDBRANCH   8   9
BRANCH   8  11
ATOM     11  C   LIG d   1      -5.579  80.116 118.151  0.00  0.00     0.028 C 
ATOM     12  C   LIG d   1      -6.749  81.063 117.836  0.00  0.00     0.006 C 
ENDBRANCH   8  11
ENDBRANCH   7   8
ENDBRANCH   1   7
BRANCH   6  13
ATOM     13  N   LIG d   1      -2.390  77.350 115.565  0.00  0.00    -0.311 N 
ATOM     14  C   LIG d   1      -2.782  76.108 115.288  0.00  0.00     0.210 C 
ATOM     15  C   LIG d   1      -2.429  75.066 116.354  0.00  0.00     0.109 C 
ATOM     16  O   LIG d   1      -3.360  75.764 114.246  0.00  0.00    -0.276 OA
ATOM     17  H   LIG d   1      -1.899  77.534 116.418  0.00  0.00     0.149 HD
ENDBRANCH   6  13
BRANCH   5  18
ATOM     18  N   LIG d   1      -1.379  77.602 112.693  0.00  0.00     0.381 N 
ATOM     19  H   LIG d   1      -1.987  76.854 112.961  0.00  0.00    -0.090 HD
ATOM     20  H   LIG d   1      -0.432  77.265 112.726  0.00  0.00    -0.090 HD
ATOM     21  H   LIG d   1      -1.600  77.904 111.770  0.00  0.00    -0.090 HD
ENDBRANCH   5  18
BRANCH   3  22
ATOM     22  C   LIG d   1      -1.785  82.354 113.122  0.00  0.00     0.382 C 
ATOM     23  O   LIG d   1      -1.450  82.486 111.920  0.00  0.00    -0.241 OA
ATOM     24  O   LIG d   1      -1.782  83.349 113.872  0.00  0.00    -0.241 OA
ENDBRANCH   3  22
TORSDOF 7
ENDMDL
MODEL 2
REMARK VINA RESULT:      -5.5      2.534      3.597
REMARK  7 active torsions:
REMARK  status: ('A' for Active; 'I' for Inactive)
REMARK    1  A    between atoms: C_2  and  C_3 
REMARK    2  A    between atoms: C_3  and  O_6 
REMARK    3  A    between atoms: C_3  and  C_4 
REMARK    4  A    between atoms: C_7  and  O_6 
REMARK    5  A    between atoms: C_9  and  C_10 
REMARK    6  A    between atoms: N_15  and  C_14 
REMARK    7  A    between atoms: N_20  and  C_19 
REMARK       I    between atoms: C_22  and  N_20 
ROOT
ATOM      1  C   LIG d   1      -2.689  78.029 116.470  0.00  0.00     0.161 C 
ATOM      2  C   LIG d   1      -2.974  78.847 115.365  0.00  0.00     0.016 C 
ATOM      3  C   LIG d   1      -2.266  78.779 114.143  0.00  0.00     0.038 C 
ATOM      4  C   LIG d   1      -1.319  77.776 113.890  0.00  0.00     0.028 C 
ATOM      5  C   LIG d   1      -0.644  77.248 115.152  0.00  0.00    -0.047 C 
ATOM      6  C   LIG d   1      -1.732  76.854 116.176  0.00  0.00     0.091 C 
ENDROOT
BRANCH   1   7
ATOM      7  O   LIG d   1      -3.916  77.543 117.048  0.00  0.00    -0.368 OA
BRANCH   7   8
ATOM      8  C   LIG d   1      -5.002  77.294 116.122  0.00  0.00     0.119 C 
BRANCH   8   9
ATOM      9  C   LIG d   1      -6.320  77.596 116.861  0.00  0.00     0.028 C 
ATOM     10  C   LIG d   1      -7.300  76.411 116.822  0.00  0.00     0.006 C 
ENDBRANCH   8   9
BRANCH   8  11
ATOM     11  C   LIG d   1      -5.081  75.812 115.741  0.00  0.00     0.028 C 
ATOM     12  C   LIG d   1      -4.751  75.558 114.262  0.00  0.00     0.006 C 
ENDBRANCH   8  11
ENDBRANCH   7   8
ENDBRANCH   1   7
BRANCH   6  13
ATOM     13  N   LIG d   1      -1.157  76.406 117.471  0.00  0.00    -0.311 N 
ATOM     14  C   LIG d   1      -0.894  75.132 117.755  0.00  0.00     0.210 C 
ATOM     15  C   LIG d   1      -0.322  74.886 119.155  0.00  0.00     0.109 C 
ATOM     16  O   LIG d   1      -1.050  74.185 116.969  0.00  0.00    -0.276 OA
ATOM     17  H   LIG d   1      -0.970  77.113 118.155  0.00  0.00     0.149 HD
ENDBRANCH   6  13
BRANCH   5  18
ATOM     18  N   LIG d   1       0.216  76.117 114.757  0.00  0.00     0.381 N 
ATOM     19  H   LIG d   1       0.767  76.371 113.962  0.00  0.00    -0.090 HD
ATOM     20  H   LIG d   1      -0.367  75.339 114.501  0.00  0.00    -0.090 HD
ATOM     21  H   LIG d   1       0.811  75.860 115.514  0.00  0.00    -0.090 HD
ENDBRANCH   5  18
BRANCH   3  22
ATOM     22  C   LIG d   1      -2.477  79.746 113.171  0.00  0.00     0.382 C 
ATOM     23  O   LIG d   1      -1.877  79.671 112.072  0.00  0.00    -0.241 OA
ATOM     24  O   LIG d   1      -3.225  80.715 113.397  0.00  0.00    -0.241 OA
ENDBRANCH   3  22
TORSDOF 7
ENDMDL
MODEL 3
REMARK VINA RESULT:      -5.5      3.080      4.860
REMARK  7 active torsions:
REMARK  status: ('A' for Active; 'I' for Inactive)
REMARK    1  A    between atoms: C_2  and  C_3 
REMARK    2  A    between atoms: C_3  and  O_6 
REMARK    3  A    between atoms: C_3  and  C_4 
REMARK    4  A    between atoms: C_7  and  O_6 
REMARK    5  A    between atoms: C_9  and  C_10 
REMARK    6  A    between atoms: N_15  and  C_14 
REMARK    7  A    between atoms: N_20  and  C_19 
REMARK       I    between atoms: C_22  and  N_20 
ROOT
ATOM      1  C   LIG d   1      -4.651  77.638 116.637  0.00  0.00     0.161 C 
ATOM      2  C   LIG d   1      -5.462  78.663 117.151  0.00  0.00     0.016 C 
ATOM      3  C   LIG d   1      -5.003  79.983 117.368  0.00  0.00     0.038 C 
ATOM      4  C   LIG d   1      -3.736  80.407 116.940  0.00  0.00     0.028 C 
ATOM      5  C   LIG d   1      -2.710  79.281 116.878  0.00  0.00    -0.047 C 
ATOM      6  C   LIG d   1      -3.300  78.109 116.061  0.00  0.00     0.091 C 
ENDROOT
BRANCH   1   7
ATOM      7  O   LIG d   1      -5.383  76.886 115.648  0.00  0.00    -0.368 OA
BRANCH   7   8
ATOM      8  C   LIG d   1      -5.842  75.574 116.055  0.00  0.00     0.119 C 
BRANCH   8   9
ATOM      9  C   LIG d   1      -5.527  74.596 114.907  0.00  0.00     0.028 C 
ATOM     10  C   LIG d   1      -5.194  75.322 113.592  0.00  0.00     0.006 C 
ENDBRANCH   8   9
BRANCH   8  11
ATOM     11  C   LIG d   1      -7.366  75.540 116.210  0.00  0.00     0.028 C 
ATOM     12  C   LIG d   1      -7.834  76.003 117.598  0.00  0.00     0.006 C 
ENDBRANCH   8  11
ENDBRANCH   7   8
ENDBRANCH   1   7
BRANCH   6  13
ATOM     13  N   LIG d   1      -2.393  76.932 116.021  0.00  0.00    -0.311 N 
ATOM     14  C   LIG d   1      -1.896  76.427 114.893  0.00  0.00     0.210 C 
ATOM     15  C   LIG d   1      -0.997  75.200 115.075  0.00  0.00     0.109 C 
ATOM     16  O   LIG d   1      -2.089  76.898 113.762  0.00  0.00    -0.276 OA
ATOM     17  H   LIG d   1      -2.159  76.507 116.897  0.00  0.00     0.149 HD
ENDBRANCH   6  13
BRANCH   5  18
ATOM     18  N   LIG d   1      -1.477  79.835 116.287  0.00  0.00     0.381 N 
ATOM     19  H   LIG d   1      -0.994  79.120 115.780  0.00  0.00    -0.090 HD
ATOM     20  H   LIG d   1      -0.877  80.156 117.027  0.00  0.00    -0.090 HD
ATOM     21  H   LIG d   1      -1.700  80.591 115.678  0.00  0.00    -0.090 HD
ENDBRANCH   5  18
BRANCH   3  22
ATOM     22  C   LIG d   1      -5.802  80.884 118.056  0.00  0.00     0.382 C 
ATOM     23  O   LIG d   1      -6.775  81.426 117.479  0.00  0.00    -0.241 OA
ATOM     24  O   LIG d   1      -5.535  81.194 119.232  0.00  0.00    -0.241 OA
ENDBRANCH   3  22
TORSDOF 7
ENDMDL
MODEL 4
REMARK VINA RESULT:      -5.5      3.350      6.778
REMARK  7 active torsions:
REMARK  status: ('A' for Active; 'I' for Inactive)
REMARK    1  A    between atoms: C_2  and  C_3 
REMARK    2  A    between atoms: C_3  and  O_6 
REMARK    3  A    between atoms: C_3  and  C_4 
REMARK    4  A    between atoms: C_7  and  O_6 
REMARK    5  A    between atoms: C_9  and  C_10 
REMARK    6  A    between atoms: N_15  and  C_14 
REMARK    7  A    between atoms: N_20  and  C_19 
REMARK       I    between atoms: C_22  and  N_20 
ROOT
ATOM      1  C   LIG d   1      -5.868  77.634 117.094  0.00  0.00     0.161 C 
ATOM      2  C   LIG d   1      -7.234  77.357 117.273  0.00  0.00     0.016 C 
ATOM      3  C   LIG d   1      -8.162  78.303 117.767  0.00  0.00     0.038 C 
ATOM      4  C   LIG d   1      -7.812  79.646 117.974  0.00  0.00     0.028 C 
ATOM      5  C   LIG d   1      -6.333  79.845 118.287  0.00  0.00    -0.047 C 
ATOM      6  C   LIG d   1      -5.491  79.126 117.209  0.00  0.00     0.091 C 
ENDROOT
BRANCH   1   7
ATOM      7  O   LIG d   1      -5.423  77.100 115.831  0.00  0.00    -0.368 OA
BRANCH   7   8
ATOM      8  C   LIG d   1      -4.837  75.776 115.870  0.00  0.00     0.119 C 
BRANCH   8   9
ATOM      9  C   LIG d   1      -3.313  75.939 115.714  0.00  0.00     0.028 C 
ATOM     10  C   LIG d   1      -2.538  75.396 116.927  0.00  0.00     0.006 C 
ENDBRANCH   8   9
BRANCH   8  11
ATOM     11  C   LIG d   1      -5.280  74.935 114.669  0.00  0.00     0.028 C 
ATOM     12  C   LIG d   1      -5.348  75.748 113.366  0.00  0.00     0.006 C 
ENDBRANCH   8  11
ENDBRANCH   7   8
ENDBRANCH   1   7
BRANCH   6  13
ATOM     13  N   LIG d   1      -4.032  79.200 117.487  0.00  0.00    -0.311 N 
ATOM     14  C   LIG d   1      -3.128  79.542 116.570  0.00  0.00     0.210 C 
ATOM     15  C   LIG d   1      -1.677  79.537 117.060  0.00  0.00     0.109 C 
ATOM     16  O   LIG d   1      -3.393  79.880 115.407  0.00  0.00    -0.276 OA
ATOM     17  H   LIG d   1      -3.732  78.972 118.414  0.00  0.00     0.149 HD
ENDBRANCH   6  13
BRANCH   5  18
ATOM     18  N   LIG d   1      -6.082  81.298 118.343  0.00  0.00     0.381 N 
ATOM     19  H   LIG d   1      -5.445  81.503 119.086  0.00  0.00    -0.090 HD
ATOM     20  H   LIG d   1      -6.948  81.771 118.530  0.00  0.00    -0.090 HD
ATOM     21  H   LIG d   1      -5.704  81.612 117.476  0.00  0.00    -0.090 HD
ENDBRANCH   5  18
BRANCH   3  22
ATOM     22  C   LIG d   1      -9.446  77.898 118.096  0.00  0.00     0.382 C 
ATOM     23  O   LIG d   1     -10.060  78.462 119.034  0.00  0.00    -0.241 OA
ATOM     24  O   LIG d   1      -9.982  76.946 117.498  0.00  0.00    -0.241 OA
ENDBRANCH   3  22
TORSDOF 7
ENDMDL
MODEL 5
REMARK VINA RESULT:      -5.3      3.522      5.991
REMARK  7 active torsions:
REMARK  status: ('A' for Active; 'I' for Inactive)
REMARK    1  A    between atoms: C_2  and  C_3 
REMARK    2  A    between atoms: C_3  and  O_6 
REMARK    3  A    between atoms: C_3  and  C_4 
REMARK    4  A    between atoms: C_7  and  O_6 
REMARK    5  A    between atoms: C_9  and  C_10 
REMARK    6  A    between atoms: N_15  and  C_14 
REMARK    7  A    between atoms: N_20  and  C_19 
REMARK       I    between atoms: C_22  and  N_20 
ROOT
ATOM      1  C   LIG d   1      -5.864  78.235 117.187  0.00  0.00     0.161 C 
ATOM      2  C   LIG d   1      -4.704  78.596 116.482  0.00  0.00     0.016 C 
ATOM      3  C   LIG d   1      -3.885  79.692 116.838  0.00  0.00     0.038 C 
ATOM      4  C   LIG d   1      -4.090  80.416 118.023  0.00  0.00     0.028 C 
ATOM      5  C   LIG d   1      -5.540  80.406 118.495  0.00  0.00    -0.047 C 
ATOM      6  C   LIG d   1      -6.041  78.945 118.546  0.00  0.00     0.091 C 
ENDROOT
BRANCH   1   7
ATOM      7  O   LIG d   1      -5.906  76.805 117.359  0.00  0.00    -0.368 OA
BRANCH   7   8
ATOM      8  C   LIG d   1      -6.631  76.062 116.349  0.00  0.00     0.119 C 
BRANCH   8   9
ATOM      9  C   LIG d   1      -7.737  75.263 117.065  0.00  0.00     0.028 C 
ATOM     10  C   LIG d   1      -9.083  76.006 117.077  0.00  0.00     0.006 C 
ENDBRANCH   8   9
BRANCH   8  11
ATOM     11  C   LIG d   1      -5.739  75.011 115.682  0.00  0.00     0.028 C 
ATOM     12  C   LIG d   1      -5.386  75.363 114.228  0.00  0.00     0.006 C 
ENDBRANCH   8  11
ENDBRANCH   7   8
ENDBRANCH   1   7
BRANCH   6  13
ATOM     13  N   LIG d   1      -7.477  78.850 118.918  0.00  0.00    -0.311 N 
ATOM     14  C   LIG d   1      -8.449  79.471 118.252  0.00  0.00     0.210 C 
ATOM     15  C   LIG d   1      -9.858  79.256 118.815  0.00  0.00     0.109 C 
ATOM     16  O   LIG d   1      -8.283  80.152 117.229  0.00  0.00    -0.276 OA
ATOM     17  H   LIG d   1      -7.705  78.292 119.717  0.00  0.00     0.149 HD
ENDBRANCH   6  13
BRANCH   5  18
ATOM     18  N   LIG d   1      -5.585  81.078 119.808  0.00  0.00     0.381 N 
ATOM     19  H   LIG d   1      -4.849  81.753 119.868  0.00  0.00    -0.090 HD
ATOM     20  H   LIG d   1      -5.445  80.393 120.529  0.00  0.00    -0.090 HD
ATOM     21  H   LIG d   1      -6.467  81.525 119.931  0.00  0.00    -0.090 HD
ENDBRANCH   5  18
BRANCH   3  22
ATOM     22  C   LIG d   1      -2.872  80.100 115.985  0.00  0.00     0.382 C 
ATOM     23  O   LIG d   1      -3.110  80.271 114.765  0.00  0.00    -0.241 OA
ATOM     24  O   LIG d   1      -1.712  80.255 116.410  0.00  0.00    -0.241 OA
ENDBRANCH   3  22
TORSDOF 7
ENDMDL
MODEL 6
REMARK VINA RESULT:      -5.3      2.945      5.756
REMARK  7 active torsions:
REMARK  status: ('A' for Active; 'I' for Inactive)
REMARK    1  A    between atoms: C_2  and  C_3 
REMARK    2  A    between atoms: C_3  and  O_6 
REMARK    3  A    between atoms: C_3  and  C_4 
REMARK    4  A    between atoms: C_7  and  O_6 
REMARK    5  A    between atoms: C_9  and  C_10 
REMARK    6  A    between atoms: N_15  and  C_14 
REMARK    7  A    between atoms: N_20  and  C_19 
REMARK       I    between atoms: C_22  and  N_20 
ROOT
ATOM      1  C   LIG d   1      -4.509  78.321 116.570  0.00  0.00     0.161 C 
ATOM      2  C   LIG d   1      -4.062  77.380 115.628  0.00  0.00     0.016 C 
ATOM      3  C   LIG d   1      -4.838  76.277 115.201  0.00  0.00     0.038 C 
ATOM      4  C   LIG d   1      -6.180  76.125 115.579  0.00  0.00     0.028 C 
ATOM      5  C   LIG d   1      -6.509  76.770 116.922  0.00  0.00    -0.047 C 
ATOM      6  C   LIG d   1      -6.011  78.233 116.910  0.00  0.00     0.091 C 
ENDROOT
BRANCH   1   7
ATOM      7  O   LIG d   1      -4.171  79.651 116.130  0.00  0.00    -0.368 OA
BRANCH   7   8
ATOM      8  C   LIG d   1      -3.099  80.308 116.851  0.00  0.00     0.119 C 
BRANCH   8   9
ATOM      9  C   LIG d   1      -1.826  80.195 115.990  0.00  0.00     0.028 C 
ATOM     10  C   LIG d   1      -2.075  80.577 114.521  0.00  0.00     0.006 C 
ENDBRANCH   8   9
BRANCH   8  11
ATOM     11  C   LIG d   1      -2.773  79.575 118.155  0.00  0.00     0.028 C 
ATOM     12  C   LIG d   1      -3.059  80.425 119.403  0.00  0.00     0.006 C 
ENDBRANCH   8  11
ENDBRANCH   7   8
ENDBRANCH   1   7
BRANCH   6  13
ATOM     13  N   LIG d   1      -6.218  78.912 118.216  0.00  0.00    -0.311 N 
ATOM     14  C   LIG d   1      -6.693  80.151 118.330  0.00  0.00     0.210 C 
ATOM     15  C   LIG d   1      -6.809  80.669 119.768  0.00  0.00     0.109 C 
ATOM     16  O   LIG d   1      -7.061  80.859 117.380  0.00  0.00    -0.276 OA
ATOM     17  H   LIG d   1      -5.975  78.399 119.040  0.00  0.00     0.149 HD
ENDBRANCH   6  13
BRANCH   5  18
ATOM     18  N   LIG d   1      -7.965  76.656 117.126  0.00  0.00     0.381 N 
ATOM     19  H   LIG d   1      -8.171  75.821 117.638  0.00  0.00    -0.090 HD
ATOM     20  H   LIG d   1      -8.416  76.595 116.230  0.00  0.00    -0.090 HD
ATOM     21  H   LIG d   1      -8.303  77.450 117.624  0.00  0.00    -0.090 HD
ENDBRANCH   5  18
BRANCH   3  22
ATOM     22  C   LIG d   1      -4.258  75.290 114.419  0.00  0.00     0.382 C 
ATOM     23  O   LIG d   1      -3.014  75.268 114.258  0.00  0.00    -0.241 OA
ATOM     24  O   LIG d   1      -4.967  74.448 113.836  0.00  0.00    -0.241 OA
ENDBRANCH   3  22
TORSDOF 7
ENDMDL
MODEL 7
REMARK VINA RESULT:      -5.3      1.630      2.025
REMARK  7 active torsions:
REMARK  status: ('A' for Active; 'I' for Inactive)
REMARK    1  A    between atoms: C_2  and  C_3 
REMARK    2  A    between atoms: C_3  and  O_6 
REMARK    3  A    between atoms: C_3  and  C_4 
REMARK    4  A    between atoms: C_7  and  O_6 
REMARK    5  A    between atoms: C_9  and  C_10 
REMARK    6  A    between atoms: N_15  and  C_14 
REMARK    7  A    between atoms: N_20  and  C_19 
REMARK       I    between atoms: C_22  and  N_20 
ROOT
ATOM      1  C   LIG d   1      -2.299  79.371 116.637  0.00  0.00     0.161 C 
ATOM      2  C   LIG d   1      -2.582  80.458 115.793  0.00  0.00     0.016 C 
ATOM      3  C   LIG d   1      -2.403  80.421 114.390  0.00  0.00     0.038 C 
ATOM      4  C   LIG d   1      -2.071  79.237 113.716  0.00  0.00     0.028 C 
ATOM      5  C   LIG d   1      -1.288  78.250 114.575  0.00  0.00    -0.047 C 
ATOM      6  C   LIG d   1      -2.042  78.036 115.907  0.00  0.00     0.091 C 
ENDROOT
BRANCH   1   7
ATOM      7  O   LIG d   1      -3.355  79.218 117.606  0.00  0.00    -0.368 OA
BRANCH   7   8
ATOM      8  C   LIG d   1      -4.697  79.098 117.072  0.00  0.00     0.119 C 
BRANCH   8   9
ATOM      9  C   LIG d   1      -5.560  80.184 117.743  0.00  0.00     0.028 C 
ATOM     10  C   LIG d   1      -4.948  80.690 119.060  0.00  0.00     0.006 C 
ENDBRANCH   8   9
BRANCH   8  11
ATOM     11  C   LIG d   1      -5.338  77.766 117.472  0.00  0.00     0.028 C 
ATOM     12  C   LIG d   1      -5.602  76.847 116.268  0.00  0.00     0.006 C 
ENDBRANCH   8  11
ENDBRANCH   7   8
ENDBRANCH   1   7
BRANCH   6  13
ATOM     13  N   LIG d   1      -1.301  77.148 116.842  0.00  0.00    -0.311 N 
ATOM     14  C   LIG d   1      -1.553  75.847 116.972  0.00  0.00     0.210 C 
ATOM     15  C   LIG d   1      -0.687  75.121 118.006  0.00  0.00     0.109 C 
ATOM     16  O   LIG d   1      -2.389  75.219 116.306  0.00  0.00    -0.276 OA
ATOM     17  H   LIG d   1      -0.584  77.570 117.399  0.00  0.00     0.149 HD
ENDBRANCH   6  13
BRANCH   5  18
ATOM     18  N   LIG d   1      -1.129  77.008 113.795  0.00  0.00     0.381 N 
ATOM     19  H   LIG d   1      -1.737  77.027 113.001  0.00  0.00    -0.090 HD
ATOM     20  H   LIG d   1      -1.386  76.227 114.371  0.00  0.00    -0.090 HD
ATOM     21  H   LIG d   1      -0.183  76.912 113.496  0.00  0.00    -0.090 HD
ENDBRANCH   5  18
BRANCH   3  22
ATOM     22  C   LIG d   1      -2.519  81.589 113.652  0.00  0.00     0.382 C 
ATOM     23  O   LIG d   1      -1.691  82.518 113.814  0.00  0.00    -0.241 OA
ATOM     24  O   LIG d   1      -3.466  81.743 112.858  0.00  0.00    -0.241 OA
ENDBRANCH   3  22
TORSDOF 7
ENDMDL
MODEL 8
REMARK VINA RESULT:      -5.3      3.962      5.492
REMARK  7 active torsions:
REMARK  status: ('A' for Active; 'I' for Inactive)
REMARK    1  A    between atoms: C_2  and  C_3 
REMARK    2  A    between atoms: C_3  and  O_6 
REMARK    3  A    between atoms: C_3  and  C_4 
REMARK    4  A    between atoms: C_7  and  O_6 
REMARK    5  A    between atoms: C_9  and  C_10 
REMARK    6  A    between atoms: N_15  and  C_14 
REMARK    7  A    between atoms: N_20  and  C_19 
REMARK       I    between atoms: C_22  and  N_20 
ROOT
ATOM      1  C   LIG d   1      -5.312  77.845 117.138  0.00  0.00     0.161 C 
ATOM      2  C   LIG d   1      -6.167  78.959 117.189  0.00  0.00     0.016 C 
ATOM      3  C   LIG d   1      -5.831  80.168 117.842  0.00  0.00     0.038 C 
ATOM      4  C   LIG d   1      -4.549  80.399 118.360  0.00  0.00     0.028 C 
ATOM      5  C   LIG d   1      -3.824  79.123 118.775  0.00  0.00    -0.047 C 
ATOM      6  C   LIG d   1      -3.866  78.118 117.602  0.00  0.00     0.091 C 
ENDROOT
BRANCH   1   7
ATOM      7  O   LIG d   1      -5.315  77.289 115.808  0.00  0.00    -0.368 OA
BRANCH   7   8
ATOM      8  C   LIG d   1      -6.306  76.264 115.549  0.00  0.00     0.119 C 
BRANCH   8   9
ATOM      9  C   LIG d   1      -6.807  75.749 116.912  0.00  0.00     0.028 C 
ATOM     10  C   LIG d   1      -8.335  75.855 117.053  0.00  0.00     0.006 C 
ENDBRANCH   8   9
BRANCH   8  11
ATOM     11  C   LIG d   1      -5.681  75.046 114.861  0.00  0.00     0.028 C 
ATOM     12  C   LIG d   1      -4.356  75.376 114.154  0.00  0.00     0.006 C 
ENDBRANCH   8  11
ENDBRANCH   7   8
ENDBRANCH   1   7
BRANCH   6  13
ATOM     13  N   LIG d   1      -3.252  76.811 117.953  0.00  0.00    -0.311 N 
ATOM     14  C   LIG d   1      -2.297  76.231 117.228  0.00  0.00     0.210 C 
ATOM     15  C   LIG d   1      -1.817  74.876 117.756  0.00  0.00     0.109 C 
ATOM     16  O   LIG d   1      -1.779  76.726 116.215  0.00  0.00    -0.276 OA
ATOM     17  H   LIG d   1      -3.591  76.354 118.777  0.00  0.00     0.149 HD
ENDBRANCH   6  13
BRANCH   5  18
ATOM     18  N   LIG d   1      -2.452  79.498 119.167  0.00  0.00     0.381 N 
ATOM     19  H   LIG d   1      -1.836  79.394 118.385  0.00  0.00    -0.090 HD
ATOM     20  H   LIG d   1      -2.142  78.880 119.896  0.00  0.00    -0.090 HD
ATOM     21  H   LIG d   1      -2.434  80.440 119.490  0.00  0.00    -0.090 HD
ENDBRANCH   5  18
BRANCH   3  22
ATOM     22  C   LIG d   1      -6.798  81.146 118.015  0.00  0.00     0.382 C 
ATOM     23  O   LIG d   1      -6.931  81.706 119.130  0.00  0.00    -0.241 OA
ATOM     24  O   LIG d   1      -7.569  81.445 117.083  0.00  0.00    -0.241 OA
ENDBRANCH   3  22
TORSDOF 7
ENDMDL
MODEL 9
REMARK VINA RESULT:      -5.1      3.113      6.619
REMARK  7 active torsions:
REMARK  status: ('A' for Active; 'I' for Inactive)
REMARK    1  A    between atoms: C_2  and  C_3 
REMARK    2  A    between atoms: C_3  and  O_6 
REMARK    3  A    between atoms: C_3  and  C_4 
REMARK    4  A    between atoms: C_7  and  O_6 
REMARK    5  A    between atoms: C_9  and  C_10 
REMARK    6  A    between atoms: N_15  and  C_14 
REMARK    7  A    between atoms: N_20  and  C_19 
REMARK       I    between atoms: C_22  and  N_20 
ROOT
ATOM      1  C   LIG d   1      -4.644  76.904 116.095  0.00  0.00     0.161 C 
ATOM      2  C   LIG d   1      -5.812  76.126 116.157  0.00  0.00     0.016 C 
ATOM      3  C   LIG d   1      -6.981  76.533 116.840  0.00  0.00     0.038 C 
ATOM      4  C   LIG d   1      -7.114  77.820 117.382  0.00  0.00     0.028 C 
ATOM      5  C   LIG d   1      -5.783  78.449 117.780  0.00  0.00    -0.047 C 
ATOM      6  C   LIG d   1      -4.807  78.357 116.585  0.00  0.00     0.091 C 
ENDROOT
BRANCH   1   7
ATOM      7  O   LIG d   1      -4.115  76.884 114.754  0.00  0.00    -0.368 OA
BRANCH   7   8
ATOM      8  C   LIG d   1      -2.890  76.134 114.563  0.00  0.00     0.119 C 
BRANCH   8   9
ATOM      9  C   LIG d   1      -2.382  75.714 115.956  0.00  0.00     0.028 C 
ATOM     10  C   LIG d   1      -0.969  76.243 116.250  0.00  0.00     0.006 C 
ENDBRANCH   8   9
BRANCH   8  11
ATOM     11  C   LIG d   1      -1.783  77.016 113.977  0.00  0.00     0.028 C 
ATOM     12  C   LIG d   1      -2.288  77.943 112.860  0.00  0.00     0.006 C 
ENDBRANCH   8  11
ENDBRANCH   7   8
ENDBRANCH   1   7
BRANCH   6  13
ATOM     13  N   LIG d   1      -3.454  78.875 116.918  0.00  0.00    -0.311 N 
ATOM     14  C   LIG d   1      -2.813  79.779 116.179  0.00  0.00     0.210 C 
ATOM     15  C   LIG d   1      -1.419  80.160 116.689  0.00  0.00     0.109 C 
ATOM     16  O   LIG d   1      -3.279  80.325 115.167  0.00  0.00    -0.276 OA
ATOM     17  H   LIG d   1      -3.015  78.509 117.739  0.00  0.00     0.149 HD
ENDBRANCH   6  13
BRANCH   5  18
ATOM     18  N   LIG d   1      -6.054  79.837 118.200  0.00  0.00     0.381 N 
ATOM     19  H   LIG d   1      -6.254  79.862 119.180  0.00  0.00    -0.090 HD
ATOM     20  H   LIG d   1      -6.862  80.175 117.705  0.00  0.00    -0.090 HD
ATOM     21  H   LIG d   1      -5.267  80.414 117.999  0.00  0.00    -0.090 HD
ENDBRANCH   5  18
BRANCH   3  22
ATOM     22  C   LIG d   1      -8.020  75.633 117.020  0.00  0.00     0.382 C 
ATOM     23  O   LIG d   1      -9.183  76.052 117.234  0.00  0.00    -0.241 OA
ATOM     24  O   LIG d   1      -7.802  74.406 117.015  0.00  0.00    -0.241 OA
ENDBRANCH   3  22
TORSDOF 7
ENDMDL
