MODEL 1
REMARK VINA RESULT:      -4.9      0.000      0.000
REMARK  7 active torsions:
REMARK  status: ('A' for Active; 'I' for Inactive)
REMARK    1  A    between atoms: C_2  and  C_3 
REMARK    2  A    between atoms: C_3  and  O_6 
REMARK    3  A    between atoms: C_3  and  C_4 
REMARK    4  A    between atoms: C_7  and  O_6 
REMARK    5  A    between atoms: C_9  and  C_10 
REMARK    6  A    between atoms: N_15  and  C_14 
REMARK    7  A    between atoms: N_20  and  C_19 
REMARK       I    between atoms: C_22  and  N_20 
ROOT
ATOM      1  C   LIG d   1      -2.407  75.520 115.092  0.00  0.00     0.161 C 
ATOM      2  C   LIG d   1      -2.261  75.044 116.406  0.00  0.00     0.016 C 
ATOM      3  C   LIG d   1      -1.475  75.693 117.386  0.00  0.00     0.038 C 
ATOM      4  C   LIG d   1      -0.898  76.951 117.159  0.00  0.00     0.028 C 
ATOM      5  C   LIG d   1      -0.600  77.225 115.689  0.00  0.00    -0.047 C 
ATOM      6  C   LIG d   1      -1.875  76.949 114.859  0.00  0.00     0.091 C 
ENDROOT
BRANCH   1   7
ATOM      7  O   LIG d   1      -3.787  75.427 114.689  0.00  0.00    -0.368 OA
BRANCH   7   8
ATOM      8  C   LIG d   1      -4.755  75.280 115.757  0.00  0.00     0.119 C 
BRANCH   8   9
ATOM      9  C   LIG d   1      -5.803  74.250 115.294  0.00  0.00     0.028 C 
ATOM     10  C   LIG d   1      -7.060  74.252 116.180  0.00  0.00     0.006 C 
ENDBRANCH   8   9
BRANCH   8  11
ATOM     11  C   LIG d   1      -5.535  76.578 115.985  0.00  0.00     0.028 C 
ATOM     12  C   LIG d   1      -5.164  77.272 117.306  0.00  0.00     0.006 C 
ENDBRANCH   8  11
ENDBRANCH   7   8
ENDBRANCH   1   7
BRANCH   6  13
ATOM     13  N   LIG d   1      -1.647  77.112 113.399  0.00  0.00    -0.311 N 
ATOM     14  C   LIG d   1      -2.387  77.905 112.626  0.00  0.00     0.210 C 
ATOM     15  C   LIG d   1      -1.996  77.911 111.145  0.00  0.00     0.109 C 
ATOM     16  O   LIG d   1      -3.310  78.627 113.032  0.00  0.00    -0.276 OA
ATOM     17  H   LIG d   1      -0.899  76.586 112.993  0.00  0.00     0.149 HD
ENDBRANCH   6  13
BRANCH   5  18
ATOM     18  N   LIG d   1      -0.131  78.620 115.581  0.00  0.00     0.381 N 
ATOM     19  H   LIG d   1       0.197  78.796 114.653  0.00  0.00    -0.090 HD
ATOM     20  H   LIG d   1       0.635  78.755 116.218  0.00  0.00    -0.090 HD
ATOM     21  H   LIG d   1      -0.872  79.247 115.804  0.00  0.00    -0.090 HD
ENDBRANCH   5  18
BRANCH   3  22
ATOM     22  C   LIG d   1      -1.226  75.062 118.595  0.00  0.00     0.382 C 
ATOM     23  O   LIG d   1      -1.854  75.410 119.624  0.00  0.00    -0.241 OA
ATOM     24  O   LIG d   1      -0.351  74.180 118.680  0.00  0.00    -0.241 OA
ENDBRANCH   3  22
TORSDOF 7
ENDMDL
MODEL 2
REMARK VINA RESULT:      -4.9      1.595      4.763
REMARK  7 active torsions:
REMARK  status: ('A' for Active; 'I' for Inactive)
REMARK    1  A    between atoms: C_2  and  C_3 
REMARK    2  A    between atoms: C_3  and  O_6 
REMARK    3  A    between atoms: C_3  and  C_4 
REMARK    4  A    between atoms: C_7  and  O_6 
REMARK    5  A    between atoms: C_9  and  C_10 
REMARK    6  A    between atoms: N_15  and  C_14 
REMARK    7  A    between atoms: N_20  and  C_19 
REMARK       I    between atoms: C_22  and  N_20 
ROOT
ATOM      1  C   LIG d   1      -3.431  76.530 114.973  0.00  0.00     0.161 C 
ATOM      2  C   LIG d   1      -3.511  77.013 113.656  0.00  0.00     0.016 C 
ATOM      3  C   LIG d   1      -2.378  77.357 112.884  0.00  0.00     0.038 C 
ATOM      4  C   LIG d   1      -1.073  77.097 113.325  0.00  0.00     0.028 C 
ATOM      5  C   LIG d   1      -0.939  77.079 114.844  0.00  0.00    -0.047 C 
ATOM      6  C   LIG d   1      -2.012  76.134 115.431  0.00  0.00     0.091 C 
ENDROOT
BRANCH   1   7
ATOM      7  O   LIG d   1      -4.340  75.424 115.143  0.00  0.00    -0.368 OA
BRANCH   7   8
ATOM      8  C   LIG d   1      -5.443  75.640 116.057  0.00  0.00     0.119 C 
BRANCH   8   9
ATOM      9  C   LIG d   1      -6.720  75.111 115.375  0.00  0.00     0.028 C 
ATOM     10  C   LIG d   1      -7.051  75.871 114.080  0.00  0.00     0.006 C 
ENDBRANCH   8   9
BRANCH   8  11
ATOM     11  C   LIG d   1      -5.694  77.133 116.285  0.00  0.00     0.028 C 
ATOM     12  C   LIG d   1      -6.359  77.426 117.639  0.00  0.00     0.006 C 
ENDBRANCH   8  11
ENDBRANCH   7   8
ENDBRANCH   1   7
BRANCH   6  13
ATOM     13  N   LIG d   1      -2.006  76.123 116.918  0.00  0.00    -0.311 N 
ATOM     14  C   LIG d   1      -1.369  75.205 117.642  0.00  0.00     0.210 C 
ATOM     15  C   LIG d   1      -1.508  75.367 119.159  0.00  0.00     0.109 C 
ATOM     16  O   LIG d   1      -0.674  74.291 117.172  0.00  0.00    -0.276 OA
ATOM     17  H   LIG d   1      -2.519  76.848 117.381  0.00  0.00     0.149 HD
ENDBRANCH   6  13
BRANCH   5  18
ATOM     18  N   LIG d   1       0.438  76.661 115.166  0.00  0.00     0.381 N 
ATOM     19  H   LIG d   1       1.091  77.221 114.655  0.00  0.00    -0.090 HD
ATOM     20  H   LIG d   1       0.560  75.703 114.888  0.00  0.00    -0.090 HD
ATOM     21  H   LIG d   1       0.603  76.754 116.144  0.00  0.00    -0.090 HD
ENDBRANCH   5  18
BRANCH   3  22
ATOM     22  C   LIG d   1      -2.546  78.007 111.670  0.00  0.00     0.382 C 
ATOM     23  O   LIG d   1      -3.398  77.591 110.849  0.00  0.00    -0.241 OA
ATOM     24  O   LIG d   1      -1.824  78.976 111.367  0.00  0.00    -0.241 OA
ENDBRANCH   3  22
TORSDOF 7
ENDMDL
MODEL 3
REMARK VINA RESULT:      -4.6      1.658      4.763
REMARK  7 active torsions:
REMARK  status: ('A' for Active; 'I' for Inactive)
REMARK    1  A    between atoms: C_2  and  C_3 
REMARK    2  A    between atoms: C_3  and  O_6 
REMARK    3  A    between atoms: C_3  and  C_4 
REMARK    4  A    between atoms: C_7  and  O_6 
REMARK    5  A    between atoms: C_9  and  C_10 
REMARK    6  A    between atoms: N_15  and  C_14 
REMARK    7  A    between atoms: N_20  and  C_19 
REMARK       I    between atoms: C_22  and  N_20 
ROOT
ATOM      1  C   LIG d   1      -3.429  76.396 114.830  0.00  0.00     0.161 C 
ATOM      2  C   LIG d   1      -3.512  77.225 113.699  0.00  0.00     0.016 C 
ATOM      3  C   LIG d   1      -2.381  77.773 113.052  0.00  0.00     0.038 C 
ATOM      4  C   LIG d   1      -1.074  77.405 113.404  0.00  0.00     0.028 C 
ATOM      5  C   LIG d   1      -0.939  76.968 114.859  0.00  0.00    -0.047 C 
ATOM      6  C   LIG d   1      -2.009  75.893 115.161  0.00  0.00     0.091 C 
ENDROOT
BRANCH   1   7
ATOM      7  O   LIG d   1      -4.334  75.283 114.687  0.00  0.00    -0.368 OA
BRANCH   7   8
ATOM      8  C   LIG d   1      -5.693  75.505 115.136  0.00  0.00     0.119 C 
BRANCH   8   9
ATOM      9  C   LIG d   1      -5.620  76.191 116.514  0.00  0.00     0.028 C 
ATOM     10  C   LIG d   1      -6.329  77.555 116.529  0.00  0.00     0.006 C 
ENDBRANCH   8   9
BRANCH   8  11
ATOM     11  C   LIG d   1      -6.423  74.180 115.381  0.00  0.00     0.028 C 
ATOM     12  C   LIG d   1      -7.410  74.252 116.557  0.00  0.00     0.006 C 
ENDBRANCH   8  11
ENDBRANCH   7   8
ENDBRANCH   1   7
BRANCH   6  13
ATOM     13  N   LIG d   1      -2.002  75.472 116.586  0.00  0.00    -0.311 N 
ATOM     14  C   LIG d   1      -2.063  76.328 117.605  0.00  0.00     0.210 C 
ATOM     15  C   LIG d   1      -2.022  75.685 118.994  0.00  0.00     0.109 C 
ATOM     16  O   LIG d   1      -2.179  77.558 117.489  0.00  0.00    -0.276 OA
ATOM     17  H   LIG d   1      -1.941  74.490 116.771  0.00  0.00     0.149 HD
ENDBRANCH   6  13
BRANCH   5  18
ATOM     18  N   LIG d   1       0.440  76.481 115.052  0.00  0.00     0.381 N 
ATOM     19  H   LIG d   1       0.564  76.182 115.999  0.00  0.00    -0.090 HD
ATOM     20  H   LIG d   1       1.079  77.236 114.874  0.00  0.00    -0.090 HD
ATOM     21  H   LIG d   1       0.625  75.725 114.431  0.00  0.00    -0.090 HD
ENDBRANCH   5  18
BRANCH   3  22
ATOM     22  C   LIG d   1      -2.551  78.732 112.065  0.00  0.00     0.382 C 
ATOM     23  O   LIG d   1      -1.974  78.603 110.958  0.00  0.00    -0.241 OA
ATOM     24  O   LIG d   1      -3.238  79.748 112.283  0.00  0.00    -0.241 OA
ENDBRANCH   3  22
TORSDOF 7
ENDMDL
MODEL 4
REMARK VINA RESULT:      -4.4      2.303      5.395
REMARK  7 active torsions:
REMARK  status: ('A' for Active; 'I' for Inactive)
REMARK    1  A    between atoms: C_2  and  C_3 
REMARK    2  A    between atoms: C_3  and  O_6 
REMARK    3  A    between atoms: C_3  and  C_4 
REMARK    4  A    between atoms: C_7  and  O_6 
REMARK    5  A    between atoms: C_9  and  C_10 
REMARK    6  A    between atoms: N_15  and  C_14 
REMARK    7  A    between atoms: N_20  and  C_19 
REMARK       I    between atoms: C_22  and  N_20 
ROOT
ATOM      1  C   LIG d   1      -2.682  75.507 115.819  0.00  0.00     0.161 C 
ATOM      2  C   LIG d   1      -3.908  75.519 115.132  0.00  0.00     0.016 C 
ATOM      3  C   LIG d   1      -5.035  76.255 115.565  0.00  0.00     0.038 C 
ATOM      4  C   LIG d   1      -4.965  77.155 116.640  0.00  0.00     0.028 C 
ATOM      5  C   LIG d   1      -3.895  76.793 117.664  0.00  0.00    -0.047 C 
ATOM      6  C   LIG d   1      -2.553  76.569 116.930  0.00  0.00     0.091 C 
ENDROOT
BRANCH   1   7
ATOM      7  O   LIG d   1      -1.595  75.630 114.880  0.00  0.00    -0.368 OA
BRANCH   7   8
ATOM      8  C   LIG d   1      -1.271  76.975 114.453  0.00  0.00     0.119 C 
BRANCH   8   9
ATOM      9  C   LIG d   1      -1.379  77.012 112.916  0.00  0.00     0.028 C 
ATOM     10  C   LIG d   1      -2.604  77.807 112.433  0.00  0.00     0.006 C 
ENDBRANCH   8   9
BRANCH   8  11
ATOM     11  C   LIG d   1       0.188  77.322 114.765  0.00  0.00     0.028 C 
ATOM     12  C   LIG d   1       0.425  78.835 114.900  0.00  0.00     0.006 C 
ENDBRANCH   8  11
ENDBRANCH   7   8
ENDBRANCH   1   7
BRANCH   6  13
ATOM     13  N   LIG d   1      -1.471  76.129 117.849  0.00  0.00    -0.311 N 
ATOM     14  C   LIG d   1      -0.610  76.968 118.423  0.00  0.00     0.210 C 
ATOM     15  C   LIG d   1       0.439  76.304 119.320  0.00  0.00     0.109 C 
ATOM     16  O   LIG d   1      -0.636  78.202 118.301  0.00  0.00    -0.276 OA
ATOM     17  H   LIG d   1      -1.397  75.147 118.030  0.00  0.00     0.149 HD
ENDBRANCH   6  13
BRANCH   5  18
ATOM     18  N   LIG d   1      -3.838  77.885 118.654  0.00  0.00     0.381 N 
ATOM     19  H   LIG d   1      -4.220  78.721 118.258  0.00  0.00    -0.090 HD
ATOM     20  H   LIG d   1      -2.877  78.059 118.891  0.00  0.00    -0.090 HD
ATOM     21  H   LIG d   1      -4.349  77.632 119.471  0.00  0.00    -0.090 HD
ENDBRANCH   5  18
BRANCH   3  22
ATOM     22  C   LIG d   1      -6.260  76.064 114.945  0.00  0.00     0.382 C 
ATOM     23  O   LIG d   1      -6.334  76.057 113.692  0.00  0.00    -0.241 OA
ATOM     24  O   LIG d   1      -7.299  75.944 115.621  0.00  0.00    -0.241 OA
ENDBRANCH   3  22
TORSDOF 7
ENDMDL
MODEL 5
REMARK VINA RESULT:      -3.9      2.087      5.347
REMARK  7 active torsions:
REMARK  status: ('A' for Active; 'I' for Inactive)
REMARK    1  A    between atoms: C_2  and  C_3 
REMARK    2  A    between atoms: C_3  and  O_6 
REMARK    3  A    between atoms: C_3  and  C_4 
REMARK    4  A    between atoms: C_7  and  O_6 
REMARK    5  A    between atoms: C_9  and  C_10 
REMARK    6  A    between atoms: N_15  and  C_14 
REMARK    7  A    between atoms: N_20  and  C_19 
REMARK       I    between atoms: C_22  and  N_20 
ROOT
ATOM      1  C   LIG d   1      -2.516  75.723 115.543  0.00  0.00     0.161 C 
ATOM      2  C   LIG d   1      -3.845  75.791 115.094  0.00  0.00     0.016 C 
ATOM      3  C   LIG d   1      -4.881  76.423 115.820  0.00  0.00     0.038 C 
ATOM      4  C   LIG d   1      -4.624  77.166 116.983  0.00  0.00     0.028 C 
ATOM      5  C   LIG d   1      -3.385  76.699 117.739  0.00  0.00    -0.047 C 
ATOM      6  C   LIG d   1      -2.196  76.623 116.755  0.00  0.00     0.091 C 
ENDROOT
BRANCH   1   7
ATOM      7  O   LIG d   1      -1.617  76.009 114.454  0.00  0.00    -0.368 OA
BRANCH   7   8
ATOM      8  C   LIG d   1      -1.626  77.372 113.962  0.00  0.00     0.119 C 
BRANCH   8   9
ATOM      9  C   LIG d   1      -1.647  77.308 112.422  0.00  0.00     0.028 C 
ATOM     10  C   LIG d   1      -2.907  77.956 111.825  0.00  0.00     0.006 C 
ENDBRANCH   8   9
BRANCH   8  11
ATOM     11  C   LIG d   1      -0.328  78.102 114.320  0.00  0.00     0.028 C 
ATOM     12  C   LIG d   1      -0.164  79.431 113.565  0.00  0.00     0.006 C 
ENDBRANCH   8  11
ENDBRANCH   7   8
ENDBRANCH   1   7
BRANCH   6  13
ATOM     13  N   LIG d   1      -0.963  76.094 117.395  0.00  0.00    -0.311 N 
ATOM     14  C   LIG d   1      -0.928  74.958 118.089  0.00  0.00     0.210 C 
ATOM     15  C   LIG d   1       0.440  74.605 118.682  0.00  0.00     0.109 C 
ATOM     16  O   LIG d   1      -1.891  74.193 118.243  0.00  0.00    -0.276 OA
ATOM     17  H   LIG d   1      -0.128  76.636 117.293  0.00  0.00     0.149 HD
ENDBRANCH   6  13
BRANCH   5  18
ATOM     18  N   LIG d   1      -3.158  77.644 118.849  0.00  0.00     0.381 N 
ATOM     19  H   LIG d   1      -3.924  77.603 119.490  0.00  0.00    -0.090 HD
ATOM     20  H   LIG d   1      -3.107  78.576 118.477  0.00  0.00    -0.090 HD
ATOM     21  H   LIG d   1      -2.309  77.419 119.319  0.00  0.00    -0.090 HD
ENDBRANCH   5  18
BRANCH   3  22
ATOM     22  C   LIG d   1      -6.196  76.282 115.406  0.00  0.00     0.382 C 
ATOM     23  O   LIG d   1      -7.119  76.230 116.255  0.00  0.00    -0.241 OA
ATOM     24  O   LIG d   1      -6.468  76.161 114.197  0.00  0.00    -0.241 OA
ENDBRANCH   3  22
TORSDOF 7
ENDMDL
MODEL 6
REMARK VINA RESULT:      -3.9      2.631      5.460
REMARK  7 active torsions:
REMARK  status: ('A' for Active; 'I' for Inactive)
REMARK    1  A    between atoms: C_2  and  C_3 
REMARK    2  A    between atoms: C_3  and  O_6 
REMARK    3  A    between atoms: C_3  and  C_4 
REMARK    4  A    between atoms: C_7  and  O_6 
REMARK    5  A    between atoms: C_9  and  C_10 
REMARK    6  A    between atoms: N_15  and  C_14 
REMARK    7  A    between atoms: N_20  and  C_19 
REMARK       I    between atoms: C_22  and  N_20 
ROOT
ATOM      1  C   LIG d   1      -3.384  77.311 117.792  0.00  0.00     0.161 C 
ATOM      2  C   LIG d   1      -4.587  77.707 118.400  0.00  0.00     0.016 C 
ATOM      3  C   LIG d   1      -5.854  77.557 117.790  0.00  0.00     0.038 C 
ATOM      4  C   LIG d   1      -6.018  76.859 116.584  0.00  0.00     0.028 C 
ATOM      5  C   LIG d   1      -4.781  76.888 115.694  0.00  0.00    -0.047 C 
ATOM      6  C   LIG d   1      -3.554  76.446 116.525  0.00  0.00     0.091 C 
ENDROOT
BRANCH   1   7
ATOM      7  O   LIG d   1      -2.551  76.633 118.752  0.00  0.00    -0.368 OA
BRANCH   7   8
ATOM      8  C   LIG d   1      -1.434  77.393 119.276  0.00  0.00     0.119 C 
BRANCH   8   9
ATOM      9  C   LIG d   1      -1.256  78.633 118.377  0.00  0.00     0.028 C 
ATOM     10  C   LIG d   1       0.080  78.619 117.616  0.00  0.00     0.006 C 
ENDBRANCH   8   9
BRANCH   8  11
ATOM     11  C   LIG d   1      -0.122  76.612 119.154  0.00  0.00     0.028 C 
ATOM     12  C   LIG d   1      -0.342  75.104 118.955  0.00  0.00     0.006 C 
ENDBRANCH   8  11
ENDBRANCH   7   8
ENDBRANCH   1   7
BRANCH   6  13
ATOM     13  N   LIG d   1      -2.287  76.526 115.752  0.00  0.00    -0.311 N 
ATOM     14  C   LIG d   1      -1.535  75.465 115.466  0.00  0.00     0.210 C 
ATOM     15  C   LIG d   1      -0.258  75.772 114.676  0.00  0.00     0.109 C 
ATOM     16  O   LIG d   1      -1.819  74.295 115.764  0.00  0.00    -0.276 OA
ATOM     17  H   LIG d   1      -1.998  77.434 115.444  0.00  0.00     0.149 HD
ENDBRANCH   6  13
BRANCH   5  18
ATOM     18  N   LIG d   1      -5.043  76.009 114.538  0.00  0.00     0.381 N 
ATOM     19  H   LIG d   1      -6.025  75.977 114.353  0.00  0.00    -0.090 HD
ATOM     20  H   LIG d   1      -4.734  75.079 114.760  0.00  0.00    -0.090 HD
ATOM     21  H   LIG d   1      -4.557  76.346 113.737  0.00  0.00    -0.090 HD
ENDBRANCH   5  18
BRANCH   3  22
ATOM     22  C   LIG d   1      -6.968  78.146 118.368  0.00  0.00     0.382 C 
ATOM     23  O   LIG d   1      -7.125  78.104 119.612  0.00  0.00    -0.241 OA
ATOM     24  O   LIG d   1      -7.841  78.679 117.657  0.00  0.00    -0.241 OA
ENDBRANCH   3  22
TORSDOF 7
ENDMDL
MODEL 7
REMARK VINA RESULT:      -3.3      2.322      5.534
REMARK  7 active torsions:
REMARK  status: ('A' for Active; 'I' for Inactive)
REMARK    1  A    between atoms: C_2  and  C_3 
REMARK    2  A    between atoms: C_3  and  O_6 
REMARK    3  A    between atoms: C_3  and  C_4 
REMARK    4  A    between atoms: C_7  and  O_6 
REMARK    5  A    between atoms: C_9  and  C_10 
REMARK    6  A    between atoms: N_15  and  C_14 
REMARK    7  A    between atoms: N_20  and  C_19 
REMARK       I    between atoms: C_22  and  N_20 
ROOT
ATOM      1  C   LIG d   1      -2.995  75.942 115.655  0.00  0.00     0.161 C 
ATOM      2  C   LIG d   1      -4.380  76.069 115.458  0.00  0.00     0.016 C 
ATOM      3  C   LIG d   1      -5.242  76.705 116.381  0.00  0.00     0.038 C 
ATOM      4  C   LIG d   1      -4.751  77.394 117.500  0.00  0.00     0.028 C 
ATOM      5  C   LIG d   1      -3.414  76.860 118.003  0.00  0.00    -0.047 C 
ATOM      6  C   LIG d   1      -2.426  76.784 116.817  0.00  0.00     0.091 C 
ENDROOT
BRANCH   1   7
ATOM      7  O   LIG d   1      -2.297  76.242 114.430  0.00  0.00    -0.368 OA
BRANCH   7   8
ATOM      8  C   LIG d   1      -0.871  76.469 114.548  0.00  0.00     0.119 C 
BRANCH   8   9
ATOM      9  C   LIG d   1      -0.573  77.859 113.953  0.00  0.00     0.028 C 
ATOM     10  C   LIG d   1       0.439  78.653 114.796  0.00  0.00     0.006 C 
ENDBRANCH   8   9
BRANCH   8  11
ATOM     11  C   LIG d   1      -0.076  75.481 113.689  0.00  0.00     0.028 C 
ATOM     12  C   LIG d   1       0.376  74.239 114.473  0.00  0.00     0.006 C 
ENDBRANCH   8  11
ENDBRANCH   7   8
ENDBRANCH   1   7
BRANCH   6  13
ATOM     13  N   LIG d   1      -1.119  76.193 117.204  0.00  0.00    -0.311 N 
ATOM     14  C   LIG d   1      -0.999  75.008 117.800  0.00  0.00     0.210 C 
ATOM     15  C   LIG d   1       0.438  74.594 118.132  0.00  0.00     0.109 C 
ATOM     16  O   LIG d   1      -1.943  74.246 118.057  0.00  0.00    -0.276 OA
ATOM     17  H   LIG d   1      -0.298  76.730 117.004  0.00  0.00     0.149 HD
ENDBRANCH   6  13
BRANCH   5  18
ATOM     18  N   LIG d   1      -2.955  77.753 119.083  0.00  0.00     0.381 N 
ATOM     19  H   LIG d   1      -3.079  77.306 119.969  0.00  0.00    -0.090 HD
ATOM     20  H   LIG d   1      -3.511  78.590 119.071  0.00  0.00    -0.090 HD
ATOM     21  H   LIG d   1      -1.994  77.983 118.950  0.00  0.00    -0.090 HD
ENDBRANCH   5  18
BRANCH   3  22
ATOM     22  C   LIG d   1      -6.615  76.621 116.209  0.00  0.00     0.382 C 
ATOM     23  O   LIG d   1      -7.092  75.852 115.340  0.00  0.00    -0.241 OA
ATOM     24  O   LIG d   1      -7.381  77.336 116.882  0.00  0.00    -0.241 OA
ENDBRANCH   3  22
TORSDOF 7
ENDMDL
MODEL 8
REMARK VINA RESULT:      -3.2      3.444      4.776
REMARK  7 active torsions:
REMARK  status: ('A' for Active; 'I' for Inactive)
REMARK    1  A    between atoms: C_2  and  C_3 
REMARK    2  A    between atoms: C_3  and  O_6 
REMARK    3  A    between atoms: C_3  and  C_4 
REMARK    4  A    between atoms: C_7  and  O_6 
REMARK    5  A    between atoms: C_9  and  C_10 
REMARK    6  A    between atoms: N_15  and  C_14 
REMARK    7  A    between atoms: N_20  and  C_19 
REMARK       I    between atoms: C_22  and  N_20 
ROOT
ATOM      1  C   LIG d   1       0.120  79.423 114.285  0.00  0.00     0.161 C 
ATOM      2  C   LIG d   1       0.113  78.810 115.549  0.00  0.00     0.016 C 
ATOM      3  C   LIG d   1       0.094  79.531 116.764  0.00  0.00     0.038 C 
ATOM      4  C   LIG d   1      -0.072  80.924 116.797  0.00  0.00     0.028 C 
ATOM      5  C   LIG d   1       0.439  81.625 115.543  0.00  0.00    -0.047 C 
ATOM      6  C   LIG d   1      -0.173  80.938 114.300  0.00  0.00     0.091 C 
ENDROOT
BRANCH   1   7
ATOM      7  O   LIG d   1      -0.799  78.744 113.406  0.00  0.00    -0.368 OA
BRANCH   7   8
ATOM      8  C   LIG d   1      -0.737  77.296 113.416  0.00  0.00     0.119 C 
BRANCH   8   9
ATOM      9  C   LIG d   1      -1.336  76.799 112.086  0.00  0.00     0.028 C 
ATOM     10  C   LIG d   1      -2.475  77.702 111.581  0.00  0.00     0.006 C 
ENDBRANCH   8   9
BRANCH   8  11
ATOM     11  C   LIG d   1      -1.634  76.708 114.510  0.00  0.00     0.028 C 
ATOM     12  C   LIG d   1      -0.946  75.586 115.304  0.00  0.00     0.006 C 
ENDBRANCH   8  11
ENDBRANCH   7   8
ENDBRANCH   1   7
BRANCH   6  13
ATOM     13  N   LIG d   1       0.340  81.508 113.027  0.00  0.00    -0.311 N 
ATOM     14  C   LIG d   1      -0.444  82.057 112.101  0.00  0.00     0.210 C 
ATOM     15  C   LIG d   1       0.287  82.566 110.854  0.00  0.00     0.109 C 
ATOM     16  O   LIG d   1      -1.671  82.200 112.207  0.00  0.00    -0.276 OA
ATOM     17  H   LIG d   1       1.329  81.463 112.873  0.00  0.00     0.149 HD
ENDBRANCH   6  13
BRANCH   5  18
ATOM     18  N   LIG d   1       0.079  83.051 115.651  0.00  0.00     0.381 N 
ATOM     19  H   LIG d   1       0.404  83.417 116.524  0.00  0.00    -0.090 HD
ATOM     20  H   LIG d   1      -0.922  83.137 115.626  0.00  0.00    -0.090 HD
ATOM     21  H   LIG d   1       0.482  83.563 114.897  0.00  0.00    -0.090 HD
ENDBRANCH   5  18
BRANCH   3  22
ATOM     22  C   LIG d   1       0.283  78.862 117.964  0.00  0.00     0.382 C 
ATOM     23  O   LIG d   1       0.341  79.506 119.039  0.00  0.00    -0.241 OA
ATOM     24  O   LIG d   1       0.440  77.627 117.980  0.00  0.00    -0.241 OA
ENDBRANCH   3  22
TORSDOF 7
ENDMDL
MODEL 9
REMARK VINA RESULT:      -2.9      2.689      4.554
REMARK  7 active torsions:
REMARK  status: ('A' for Active; 'I' for Inactive)
REMARK    1  A    between atoms: C_2  and  C_3 
REMARK    2  A    between atoms: C_3  and  O_6 
REMARK    3  A    between atoms: C_3  and  C_4 
REMARK    4  A    between atoms: C_7  and  O_6 
REMARK    5  A    between atoms: C_9  and  C_10 
REMARK    6  A    between atoms: N_15  and  C_14 
REMARK    7  A    between atoms: N_20  and  C_19 
REMARK       I    between atoms: C_22  and  N_20 
ROOT
ATOM      1  C   LIG d   1      -2.920  76.584 116.400  0.00  0.00     0.161 C 
ATOM      2  C   LIG d   1      -2.120  77.082 117.442  0.00  0.00     0.016 C 
ATOM      3  C   LIG d   1      -2.647  77.677 118.611  0.00  0.00     0.038 C 
ATOM      4  C   LIG d   1      -4.023  77.677 118.887  0.00  0.00     0.028 C 
ATOM      5  C   LIG d   1      -4.892  77.638 117.635  0.00  0.00    -0.047 C 
ATOM      6  C   LIG d   1      -4.422  76.474 116.733  0.00  0.00     0.091 C 
ENDROOT
BRANCH   1   7
ATOM      7  O   LIG d   1      -2.410  75.309 115.960  0.00  0.00    -0.368 OA
BRANCH   7   8
ATOM      8  C   LIG d   1      -1.568  75.333 114.781  0.00  0.00     0.119 C 
BRANCH   8   9
ATOM      9  C   LIG d   1      -0.113  75.135 115.247  0.00  0.00     0.028 C 
ATOM     10  C   LIG d   1      -0.006  74.180 116.449  0.00  0.00     0.006 C 
ENDBRANCH   8   9
BRANCH   8  11
ATOM     11  C   LIG d   1      -1.593  76.706 114.104  0.00  0.00     0.028 C 
ATOM     12  C   LIG d   1      -0.254  77.452 114.219  0.00  0.00     0.006 C 
ENDBRANCH   8  11
ENDBRANCH   7   8
ENDBRANCH   1   7
BRANCH   6  13
ATOM     13  N   LIG d   1      -5.165  76.417 115.448  0.00  0.00    -0.311 N 
ATOM     14  C   LIG d   1      -6.275  75.702 115.274  0.00  0.00     0.210 C 
ATOM     15  C   LIG d   1      -6.872  75.767 113.864  0.00  0.00     0.109 C 
ATOM     16  O   LIG d   1      -6.841  75.046 116.161  0.00  0.00    -0.276 OA
ATOM     17  H   LIG d   1      -4.794  76.945 114.682  0.00  0.00     0.149 HD
ENDBRANCH   6  13
BRANCH   5  18
ATOM     18  N   LIG d   1      -6.295  77.502 118.071  0.00  0.00     0.381 N 
ATOM     19  H   LIG d   1      -6.902  77.542 117.276  0.00  0.00    -0.090 HD
ATOM     20  H   LIG d   1      -6.522  78.269 118.679  0.00  0.00    -0.090 HD
ATOM     21  H   LIG d   1      -6.421  76.639 118.551  0.00  0.00    -0.090 HD
ENDBRANCH   5  18
BRANCH   3  22
ATOM     22  C   LIG d   1      -1.797  78.316 119.500  0.00  0.00     0.382 C 
ATOM     23  O   LIG d   1      -2.029  79.499 119.849  0.00  0.00    -0.241 OA
ATOM     24  O   LIG d   1      -0.777  77.741 119.924  0.00  0.00    -0.241 OA
ENDBRANCH   3  22
TORSDOF 7
ENDMDL
