MODEL 1
REMARK VINA RESULT:      -4.8      0.000      0.000
REMARK  7 active torsions:
REMARK  status: ('A' for Active; 'I' for Inactive)
REMARK    1  A    between atoms: C_2  and  C_3 
REMARK    2  A    between atoms: C_3  and  O_6 
REMARK    3  A    between atoms: C_3  and  C_4 
REMARK    4  A    between atoms: C_7  and  O_6 
REMARK    5  A    between atoms: C_9  and  C_10 
REMARK    6  A    between atoms: N_15  and  C_14 
REMARK    7  A    between atoms: N_20  and  C_19 
REMARK       I    between atoms: C_22  and  N_20 
ROOT
ATOM      1  C   LIG d   1      -1.436  78.375 114.983  0.00  0.00     0.161 C 
ATOM      2  C   LIG d   1      -1.892  79.606 114.482  0.00  0.00     0.016 C 
ATOM      3  C   LIG d   1      -1.854  79.951 113.111  0.00  0.00     0.038 C 
ATOM      4  C   LIG d   1      -1.494  79.023 112.123  0.00  0.00     0.028 C 
ATOM      5  C   LIG d   1      -0.548  77.938 112.627  0.00  0.00    -0.047 C 
ATOM      6  C   LIG d   1      -1.143  77.308 113.907  0.00  0.00     0.091 C 
ENDROOT
BRANCH   1   7
ATOM      7  O   LIG d   1      -2.372  77.865 115.953  0.00  0.00    -0.368 OA
BRANCH   7   8
ATOM      8  C   LIG d   1      -2.284  78.433 117.283  0.00  0.00     0.119 C 
BRANCH   8   9
ATOM      9  C   LIG d   1      -1.547  77.413 118.174  0.00  0.00     0.028 C 
ATOM     10  C   LIG d   1      -2.180  76.013 118.109  0.00  0.00     0.006 C 
ENDBRANCH   8   9
BRANCH   8  11
ATOM     11  C   LIG d   1      -3.671  78.594 117.913  0.00  0.00     0.028 C 
ATOM     12  C   LIG d   1      -4.706  79.170 116.934  0.00  0.00     0.006 C 
ENDBRANCH   8  11
ENDBRANCH   7   8
ENDBRANCH   1   7
BRANCH   6  13
ATOM     13  N   LIG d   1      -0.239  76.295 114.513  0.00  0.00    -0.311 N 
ATOM     14  C   LIG d   1      -0.650  75.093 114.913  0.00  0.00     0.210 C 
ATOM     15  C   LIG d   1       0.440  74.210 115.528  0.00  0.00     0.109 C 
ATOM     16  O   LIG d   1      -1.806  74.662 114.786  0.00  0.00    -0.276 OA
ATOM     17  H   LIG d   1       0.722  76.550 114.625  0.00  0.00     0.149 HD
ENDBRANCH   6  13
BRANCH   5  18
ATOM     18  N   LIG d   1      -0.365  76.964 111.535  0.00  0.00     0.381 N 
ATOM     19  H   LIG d   1      -0.613  77.384 110.661  0.00  0.00    -0.090 HD
ATOM     20  H   LIG d   1      -0.974  76.180 111.692  0.00  0.00    -0.090 HD
ATOM     21  H   LIG d   1       0.582  76.656 111.507  0.00  0.00    -0.090 HD
ENDBRANCH   5  18
BRANCH   3  22
ATOM     22  C   LIG d   1      -2.141  81.250 112.721  0.00  0.00     0.382 C 
ATOM     23  O   LIG d   1      -1.213  82.021 112.378  0.00  0.00    -0.241 OA
ATOM     24  O   LIG d   1      -3.312  81.674 112.751  0.00  0.00    -0.241 OA
ENDBRANCH   3  22
TORSDOF 7
ENDMDL
MODEL 2
REMARK VINA RESULT:      -4.8      2.164      3.045
REMARK  7 active torsions:
REMARK  status: ('A' for Active; 'I' for Inactive)
REMARK    1  A    between atoms: C_2  and  C_3 
REMARK    2  A    between atoms: C_3  and  O_6 
REMARK    3  A    between atoms: C_3  and  C_4 
REMARK    4  A    between atoms: C_7  and  O_6 
REMARK    5  A    between atoms: C_9  and  C_10 
REMARK    6  A    between atoms: N_15  and  C_14 
REMARK    7  A    between atoms: N_20  and  C_19 
REMARK       I    between atoms: C_22  and  N_20 
ROOT
ATOM      1  C   LIG d   1      -2.660  78.052 116.460  0.00  0.00     0.161 C 
ATOM      2  C   LIG d   1      -2.853  78.950 115.396  0.00  0.00     0.016 C 
ATOM      3  C   LIG d   1      -2.110  78.903 114.195  0.00  0.00     0.038 C 
ATOM      4  C   LIG d   1      -1.222  77.854 113.912  0.00  0.00     0.028 C 
ATOM      5  C   LIG d   1      -0.627  77.211 115.161  0.00  0.00    -0.047 C 
ATOM      6  C   LIG d   1      -1.774  76.834 116.126  0.00  0.00     0.091 C 
ENDROOT
BRANCH   1   7
ATOM      7  O   LIG d   1      -3.937  77.618 116.970  0.00  0.00    -0.368 OA
BRANCH   7   8
ATOM      8  C   LIG d   1      -4.902  77.179 115.983  0.00  0.00     0.119 C 
BRANCH   8   9
ATOM      9  C   LIG d   1      -6.295  77.625 116.467  0.00  0.00     0.028 C 
ATOM     10  C   LIG d   1      -7.028  76.518 117.244  0.00  0.00     0.006 C 
ENDBRANCH   8   9
BRANCH   8  11
ATOM     11  C   LIG d   1      -4.968  75.651 115.909  0.00  0.00     0.028 C 
ATOM     12  C   LIG d   1      -4.736  75.112 114.489  0.00  0.00     0.006 C 
ENDBRANCH   8  11
ENDBRANCH   7   8
ENDBRANCH   1   7
BRANCH   6  13
ATOM     13  N   LIG d   1      -1.275  76.276 117.409  0.00  0.00    -0.311 N 
ATOM     14  C   LIG d   1      -1.515  75.028 117.809  0.00  0.00     0.210 C 
ATOM     15  C   LIG d   1      -0.924  74.661 119.174  0.00  0.00     0.109 C 
ATOM     16  O   LIG d   1      -2.133  74.180 117.148  0.00  0.00    -0.276 OA
ATOM     17  H   LIG d   1      -0.737  76.886 117.993  0.00  0.00     0.149 HD
ENDBRANCH   6  13
BRANCH   5  18
ATOM     18  N   LIG d   1       0.169  76.048 114.727  0.00  0.00     0.381 N 
ATOM     19  H   LIG d   1      -0.434  75.349 114.341  0.00  0.00    -0.090 HD
ATOM     20  H   LIG d   1       0.635  75.657 115.526  0.00  0.00    -0.090 HD
ATOM     21  H   LIG d   1       0.841  76.329 114.047  0.00  0.00    -0.090 HD
ENDBRANCH   5  18
BRANCH   3  22
ATOM     22  C   LIG d   1      -2.223  79.936 113.276  0.00  0.00     0.382 C 
ATOM     23  O   LIG d   1      -1.651  79.849 112.163  0.00  0.00    -0.241 OA
ATOM     24  O   LIG d   1      -2.852  80.971 113.564  0.00  0.00    -0.241 OA
ENDBRANCH   3  22
TORSDOF 7
ENDMDL
MODEL 3
REMARK VINA RESULT:      -4.6      4.437      7.561
REMARK  7 active torsions:
REMARK  status: ('A' for Active; 'I' for Inactive)
REMARK    1  A    between atoms: C_2  and  C_3 
REMARK    2  A    between atoms: C_3  and  O_6 
REMARK    3  A    between atoms: C_3  and  C_4 
REMARK    4  A    between atoms: C_7  and  O_6 
REMARK    5  A    between atoms: C_9  and  C_10 
REMARK    6  A    between atoms: N_15  and  C_14 
REMARK    7  A    between atoms: N_20  and  C_19 
REMARK       I    between atoms: C_22  and  N_20 
ROOT
ATOM      1  C   LIG d   1      -5.441  78.582 117.419  0.00  0.00     0.161 C 
ATOM      2  C   LIG d   1      -5.553  77.221 117.088  0.00  0.00     0.016 C 
ATOM      3  C   LIG d   1      -6.785  76.528 117.055  0.00  0.00     0.038 C 
ATOM      4  C   LIG d   1      -8.013  77.189 117.204  0.00  0.00     0.028 C 
ATOM      5  C   LIG d   1      -7.917  78.462 118.037  0.00  0.00    -0.047 C 
ATOM      6  C   LIG d   1      -6.780  79.346 117.476  0.00  0.00     0.091 C 
ENDROOT
BRANCH   1   7
ATOM      7  O   LIG d   1      -4.531  79.232 116.510  0.00  0.00    -0.368 OA
BRANCH   7   8
ATOM      8  C   LIG d   1      -3.177  78.719 116.488  0.00  0.00     0.119 C 
BRANCH   8   9
ATOM      9  C   LIG d   1      -2.458  79.254 117.742  0.00  0.00     0.028 C 
ATOM     10  C   LIG d   1      -0.953  79.465 117.510  0.00  0.00     0.006 C 
ENDBRANCH   8   9
BRANCH   8  11
ATOM     11  C   LIG d   1      -2.388  79.278 115.299  0.00  0.00     0.028 C 
ATOM     12  C   LIG d   1      -2.249  78.268 114.149  0.00  0.00     0.006 C 
ENDBRANCH   8  11
ENDBRANCH   7   8
ENDBRANCH   1   7
BRANCH   6  13
ATOM     13  N   LIG d   1      -6.564  80.574 118.285  0.00  0.00    -0.311 N 
ATOM     14  C   LIG d   1      -7.129  81.747 118.004  0.00  0.00     0.210 C 
ATOM     15  C   LIG d   1      -6.756  82.888 118.955  0.00  0.00     0.109 C 
ATOM     16  O   LIG d   1      -7.928  81.942 117.076  0.00  0.00    -0.276 OA
ATOM     17  H   LIG d   1      -5.954  80.497 119.076  0.00  0.00     0.149 HD
ENDBRANCH   6  13
BRANCH   5  18
ATOM     18  N   LIG d   1      -9.236  79.122 117.996  0.00  0.00     0.381 N 
ATOM     19  H   LIG d   1      -9.950  78.442 117.823  0.00  0.00    -0.090 HD
ATOM     20  H   LIG d   1      -9.244  79.786 117.242  0.00  0.00    -0.090 HD
ATOM     21  H   LIG d   1      -9.412  79.587 118.860  0.00  0.00    -0.090 HD
ENDBRANCH   5  18
BRANCH   3  22
ATOM     22  C   LIG d   1      -6.793  75.149 116.910  0.00  0.00     0.382 C 
ATOM     23  O   LIG d   1      -5.942  74.590 116.176  0.00  0.00    -0.241 OA
ATOM     24  O   LIG d   1      -7.667  74.460 117.469  0.00  0.00    -0.241 OA
ENDBRANCH   3  22
TORSDOF 7
ENDMDL
MODEL 4
REMARK VINA RESULT:      -4.6      3.216      4.370
REMARK  7 active torsions:
REMARK  status: ('A' for Active; 'I' for Inactive)
REMARK    1  A    between atoms: C_2  and  C_3 
REMARK    2  A    between atoms: C_3  and  O_6 
REMARK    3  A    between atoms: C_3  and  C_4 
REMARK    4  A    between atoms: C_7  and  O_6 
REMARK    5  A    between atoms: C_9  and  C_10 
REMARK    6  A    between atoms: N_15  and  C_14 
REMARK    7  A    between atoms: N_20  and  C_19 
REMARK       I    between atoms: C_22  and  N_20 
ROOT
ATOM      1  C   LIG d   1      -3.773  78.062 117.063  0.00  0.00     0.161 C 
ATOM      2  C   LIG d   1      -3.007  79.081 117.654  0.00  0.00     0.016 C 
ATOM      3  C   LIG d   1      -1.627  79.262 117.404  0.00  0.00     0.038 C 
ATOM      4  C   LIG d   1      -0.949  78.525 116.422  0.00  0.00     0.028 C 
ATOM      5  C   LIG d   1      -1.561  77.152 116.165  0.00  0.00    -0.047 C 
ATOM      6  C   LIG d   1      -3.075  77.318 115.906  0.00  0.00     0.091 C 
ENDROOT
BRANCH   1   7
ATOM      7  O   LIG d   1      -5.039  78.594 116.626  0.00  0.00    -0.368 OA
BRANCH   7   8
ATOM      8  C   LIG d   1      -6.183  78.282 117.459  0.00  0.00     0.119 C 
BRANCH   8   9
ATOM      9  C   LIG d   1      -7.046  77.258 116.696  0.00  0.00     0.028 C 
ATOM     10  C   LIG d   1      -7.076  75.885 117.387  0.00  0.00     0.006 C 
ENDBRANCH   8   9
BRANCH   8  11
ATOM     11  C   LIG d   1      -7.083  79.506 117.651  0.00  0.00     0.028 C 
ATOM     12  C   LIG d   1      -6.294  80.825 117.686  0.00  0.00     0.006 C 
ENDBRANCH   8  11
ENDBRANCH   7   8
ENDBRANCH   1   7
BRANCH   6  13
ATOM     13  N   LIG d   1      -3.766  76.014 115.728  0.00  0.00    -0.311 N 
ATOM     14  C   LIG d   1      -4.343  75.640 114.587  0.00  0.00     0.210 C 
ATOM     15  C   LIG d   1      -5.018  74.265 114.625  0.00  0.00     0.109 C 
ATOM     16  O   LIG d   1      -4.333  76.302 113.539  0.00  0.00    -0.276 OA
ATOM     17  H   LIG d   1      -3.795  75.401 116.519  0.00  0.00     0.149 HD
ENDBRANCH   6  13
BRANCH   5  18
ATOM     18  N   LIG d   1      -0.841  76.549 115.027  0.00  0.00     0.381 N 
ATOM     19  H   LIG d   1      -0.360  75.726 115.328  0.00  0.00    -0.090 HD
ATOM     20  H   LIG d   1      -0.161  77.206 114.688  0.00  0.00    -0.090 HD
ATOM     21  H   LIG d   1      -1.484  76.320 114.301  0.00  0.00    -0.090 HD
ENDBRANCH   5  18
BRANCH   3  22
ATOM     22  C   LIG d   1      -0.903  80.163 118.169  0.00  0.00     0.382 C 
ATOM     23  O   LIG d   1      -1.238  80.390 119.357  0.00  0.00    -0.241 OA
ATOM     24  O   LIG d   1       0.055  80.786 117.673  0.00  0.00    -0.241 OA
ENDBRANCH   3  22
TORSDOF 7
ENDMDL
MODEL 5
REMARK VINA RESULT:      -4.5      1.582      2.299
REMARK  7 active torsions:
REMARK  status: ('A' for Active; 'I' for Inactive)
REMARK    1  A    between atoms: C_2  and  C_3 
REMARK    2  A    between atoms: C_3  and  O_6 
REMARK    3  A    between atoms: C_3  and  C_4 
REMARK    4  A    between atoms: C_7  and  O_6 
REMARK    5  A    between atoms: C_9  and  C_10 
REMARK    6  A    between atoms: N_15  and  C_14 
REMARK    7  A    between atoms: N_20  and  C_19 
REMARK       I    between atoms: C_22  and  N_20 
ROOT
ATOM      1  C   LIG d   1      -2.860  78.584 115.886  0.00  0.00     0.161 C 
ATOM      2  C   LIG d   1      -2.880  79.513 114.832  0.00  0.00     0.016 C 
ATOM      3  C   LIG d   1      -2.029  79.431 113.706  0.00  0.00     0.038 C 
ATOM      4  C   LIG d   1      -1.198  78.323 113.484  0.00  0.00     0.028 C 
ATOM      5  C   LIG d   1      -0.777  77.614 114.767  0.00  0.00    -0.047 C 
ATOM      6  C   LIG d   1      -2.038  77.308 115.607  0.00  0.00     0.091 C 
ENDROOT
BRANCH   1   7
ATOM      7  O   LIG d   1      -4.208  78.239 116.260  0.00  0.00    -0.368 OA
BRANCH   7   8
ATOM      8  C   LIG d   1      -4.692  78.812 117.500  0.00  0.00     0.119 C 
BRANCH   8   9
ATOM      9  C   LIG d   1      -4.746  77.679 118.543  0.00  0.00     0.028 C 
ATOM     10  C   LIG d   1      -3.718  77.869 119.671  0.00  0.00     0.006 C 
ENDBRANCH   8   9
BRANCH   8  11
ATOM     11  C   LIG d   1      -6.135  79.304 117.361  0.00  0.00     0.028 C 
ATOM     12  C   LIG d   1      -6.294  80.792 117.714  0.00  0.00     0.006 C 
ENDBRANCH   8  11
ENDBRANCH   7   8
ENDBRANCH   1   7
BRANCH   6  13
ATOM     13  N   LIG d   1      -1.709  76.690 116.918  0.00  0.00    -0.311 N 
ATOM     14  C   LIG d   1      -1.731  75.376 117.135  0.00  0.00     0.210 C 
ATOM     15  C   LIG d   1      -1.378  74.950 118.564  0.00  0.00     0.109 C 
ATOM     16  O   LIG d   1      -1.979  74.520 116.272  0.00  0.00    -0.276 OA
ATOM     17  H   LIG d   1      -1.466  77.309 117.666  0.00  0.00     0.149 HD
ENDBRANCH   6  13
BRANCH   5  18
ATOM     18  N   LIG d   1      -0.031  76.402 114.382  0.00  0.00     0.381 N 
ATOM     19  H   LIG d   1       0.628  76.624 113.662  0.00  0.00    -0.090 HD
ATOM     20  H   LIG d   1      -0.677  75.723 114.019  0.00  0.00    -0.090 HD
ATOM     21  H   LIG d   1       0.445  76.028 115.173  0.00  0.00    -0.090 HD
ENDBRANCH   5  18
BRANCH   3  22
ATOM     22  C   LIG d   1      -1.975  80.486 112.808  0.00  0.00     0.382 C 
ATOM     23  O   LIG d   1      -2.916  81.314 112.756  0.00  0.00    -0.241 OA
ATOM     24  O   LIG d   1      -1.018  80.595 112.018  0.00  0.00    -0.241 OA
ENDBRANCH   3  22
TORSDOF 7
ENDMDL
MODEL 6
REMARK VINA RESULT:      -4.5      4.504      6.857
REMARK  7 active torsions:
REMARK  status: ('A' for Active; 'I' for Inactive)
REMARK    1  A    between atoms: C_2  and  C_3 
REMARK    2  A    between atoms: C_3  and  O_6 
REMARK    3  A    between atoms: C_3  and  C_4 
REMARK    4  A    between atoms: C_7  and  O_6 
REMARK    5  A    between atoms: C_9  and  C_10 
REMARK    6  A    between atoms: N_15  and  C_14 
REMARK    7  A    between atoms: N_20  and  C_19 
REMARK       I    between atoms: C_22  and  N_20 
ROOT
ATOM      1  C   LIG d   1      -6.097  78.376 117.519  0.00  0.00     0.161 C 
ATOM      2  C   LIG d   1      -7.429  78.817 117.449  0.00  0.00     0.016 C 
ATOM      3  C   LIG d   1      -7.898  79.984 118.094  0.00  0.00     0.038 C 
ATOM      4  C   LIG d   1      -7.027  80.878 118.734  0.00  0.00     0.028 C 
ATOM      5  C   LIG d   1      -5.758  80.216 119.260  0.00  0.00    -0.047 C 
ATOM      6  C   LIG d   1      -5.109  79.398 118.119  0.00  0.00     0.091 C 
ENDROOT
BRANCH   1   7
ATOM      7  O   LIG d   1      -5.652  77.956 116.214  0.00  0.00    -0.368 OA
BRANCH   7   8
ATOM      8  C   LIG d   1      -6.256  76.747 115.693  0.00  0.00     0.119 C 
BRANCH   8   9
ATOM      9  C   LIG d   1      -6.007  75.626 116.721  0.00  0.00     0.028 C 
ATOM     10  C   LIG d   1      -7.316  75.031 117.268  0.00  0.00     0.006 C 
ENDBRANCH   8   9
BRANCH   8  11
ATOM     11  C   LIG d   1      -5.558  76.283 114.411  0.00  0.00     0.028 C 
ATOM     12  C   LIG d   1      -4.801  74.957 114.591  0.00  0.00     0.006 C 
ENDBRANCH   8  11
ENDBRANCH   7   8
ENDBRANCH   1   7
BRANCH   6  13
ATOM     13  N   LIG d   1      -3.907  78.649 118.571  0.00  0.00    -0.311 N 
ATOM     14  C   LIG d   1      -2.772  78.598 117.878  0.00  0.00     0.210 C 
ATOM     15  C   LIG d   1      -1.663  77.754 118.514  0.00  0.00     0.109 C 
ATOM     16  O   LIG d   1      -2.566  79.198 116.812  0.00  0.00    -0.276 OA
ATOM     17  H   LIG d   1      -3.976  78.159 119.442  0.00  0.00     0.149 HD
ENDBRANCH   6  13
BRANCH   5  18
ATOM     18  N   LIG d   1      -4.880  81.282 119.778  0.00  0.00     0.381 N 
ATOM     19  H   LIG d   1      -5.264  81.655 120.624  0.00  0.00    -0.090 HD
ATOM     20  H   LIG d   1      -4.833  82.022 119.100  0.00  0.00    -0.090 HD
ATOM     21  H   LIG d   1      -3.968  80.920 119.950  0.00  0.00    -0.090 HD
ENDBRANCH   5  18
BRANCH   3  22
ATOM     22  C   LIG d   1      -9.259  80.245 118.138  0.00  0.00     0.382 C 
ATOM     23  O   LIG d   1     -10.059  79.348 118.496  0.00  0.00    -0.241 OA
ATOM     24  O   LIG d   1      -9.701  81.354 117.781  0.00  0.00    -0.241 OA
ENDBRANCH   3  22
TORSDOF 7
ENDMDL
MODEL 7
REMARK VINA RESULT:      -4.2      3.756      5.770
REMARK  7 active torsions:
REMARK  status: ('A' for Active; 'I' for Inactive)
REMARK    1  A    between atoms: C_2  and  C_3 
REMARK    2  A    between atoms: C_3  and  O_6 
REMARK    3  A    between atoms: C_3  and  C_4 
REMARK    4  A    between atoms: C_7  and  O_6 
REMARK    5  A    between atoms: C_9  and  C_10 
REMARK    6  A    between atoms: N_15  and  C_14 
REMARK    7  A    between atoms: N_20  and  C_19 
REMARK       I    between atoms: C_22  and  N_20 
ROOT
ATOM      1  C   LIG d   1      -4.847  78.368 117.118  0.00  0.00     0.161 C 
ATOM      2  C   LIG d   1      -5.379  79.628 117.436  0.00  0.00     0.016 C 
ATOM      3  C   LIG d   1      -6.755  79.855 117.672  0.00  0.00     0.038 C 
ATOM      4  C   LIG d   1      -7.676  78.801 117.755  0.00  0.00     0.028 C 
ATOM      5  C   LIG d   1      -7.270  77.575 116.943  0.00  0.00    -0.047 C 
ATOM      6  C   LIG d   1      -5.820  77.186 117.314  0.00  0.00     0.091 C 
ENDROOT
BRANCH   1   7
ATOM      7  O   LIG d   1      -3.635  78.147 117.866  0.00  0.00    -0.368 OA
BRANCH   7   8
ATOM      8  C   LIG d   1      -2.406  78.134 117.099  0.00  0.00     0.119 C 
BRANCH   8   9
ATOM      9  C   LIG d   1      -2.752  78.572 115.663  0.00  0.00     0.028 C 
ATOM     10  C   LIG d   1      -2.109  77.664 114.601  0.00  0.00     0.006 C 
ENDBRANCH   8   9
BRANCH   8  11
ATOM     11  C   LIG d   1      -1.846  76.714 116.966  0.00  0.00     0.028 C 
ATOM     12  C   LIG d   1      -2.086  75.860 118.221  0.00  0.00     0.006 C 
ENDBRANCH   8  11
ENDBRANCH   7   8
ENDBRANCH   1   7
BRANCH   6  13
ATOM     13  N   LIG d   1      -5.314  76.048 116.504  0.00  0.00    -0.311 N 
ATOM     14  C   LIG d   1      -5.360  76.017 115.173  0.00  0.00     0.210 C 
ATOM     15  C   LIG d   1      -4.803  74.740 114.537  0.00  0.00     0.109 C 
ATOM     16  O   LIG d   1      -5.780  76.939 114.459  0.00  0.00    -0.276 OA
ATOM     17  H   LIG d   1      -4.928  75.270 117.002  0.00  0.00     0.149 HD
ENDBRANCH   6  13
BRANCH   5  18
ATOM     18  N   LIG d   1      -8.246  76.507 117.230  0.00  0.00     0.381 N 
ATOM     19  H   LIG d   1      -7.767  75.643 117.386  0.00  0.00    -0.090 HD
ATOM     20  H   LIG d   1      -8.847  76.394 116.432  0.00  0.00    -0.090 HD
ATOM     21  H   LIG d   1      -8.787  76.746 118.032  0.00  0.00    -0.090 HD
ENDBRANCH   5  18
BRANCH   3  22
ATOM     22  C   LIG d   1      -7.227  81.154 117.788  0.00  0.00     0.382 C 
ATOM     23  O   LIG d   1      -6.901  82.017 116.938  0.00  0.00    -0.241 OA
ATOM     24  O   LIG d   1      -7.939  81.483 118.755  0.00  0.00    -0.241 OA
ENDBRANCH   3  22
TORSDOF 7
ENDMDL
MODEL 8
REMARK VINA RESULT:      -4.2      3.139      4.407
REMARK  7 active torsions:
REMARK  status: ('A' for Active; 'I' for Inactive)
REMARK    1  A    between atoms: C_2  and  C_3 
REMARK    2  A    between atoms: C_3  and  O_6 
REMARK    3  A    between atoms: C_3  and  C_4 
REMARK    4  A    between atoms: C_7  and  O_6 
REMARK    5  A    between atoms: C_9  and  C_10 
REMARK    6  A    between atoms: N_15  and  C_14 
REMARK    7  A    between atoms: N_20  and  C_19 
REMARK       I    between atoms: C_22  and  N_20 
ROOT
ATOM      1  C   LIG d   1      -3.295  78.175 116.806  0.00  0.00     0.161 C 
ATOM      2  C   LIG d   1      -2.446  79.098 117.438  0.00  0.00     0.016 C 
ATOM      3  C   LIG d   1      -1.040  79.089 117.292  0.00  0.00     0.038 C 
ATOM      4  C   LIG d   1      -0.395  78.243 116.377  0.00  0.00     0.028 C 
ATOM      5  C   LIG d   1      -1.164  76.957 116.095  0.00  0.00    -0.047 C 
ATOM      6  C   LIG d   1      -2.620  77.315 115.717  0.00  0.00     0.091 C 
ENDROOT
BRANCH   1   7
ATOM      7  O   LIG d   1      -4.443  78.858 116.264  0.00  0.00    -0.368 OA
BRANCH   7   8
ATOM      8  C   LIG d   1      -5.704  78.615 116.934  0.00  0.00     0.119 C 
BRANCH   8   9
ATOM      9  C   LIG d   1      -6.055  79.884 117.735  0.00  0.00     0.028 C 
ATOM     10  C   LIG d   1      -7.572  80.064 117.914  0.00  0.00     0.006 C 
ENDBRANCH   8   9
BRANCH   8  11
ATOM     11  C   LIG d   1      -5.576  77.500 117.976  0.00  0.00     0.028 C 
ATOM     12  C   LIG d   1      -6.521  76.319 117.705  0.00  0.00     0.006 C 
ENDBRANCH   8  11
ENDBRANCH   7   8
ENDBRANCH   1   7
BRANCH   6  13
ATOM     13  N   LIG d   1      -3.464  76.110 115.507  0.00  0.00    -0.311 N 
ATOM     14  C   LIG d   1      -4.279  75.959 114.465  0.00  0.00     0.210 C 
ATOM     15  C   LIG d   1      -5.074  74.650 114.451  0.00  0.00     0.109 C 
ATOM     16  O   LIG d   1      -4.395  76.770 113.534  0.00  0.00    -0.276 OA
ATOM     17  H   LIG d   1      -3.408  75.389 116.198  0.00  0.00     0.149 HD
ENDBRANCH   6  13
BRANCH   5  18
ATOM     18  N   LIG d   1      -0.450  76.236 115.025  0.00  0.00     0.381 N 
ATOM     19  H   LIG d   1       0.226  76.840 114.602  0.00  0.00    -0.090 HD
ATOM     20  H   LIG d   1      -1.111  75.960 114.321  0.00  0.00    -0.090 HD
ATOM     21  H   LIG d   1       0.003  75.431 115.399  0.00  0.00    -0.090 HD
ENDBRANCH   5  18
BRANCH   3  22
ATOM     22  C   LIG d   1      -0.260  79.906 118.096  0.00  0.00     0.382 C 
ATOM     23  O   LIG d   1       0.045  79.537 119.256  0.00  0.00    -0.241 OA
ATOM     24  O   LIG d   1       0.106  81.026 117.692  0.00  0.00    -0.241 OA
ENDBRANCH   3  22
TORSDOF 7
ENDMDL
MODEL 9
REMARK VINA RESULT:      -4.0      3.295      5.388
REMARK  7 active torsions:
REMARK  status: ('A' for Active; 'I' for Inactive)
REMARK    1  A    between atoms: C_2  and  C_3 
REMARK    2  A    between atoms: C_3  and  O_6 
REMARK    3  A    between atoms: C_3  and  C_4 
REMARK    4  A    between atoms: C_7  and  O_6 
REMARK    5  A    between atoms: C_9  and  C_10 
REMARK    6  A    between atoms: N_15  and  C_14 
REMARK    7  A    between atoms: N_20  and  C_19 
REMARK       I    between atoms: C_22  and  N_20 
ROOT
ATOM      1  C   LIG d   1      -4.427  77.964 116.968  0.00  0.00     0.161 C 
ATOM      2  C   LIG d   1      -5.571  78.682 117.355  0.00  0.00     0.016 C 
ATOM      3  C   LIG d   1      -6.861  78.109 117.427  0.00  0.00     0.038 C 
ATOM      4  C   LIG d   1      -7.072  76.732 117.261  0.00  0.00     0.028 C 
ATOM      5  C   LIG d   1      -6.027  76.062 116.375  0.00  0.00    -0.047 C 
ATOM      6  C   LIG d   1      -4.618  76.435 116.891  0.00  0.00     0.091 C 
ENDROOT
BRANCH   1   7
ATOM      7  O   LIG d   1      -3.328  78.288 117.842  0.00  0.00    -0.368 OA
BRANCH   7   8
ATOM      8  C   LIG d   1      -2.309  79.158 117.290  0.00  0.00     0.119 C 
BRANCH   8   9
ATOM      9  C   LIG d   1      -2.491  79.170 115.760  0.00  0.00     0.028 C 
ATOM     10  C   LIG d   1      -1.240  78.672 115.016  0.00  0.00     0.006 C 
ENDBRANCH   8   9
BRANCH   8  11
ATOM     11  C   LIG d   1      -0.905  78.592 117.527  0.00  0.00     0.028 C 
ATOM     12  C   LIG d   1      -0.732  77.997 118.933  0.00  0.00     0.006 C 
ENDBRANCH   8  11
ENDBRANCH   7   8
ENDBRANCH   1   7
BRANCH   6  13
ATOM     13  N   LIG d   1      -3.536  75.889 116.030  0.00  0.00    -0.311 N 
ATOM     14  C   LIG d   1      -2.456  75.276 116.510  0.00  0.00     0.210 C 
ATOM     15  C   LIG d   1      -1.454  74.807 115.451  0.00  0.00     0.109 C 
ATOM     16  O   LIG d   1      -2.248  75.048 117.711  0.00  0.00    -0.276 OA
ATOM     17  H   LIG d   1      -3.639  76.004 115.041  0.00  0.00     0.149 HD
ENDBRANCH   6  13
BRANCH   5  18
ATOM     18  N   LIG d   1      -6.286  74.610 116.400  0.00  0.00     0.381 N 
ATOM     19  H   LIG d   1      -6.694  74.354 117.277  0.00  0.00    -0.090 HD
ATOM     20  H   LIG d   1      -5.413  74.122 116.304  0.00  0.00    -0.090 HD
ATOM     21  H   LIG d   1      -6.898  74.360 115.655  0.00  0.00    -0.090 HD
ENDBRANCH   5  18
BRANCH   3  22
ATOM     22  C   LIG d   1      -7.965  78.924 117.628  0.00  0.00     0.382 C 
ATOM     23  O   LIG d   1      -7.859  80.167 117.496  0.00  0.00    -0.241 OA
ATOM     24  O   LIG d   1      -9.054  78.436 117.984  0.00  0.00    -0.241 OA
ENDBRANCH   3  22
TORSDOF 7
ENDMDL
