MODEL 1
REMARK VINA RESULT:      -5.2      0.000      0.000
REMARK  7 active torsions:
REMARK  status: ('A' for Active; 'I' for Inactive)
REMARK    1  A    between atoms: C_2  and  C_3 
REMARK    2  A    between atoms: C_3  and  O_6 
REMARK    3  A    between atoms: C_3  and  C_4 
REMARK    4  A    between atoms: C_7  and  O_6 
REMARK    5  A    between atoms: C_9  and  C_10 
REMARK    6  A    between atoms: N_15  and  C_14 
REMARK    7  A    between atoms: N_20  and  C_19 
REMARK       I    between atoms: C_22  and  N_20 
ROOT
ATOM      1  C   LIG d   1      -3.110  78.416 115.274  0.00  0.00     0.161 C 
ATOM      2  C   LIG d   1      -3.228  79.628 114.572  0.00  0.00     0.016 C 
ATOM      3  C   LIG d   1      -2.584  79.879 113.339  0.00  0.00     0.038 C 
ATOM      4  C   LIG d   1      -1.893  78.874 112.645  0.00  0.00     0.028 C 
ATOM      5  C   LIG d   1      -1.326  77.790 113.555  0.00  0.00    -0.047 C 
ATOM      6  C   LIG d   1      -2.451  77.270 114.478  0.00  0.00     0.091 C 
ENDROOT
BRANCH   1   7
ATOM      7  O   LIG d   1      -4.401  78.008 115.765  0.00  0.00    -0.368 OA
BRANCH   7   8
ATOM      8  C   LIG d   1      -4.670  78.287 117.161  0.00  0.00     0.119 C 
BRANCH   8   9
ATOM      9  C   LIG d   1      -4.871  76.935 117.873  0.00  0.00     0.028 C 
ATOM     10  C   LIG d   1      -3.779  76.654 118.919  0.00  0.00     0.006 C 
ENDBRANCH   8   9
BRANCH   8  11
ATOM     11  C   LIG d   1      -5.994  79.037 117.335  0.00  0.00     0.028 C 
ATOM     12  C   LIG d   1      -5.817  80.564 117.339  0.00  0.00     0.006 C 
ENDBRANCH   8  11
ENDBRANCH   7   8
ENDBRANCH   1   7
BRANCH   6  13
ATOM     13  N   LIG d   1      -1.961  76.266 115.458  0.00  0.00    -0.311 N 
ATOM     14  C   LIG d   1      -2.575  75.107 115.689  0.00  0.00     0.210 C 
ATOM     15  C   LIG d   1      -1.914  74.226 116.754  0.00  0.00     0.109 C 
ATOM     16  O   LIG d   1      -3.586  74.710 115.090  0.00  0.00    -0.276 OA
ATOM     17  H   LIG d   1      -1.129  76.493 115.966  0.00  0.00     0.149 HD
ENDBRANCH   6  13
BRANCH   5  18
ATOM     18  N   LIG d   1      -0.753  76.739 112.693  0.00  0.00     0.381 N 
ATOM     19  H   LIG d   1      -1.004  76.910 111.739  0.00  0.00    -0.090 HD
ATOM     20  H   LIG d   1      -1.136  75.851 112.965  0.00  0.00    -0.090 HD
ATOM     21  H   LIG d   1       0.239  76.725 112.786  0.00  0.00    -0.090 HD
ENDBRANCH   5  18
BRANCH   3  22
ATOM     22  C   LIG d   1      -2.593  81.160 112.808  0.00  0.00     0.382 C 
ATOM     23  O   LIG d   1      -1.527  81.673 112.391  0.00  0.00    -0.241 OA
ATOM     24  O   LIG d   1      -3.646  81.825 112.780  0.00  0.00    -0.241 OA
ENDBRANCH   3  22
TORSDOF 7
ENDMDL
MODEL 2
REMARK VINA RESULT:      -4.7      2.987      4.274
REMARK  7 active torsions:
REMARK  status: ('A' for Active; 'I' for Inactive)
REMARK    1  A    between atoms: C_2  and  C_3 
REMARK    2  A    between atoms: C_3  and  O_6 
REMARK    3  A    between atoms: C_3  and  C_4 
REMARK    4  A    between atoms: C_7  and  O_6 
REMARK    5  A    between atoms: C_9  and  C_10 
REMARK    6  A    between atoms: N_15  and  C_14 
REMARK    7  A    between atoms: N_20  and  C_19 
REMARK       I    between atoms: C_22  and  N_20 
ROOT
ATOM      1  C   LIG d   1      -5.045  77.158 117.479  0.00  0.00     0.161 C 
ATOM      2  C   LIG d   1      -5.836  78.302 117.673  0.00  0.00     0.016 C 
ATOM      3  C   LIG d   1      -5.426  79.604 117.303  0.00  0.00     0.038 C 
ATOM      4  C   LIG d   1      -4.251  79.831 116.571  0.00  0.00     0.028 C 
ATOM      5  C   LIG d   1      -3.182  78.768 116.797  0.00  0.00    -0.047 C 
ATOM      6  C   LIG d   1      -3.808  77.371 116.581  0.00  0.00     0.091 C 
ENDROOT
BRANCH   1   7
ATOM      7  O   LIG d   1      -5.857  76.083 116.966  0.00  0.00    -0.368 OA
BRANCH   7   8
ATOM      8  C   LIG d   1      -6.802  76.439 115.927  0.00  0.00     0.119 C 
BRANCH   8   9
ATOM      9  C   LIG d   1      -8.143  75.762 116.270  0.00  0.00     0.028 C 
ATOM     10  C   LIG d   1      -8.034  74.823 117.483  0.00  0.00     0.006 C 
ENDBRANCH   8   9
BRANCH   8  11
ATOM     11  C   LIG d   1      -6.387  75.855 114.573  0.00  0.00     0.028 C 
ATOM     12  C   LIG d   1      -5.458  74.638 114.709  0.00  0.00     0.006 C 
ENDBRANCH   8  11
ENDBRANCH   7   8
ENDBRANCH   1   7
BRANCH   6  13
ATOM     13  N   LIG d   1      -2.851  76.271 116.866  0.00  0.00    -0.311 N 
ATOM     14  C   LIG d   1      -2.109  75.684 115.928  0.00  0.00     0.210 C 
ATOM     15  C   LIG d   1      -1.202  74.557 116.432  0.00  0.00     0.109 C 
ATOM     16  O   LIG d   1      -2.091  76.012 114.732  0.00  0.00    -0.276 OA
ATOM     17  H   LIG d   1      -2.778  75.963 117.816  0.00  0.00     0.149 HD
ENDBRANCH   6  13
BRANCH   5  18
ATOM     18  N   LIG d   1      -2.069  79.052 115.871  0.00  0.00     0.381 N 
ATOM     19  H   LIG d   1      -2.309  79.820 115.278  0.00  0.00    -0.090 HD
ATOM     20  H   LIG d   1      -1.912  78.244 115.294  0.00  0.00    -0.090 HD
ATOM     21  H   LIG d   1      -1.243  79.266 116.386  0.00  0.00    -0.090 HD
ENDBRANCH   5  18
BRANCH   3  22
ATOM     22  C   LIG d   1      -6.176  80.700 117.701  0.00  0.00     0.382 C 
ATOM     23  O   LIG d   1      -6.903  81.297 116.870  0.00  0.00    -0.241 OA
ATOM     24  O   LIG d   1      -6.102  81.126 118.869  0.00  0.00    -0.241 OA
ENDBRANCH   3  22
TORSDOF 7
ENDMDL
MODEL 3
REMARK VINA RESULT:      -4.7      3.671      6.006
REMARK  7 active torsions:
REMARK  status: ('A' for Active; 'I' for Inactive)
REMARK    1  A    between atoms: C_2  and  C_3 
REMARK    2  A    between atoms: C_3  and  O_6 
REMARK    3  A    between atoms: C_3  and  C_4 
REMARK    4  A    between atoms: C_7  and  O_6 
REMARK    5  A    between atoms: C_9  and  C_10 
REMARK    6  A    between atoms: N_15  and  C_14 
REMARK    7  A    between atoms: N_20  and  C_19 
REMARK       I    between atoms: C_22  and  N_20 
ROOT
ATOM      1  C   LIG d   1      -7.055  77.552 117.248  0.00  0.00     0.161 C 
ATOM      2  C   LIG d   1      -6.931  76.692 116.144  0.00  0.00     0.016 C 
ATOM      3  C   LIG d   1      -5.705  76.440 115.487  0.00  0.00     0.038 C 
ATOM      4  C   LIG d   1      -4.484  76.918 115.987  0.00  0.00     0.028 C 
ATOM      5  C   LIG d   1      -4.624  78.199 116.802  0.00  0.00    -0.047 C 
ATOM      6  C   LIG d   1      -5.717  77.995 117.876  0.00  0.00     0.091 C 
ENDROOT
BRANCH   1   7
ATOM      7  O   LIG d   1      -7.901  76.948 118.245  0.00  0.00    -0.368 OA
BRANCH   7   8
ATOM      8  C   LIG d   1      -9.323  76.961 117.968  0.00  0.00     0.119 C 
BRANCH   8   9
ATOM      9  C   LIG d   1      -9.976  77.955 118.948  0.00  0.00     0.028 C 
ATOM     10  C   LIG d   1      -9.873  79.411 118.463  0.00  0.00     0.006 C 
ENDBRANCH   8   9
BRANCH   8  11
ATOM     11  C   LIG d   1      -9.964  75.605 118.279  0.00  0.00     0.028 C 
ATOM     12  C   LIG d   1     -10.039  74.686 117.049  0.00  0.00     0.006 C 
ENDBRANCH   8  11
ENDBRANCH   7   8
ENDBRANCH   1   7
BRANCH   6  13
ATOM     13  N   LIG d   1      -5.976  79.229 118.663  0.00  0.00    -0.311 N 
ATOM     14  C   LIG d   1      -6.324  80.390 118.112  0.00  0.00     0.210 C 
ATOM     15  C   LIG d   1      -6.524  81.541 119.103  0.00  0.00     0.109 C 
ATOM     16  O   LIG d   1      -6.517  80.569 116.900  0.00  0.00    -0.276 OA
ATOM     17  H   LIG d   1      -5.873  79.165 119.657  0.00  0.00     0.149 HD
ENDBRANCH   6  13
BRANCH   5  18
ATOM     18  N   LIG d   1      -3.300  78.509 117.377  0.00  0.00     0.381 N 
ATOM     19  H   LIG d   1      -3.210  78.073 118.273  0.00  0.00    -0.090 HD
ATOM     20  H   LIG d   1      -3.224  79.503 117.500  0.00  0.00    -0.090 HD
ATOM     21  H   LIG d   1      -2.581  78.186 116.768  0.00  0.00    -0.090 HD
ENDBRANCH   5  18
BRANCH   3  22
ATOM     22  C   LIG d   1      -5.696  75.736 114.293  0.00  0.00     0.382 C 
ATOM     23  O   LIG d   1      -5.116  74.626 114.224  0.00  0.00    -0.241 OA
ATOM     24  O   LIG d   1      -6.224  76.216 113.272  0.00  0.00    -0.241 OA
ENDBRANCH   3  22
TORSDOF 7
ENDMDL
MODEL 4
REMARK VINA RESULT:      -4.6      3.749      5.842
REMARK  7 active torsions:
REMARK  status: ('A' for Active; 'I' for Inactive)
REMARK    1  A    between atoms: C_2  and  C_3 
REMARK    2  A    between atoms: C_3  and  O_6 
REMARK    3  A    between atoms: C_3  and  C_4 
REMARK    4  A    between atoms: C_7  and  O_6 
REMARK    5  A    between atoms: C_9  and  C_10 
REMARK    6  A    between atoms: N_15  and  C_14 
REMARK    7  A    between atoms: N_20  and  C_19 
REMARK       I    between atoms: C_22  and  N_20 
ROOT
ATOM      1  C   LIG d   1      -6.854  77.068 117.536  0.00  0.00     0.161 C 
ATOM      2  C   LIG d   1      -6.670  76.276 116.391  0.00  0.00     0.016 C 
ATOM      3  C   LIG d   1      -5.566  76.416 115.517  0.00  0.00     0.038 C 
ATOM      4  C   LIG d   1      -4.488  77.261 115.816  0.00  0.00     0.028 C 
ATOM      5  C   LIG d   1      -4.871  78.444 116.699  0.00  0.00    -0.047 C 
ATOM      6  C   LIG d   1      -5.632  77.919 117.938  0.00  0.00     0.091 C 
ENDROOT
BRANCH   1   7
ATOM      7  O   LIG d   1      -7.273  76.240 118.640  0.00  0.00    -0.368 OA
BRANCH   7   8
ATOM      8  C   LIG d   1      -8.677  76.310 118.992  0.00  0.00     0.119 C 
BRANCH   8   9
ATOM      9  C   LIG d   1      -9.315  74.957 118.621  0.00  0.00     0.028 C 
ATOM     10  C   LIG d   1     -10.060  75.009 117.277  0.00  0.00     0.006 C 
ENDBRANCH   8   9
BRANCH   8  11
ATOM     11  C   LIG d   1      -9.413  77.351 118.144  0.00  0.00     0.028 C 
ATOM     12  C   LIG d   1     -10.060  78.459 118.990  0.00  0.00     0.006 C 
ENDBRANCH   8  11
ENDBRANCH   7   8
ENDBRANCH   1   7
BRANCH   6  13
ATOM     13  N   LIG d   1      -6.117  79.018 118.813  0.00  0.00    -0.311 N 
ATOM     14  C   LIG d   1      -6.869  80.026 118.374  0.00  0.00     0.210 C 
ATOM     15  C   LIG d   1      -7.243  81.064 119.438  0.00  0.00     0.109 C 
ATOM     16  O   LIG d   1      -7.288  80.143 117.213  0.00  0.00    -0.276 OA
ATOM     17  H   LIG d   1      -5.849  78.986 119.777  0.00  0.00     0.149 HD
ENDBRANCH   6  13
BRANCH   5  18
ATOM     18  N   LIG d   1      -3.630  79.163 117.044  0.00  0.00     0.381 N 
ATOM     19  H   LIG d   1      -3.790  80.150 117.011  0.00  0.00    -0.090 HD
ATOM     20  H   LIG d   1      -2.924  78.936 116.367  0.00  0.00    -0.090 HD
ATOM     21  H   LIG d   1      -3.325  78.899 117.955  0.00  0.00    -0.090 HD
ENDBRANCH   5  18
BRANCH   3  22
ATOM     22  C   LIG d   1      -5.555  75.734 114.310  0.00  0.00     0.382 C 
ATOM     23  O   LIG d   1      -5.069  74.578 114.248  0.00  0.00    -0.241 OA
ATOM     24  O   LIG d   1      -5.982  76.276 113.274  0.00  0.00    -0.241 OA
ENDBRANCH   3  22
TORSDOF 7
ENDMDL
MODEL 5
REMARK VINA RESULT:      -4.6      3.861      5.163
REMARK  7 active torsions:
REMARK  status: ('A' for Active; 'I' for Inactive)
REMARK    1  A    between atoms: C_2  and  C_3 
REMARK    2  A    between atoms: C_3  and  O_6 
REMARK    3  A    between atoms: C_3  and  C_4 
REMARK    4  A    between atoms: C_7  and  O_6 
REMARK    5  A    between atoms: C_9  and  C_10 
REMARK    6  A    between atoms: N_15  and  C_14 
REMARK    7  A    between atoms: N_20  and  C_19 
REMARK       I    between atoms: C_22  and  N_20 
ROOT
ATOM      1  C   LIG d   1      -6.515  77.794 117.624  0.00  0.00     0.161 C 
ATOM      2  C   LIG d   1      -7.326  78.936 117.516  0.00  0.00     0.016 C 
ATOM      3  C   LIG d   1      -6.817  80.255 117.507  0.00  0.00     0.038 C 
ATOM      4  C   LIG d   1      -5.440  80.518 117.451  0.00  0.00     0.028 C 
ATOM      5  C   LIG d   1      -4.588  79.413 118.067  0.00  0.00    -0.047 C 
ATOM      6  C   LIG d   1      -5.004  78.057 117.452  0.00  0.00     0.091 C 
ENDROOT
BRANCH   1   7
ATOM      7  O   LIG d   1      -6.958  76.790 116.689  0.00  0.00    -0.368 OA
BRANCH   7   8
ATOM      8  C   LIG d   1      -7.530  75.591 117.267  0.00  0.00     0.119 C 
BRANCH   8   9
ATOM      9  C   LIG d   1      -6.731  74.390 116.726  0.00  0.00     0.028 C 
ATOM     10  C   LIG d   1      -5.858  74.762 115.515  0.00  0.00     0.006 C 
ENDBRANCH   8   9
BRANCH   8  11
ATOM     11  C   LIG d   1      -8.968  75.372 116.785  0.00  0.00     0.028 C 
ATOM     12  C   LIG d   1      -9.841  74.650 117.823  0.00  0.00     0.006 C 
ENDBRANCH   8  11
ENDBRANCH   7   8
ENDBRANCH   1   7
BRANCH   6  13
ATOM     13  N   LIG d   1      -4.276  76.912 118.060  0.00  0.00    -0.311 N 
ATOM     14  C   LIG d   1      -3.173  76.382 117.535  0.00  0.00     0.210 C 
ATOM     15  C   LIG d   1      -2.594  75.195 118.311  0.00  0.00     0.109 C 
ATOM     16  O   LIG d   1      -2.602  76.803 116.518  0.00  0.00    -0.276 OA
ATOM     17  H   LIG d   1      -4.654  76.529 118.905  0.00  0.00     0.149 HD
ENDBRANCH   6  13
BRANCH   5  18
ATOM     18  N   LIG d   1      -3.174  79.751 117.818  0.00  0.00     0.381 N 
ATOM     19  H   LIG d   1      -3.073  80.134 116.899  0.00  0.00    -0.090 HD
ATOM     20  H   LIG d   1      -2.624  78.911 117.871  0.00  0.00    -0.090 HD
ATOM     21  H   LIG d   1      -2.856  80.408 118.496  0.00  0.00    -0.090 HD
ENDBRANCH   5  18
BRANCH   3  22
ATOM     22  C   LIG d   1      -7.690  81.329 117.593  0.00  0.00     0.382 C 
ATOM     23  O   LIG d   1      -8.272  81.578 118.676  0.00  0.00    -0.241 OA
ATOM     24  O   LIG d   1      -7.936  82.025 116.590  0.00  0.00    -0.241 OA
ENDBRANCH   3  22
TORSDOF 7
ENDMDL
MODEL 6
REMARK VINA RESULT:      -4.5      2.075      2.808
REMARK  7 active torsions:
REMARK  status: ('A' for Active; 'I' for Inactive)
REMARK    1  A    between atoms: C_2  and  C_3 
REMARK    2  A    between atoms: C_3  and  O_6 
REMARK    3  A    between atoms: C_3  and  C_4 
REMARK    4  A    between atoms: C_7  and  O_6 
REMARK    5  A    between atoms: C_9  and  C_10 
REMARK    6  A    between atoms: N_15  and  C_14 
REMARK    7  A    between atoms: N_20  and  C_19 
REMARK       I    between atoms: C_22  and  N_20 
ROOT
ATOM      1  C   LIG d   1      -2.853  77.917 116.165  0.00  0.00     0.161 C 
ATOM      2  C   LIG d   1      -3.118  78.700 115.029  0.00  0.00     0.016 C 
ATOM      3  C   LIG d   1      -2.342  78.647 113.849  0.00  0.00     0.038 C 
ATOM      4  C   LIG d   1      -1.333  77.689 113.668  0.00  0.00     0.028 C 
ATOM      5  C   LIG d   1      -0.703  77.219 114.974  0.00  0.00    -0.047 C 
ATOM      6  C   LIG d   1      -1.825  76.787 115.946  0.00  0.00     0.091 C 
ENDROOT
BRANCH   1   7
ATOM      7  O   LIG d   1      -4.085  77.379 116.685  0.00  0.00    -0.368 OA
BRANCH   7   8
ATOM      8  C   LIG d   1      -4.571  76.170 116.051  0.00  0.00     0.119 C 
BRANCH   8   9
ATOM      9  C   LIG d   1      -5.908  76.511 115.366  0.00  0.00     0.028 C 
ATOM     10  C   LIG d   1      -5.921  76.124 113.878  0.00  0.00     0.006 C 
ENDBRANCH   8   9
BRANCH   8  11
ATOM     11  C   LIG d   1      -4.909  75.094 117.088  0.00  0.00     0.028 C 
ATOM     12  C   LIG d   1      -6.062  74.180 116.644  0.00  0.00     0.006 C 
ENDBRANCH   8  11
ENDBRANCH   7   8
ENDBRANCH   1   7
BRANCH   6  13
ATOM     13  N   LIG d   1      -1.300  76.392 117.279  0.00  0.00    -0.311 N 
ATOM     14  C   LIG d   1      -0.967  75.142 117.594  0.00  0.00     0.210 C 
ATOM     15  C   LIG d   1      -0.465  74.949 119.029  0.00  0.00     0.109 C 
ATOM     16  O   LIG d   1      -1.008  74.180 116.812  0.00  0.00    -0.276 OA
ATOM     17  H   LIG d   1      -1.205  77.116 117.964  0.00  0.00     0.149 HD
ENDBRANCH   6  13
BRANCH   5  18
ATOM     18  N   LIG d   1       0.233  76.126 114.650  0.00  0.00     0.381 N 
ATOM     19  H   LIG d   1       0.275  75.999 113.658  0.00  0.00    -0.090 HD
ATOM     20  H   LIG d   1      -0.106  75.274 115.062  0.00  0.00    -0.090 HD
ATOM     21  H   LIG d   1       1.140  76.337 115.003  0.00  0.00    -0.090 HD
ENDBRANCH   5  18
BRANCH   3  22
ATOM     22  C   LIG d   1      -2.547  79.585 112.848  0.00  0.00     0.382 C 
ATOM     23  O   LIG d   1      -1.930  79.486 111.760  0.00  0.00    -0.241 OA
ATOM     24  O   LIG d   1      -3.308  80.553 113.036  0.00  0.00    -0.241 OA
ENDBRANCH   3  22
TORSDOF 7
ENDMDL
MODEL 7
REMARK VINA RESULT:      -4.4      2.617      5.258
REMARK  7 active torsions:
REMARK  status: ('A' for Active; 'I' for Inactive)
REMARK    1  A    between atoms: C_2  and  C_3 
REMARK    2  A    between atoms: C_3  and  O_6 
REMARK    3  A    between atoms: C_3  and  C_4 
REMARK    4  A    between atoms: C_7  and  O_6 
REMARK    5  A    between atoms: C_9  and  C_10 
REMARK    6  A    between atoms: N_15  and  C_14 
REMARK    7  A    between atoms: N_20  and  C_19 
REMARK       I    between atoms: C_22  and  N_20 
ROOT
ATOM      1  C   LIG d   1      -1.871  75.790 115.149  0.00  0.00     0.161 C 
ATOM      2  C   LIG d   1      -1.733  75.211 116.421  0.00  0.00     0.016 C 
ATOM      3  C   LIG d   1      -1.005  75.811 117.474  0.00  0.00     0.038 C 
ATOM      4  C   LIG d   1      -0.489  77.112 117.372  0.00  0.00     0.028 C 
ATOM      5  C   LIG d   1      -0.171  77.526 115.940  0.00  0.00    -0.047 C 
ATOM      6  C   LIG d   1      -1.409  77.259 115.053  0.00  0.00     0.091 C 
ENDROOT
BRANCH   1   7
ATOM      7  O   LIG d   1      -3.234  75.664 114.700  0.00  0.00    -0.368 OA
BRANCH   7   8
ATOM      8  C   LIG d   1      -4.242  75.584 115.737  0.00  0.00     0.119 C 
BRANCH   8   9
ATOM      9  C   LIG d   1      -5.322  74.593 115.259  0.00  0.00     0.028 C 
ATOM     10  C   LIG d   1      -6.280  74.180 116.389  0.00  0.00     0.006 C 
ENDBRANCH   8   9
BRANCH   8  11
ATOM     11  C   LIG d   1      -4.968  76.921 115.913  0.00  0.00     0.028 C 
ATOM     12  C   LIG d   1      -4.513  77.686 117.166  0.00  0.00     0.006 C 
ENDBRANCH   8  11
ENDBRANCH   7   8
ENDBRANCH   1   7
BRANCH   6  13
ATOM     13  N   LIG d   1      -1.155  77.559 113.620  0.00  0.00    -0.311 N 
ATOM     14  C   LIG d   1      -2.011  78.225 112.847  0.00  0.00     0.210 C 
ATOM     15  C   LIG d   1      -1.563  78.408 111.394  0.00  0.00     0.109 C 
ATOM     16  O   LIG d   1      -3.084  78.710 113.236  0.00  0.00    -0.276 OA
ATOM     17  H   LIG d   1      -0.293  77.229 113.231  0.00  0.00     0.149 HD
ENDBRANCH   6  13
BRANCH   5  18
ATOM     18  N   LIG d   1       0.227  78.946 115.965  0.00  0.00     0.381 N 
ATOM     19  H   LIG d   1       1.069  79.072 115.438  0.00  0.00    -0.090 HD
ATOM     20  H   LIG d   1       0.407  79.217 116.916  0.00  0.00    -0.090 HD
ATOM     21  H   LIG d   1      -0.499  79.511 115.583  0.00  0.00    -0.090 HD
ENDBRANCH   5  18
BRANCH   3  22
ATOM     22  C   LIG d   1      -0.753  75.092 118.633  0.00  0.00     0.382 C 
ATOM     23  O   LIG d   1      -1.593  75.089 119.564  0.00  0.00    -0.241 OA
ATOM     24  O   LIG d   1       0.323  74.481 118.776  0.00  0.00    -0.241 OA
ENDBRANCH   3  22
TORSDOF 7
ENDMDL
MODEL 8
REMARK VINA RESULT:      -4.3      2.949      5.337
REMARK  7 active torsions:
REMARK  status: ('A' for Active; 'I' for Inactive)
REMARK    1  A    between atoms: C_2  and  C_3 
REMARK    2  A    between atoms: C_3  and  O_6 
REMARK    3  A    between atoms: C_3  and  C_4 
REMARK    4  A    between atoms: C_7  and  O_6 
REMARK    5  A    between atoms: C_9  and  C_10 
REMARK    6  A    between atoms: N_15  and  C_14 
REMARK    7  A    between atoms: N_20  and  C_19 
REMARK       I    between atoms: C_22  and  N_20 
ROOT
ATOM      1  C   LIG d   1      -5.778  77.831 116.588  0.00  0.00     0.161 C 
ATOM      2  C   LIG d   1      -7.030  77.470 117.113  0.00  0.00     0.016 C 
ATOM      3  C   LIG d   1      -7.677  76.248 116.813  0.00  0.00     0.038 C 
ATOM      4  C   LIG d   1      -7.042  75.233 116.083  0.00  0.00     0.028 C 
ATOM      5  C   LIG d   1      -5.986  75.754 115.114  0.00  0.00    -0.047 C 
ATOM      6  C   LIG d   1      -5.021  76.689 115.878  0.00  0.00     0.091 C 
ENDROOT
BRANCH   1   7
ATOM      7  O   LIG d   1      -4.960  78.405 117.627  0.00  0.00    -0.368 OA
BRANCH   7   8
ATOM      8  C   LIG d   1      -4.630  79.808 117.476  0.00  0.00     0.119 C 
BRANCH   8   9
ATOM      9  C   LIG d   1      -3.219  80.016 118.059  0.00  0.00     0.028 C 
ATOM     10  C   LIG d   1      -2.330  78.771 117.905  0.00  0.00     0.006 C 
ENDBRANCH   8   9
BRANCH   8  11
ATOM     11  C   LIG d   1      -5.553  80.691 118.321  0.00  0.00     0.028 C 
ATOM     12  C   LIG d   1      -6.683  81.330 117.498  0.00  0.00     0.006 C 
ENDBRANCH   8  11
ENDBRANCH   7   8
ENDBRANCH   1   7
BRANCH   6  13
ATOM     13  N   LIG d   1      -4.007  77.309 114.986  0.00  0.00    -0.311 N 
ATOM     14  C   LIG d   1      -2.812  76.771 114.749  0.00  0.00     0.210 C 
ATOM     15  C   LIG d   1      -1.910  77.583 113.815  0.00  0.00     0.109 C 
ATOM     16  O   LIG d   1      -2.425  75.681 115.198  0.00  0.00    -0.276 OA
ATOM     17  H   LIG d   1      -4.249  78.180 114.555  0.00  0.00     0.149 HD
ENDBRANCH   6  13
BRANCH   5  18
ATOM     18  N   LIG d   1      -5.309  74.585 114.521  0.00  0.00     0.381 N 
ATOM     19  H   LIG d   1      -4.977  74.815 113.605  0.00  0.00    -0.090 HD
ATOM     20  H   LIG d   1      -5.972  73.835 114.437  0.00  0.00    -0.090 HD
ATOM     21  H   LIG d   1      -4.548  74.303 115.098  0.00  0.00    -0.090 HD
ENDBRANCH   5  18
BRANCH   3  22
ATOM     22  C   LIG d   1      -8.989  76.049 117.214  0.00  0.00     0.382 C 
ATOM     23  O   LIG d   1      -9.540  76.869 117.988  0.00  0.00    -0.241 OA
ATOM     24  O   LIG d   1      -9.615  75.037 116.845  0.00  0.00    -0.241 OA
ENDBRANCH   3  22
TORSDOF 7
ENDMDL
MODEL 9
REMARK VINA RESULT:      -4.1      3.341      6.334
REMARK  7 active torsions:
REMARK  status: ('A' for Active; 'I' for Inactive)
REMARK    1  A    between atoms: C_2  and  C_3 
REMARK    2  A    between atoms: C_3  and  O_6 
REMARK    3  A    between atoms: C_3  and  C_4 
REMARK    4  A    between atoms: C_7  and  O_6 
REMARK    5  A    between atoms: C_9  and  C_10 
REMARK    6  A    between atoms: N_15  and  C_14 
REMARK    7  A    between atoms: N_20  and  C_19 
REMARK       I    between atoms: C_22  and  N_20 
ROOT
ATOM      1  C   LIG d   1      -6.882  77.766 116.950  0.00  0.00     0.161 C 
ATOM      2  C   LIG d   1      -7.993  77.001 117.342  0.00  0.00     0.016 C 
ATOM      3  C   LIG d   1      -8.016  75.587 117.306  0.00  0.00     0.038 C 
ATOM      4  C   LIG d   1      -6.868  74.835 117.016  0.00  0.00     0.028 C 
ATOM      5  C   LIG d   1      -5.870  75.569 116.127  0.00  0.00    -0.047 C 
ATOM      6  C   LIG d   1      -5.584  76.960 116.737  0.00  0.00     0.091 C 
ENDROOT
BRANCH   1   7
ATOM      7  O   LIG d   1      -6.662  78.829 117.899  0.00  0.00    -0.368 OA
BRANCH   7   8
ATOM      8  C   LIG d   1      -7.351  80.075 117.632  0.00  0.00     0.119 C 
BRANCH   8   9
ATOM      9  C   LIG d   1      -6.300  81.201 117.660  0.00  0.00     0.028 C 
ATOM     10  C   LIG d   1      -6.808  82.461 118.380  0.00  0.00     0.006 C 
ENDBRANCH   8   9
BRANCH   8  11
ATOM     11  C   LIG d   1      -8.341  80.416 118.750  0.00  0.00     0.028 C 
ATOM     12  C   LIG d   1      -9.799  80.118 118.367  0.00  0.00     0.006 C 
ENDBRANCH   8  11
ENDBRANCH   7   8
ENDBRANCH   1   7
BRANCH   6  13
ATOM     13  N   LIG d   1      -4.682  77.778 115.885  0.00  0.00    -0.311 N 
ATOM     14  C   LIG d   1      -3.634  78.449 116.360  0.00  0.00     0.210 C 
ATOM     15  C   LIG d   1      -2.848  79.245 115.314  0.00  0.00     0.109 C 
ATOM     16  O   LIG d   1      -3.261  78.434 117.543  0.00  0.00    -0.276 OA
ATOM     17  H   LIG d   1      -4.892  77.821 114.907  0.00  0.00     0.149 HD
ENDBRANCH   6  13
BRANCH   5  18
ATOM     18  N   LIG d   1      -4.665  74.726 116.018  0.00  0.00     0.381 N 
ATOM     19  H   LIG d   1      -3.848  75.303 116.012  0.00  0.00    -0.090 HD
ATOM     20  H   LIG d   1      -4.700  74.219 115.151  0.00  0.00    -0.090 HD
ATOM     21  H   LIG d   1      -4.625  74.089 116.783  0.00  0.00    -0.090 HD
ENDBRANCH   5  18
BRANCH   3  22
ATOM     22  C   LIG d   1      -9.208  74.914 117.523  0.00  0.00     0.382 C 
ATOM     23  O   LIG d   1      -9.416  74.345 118.622  0.00  0.00    -0.241 OA
ATOM     24  O   LIG d   1     -10.060  74.829 116.618  0.00  0.00    -0.241 OA
ENDBRANCH   3  22
TORSDOF 7
ENDMDL
