MODEL 1
REMARK VINA RESULT:      -5.2      0.000      0.000
REMARK  7 active torsions:
REMARK  status: ('A' for Active; 'I' for Inactive)
REMARK    1  A    between atoms: C_2  and  C_3 
REMARK    2  A    between atoms: C_3  and  O_6 
REMARK    3  A    between atoms: C_3  and  C_4 
REMARK    4  A    between atoms: C_7  and  O_6 
REMARK    5  A    between atoms: C_9  and  C_10 
REMARK    6  A    between atoms: N_15  and  C_14 
REMARK    7  A    between atoms: N_20  and  C_19 
REMARK       I    between atoms: C_22  and  N_20 
ROOT
ATOM      1  C   LIG d   1      -2.605  80.510 115.033  0.00  0.00     0.161 C 
ATOM      2  C   LIG d   1      -2.221  81.675 114.347  0.00  0.00     0.016 C 
ATOM      3  C   LIG d   1      -1.592  81.660 113.081  0.00  0.00     0.038 C 
ATOM      4  C   LIG d   1      -1.440  80.477 112.342  0.00  0.00     0.028 C 
ATOM      5  C   LIG d   1      -1.355  79.227 113.212  0.00  0.00    -0.047 C 
ATOM      6  C   LIG d   1      -2.548  79.217 114.194  0.00  0.00     0.091 C 
ENDROOT
BRANCH   1   7
ATOM      7  O   LIG d   1      -3.921  80.686 115.594  0.00  0.00    -0.368 OA
BRANCH   7   8
ATOM      8  C   LIG d   1      -3.983  80.863 117.031  0.00  0.00     0.119 C 
BRANCH   8   9
ATOM      9  C   LIG d   1      -5.317  80.263 117.515  0.00  0.00     0.028 C 
ATOM     10  C   LIG d   1      -5.427  78.758 117.215  0.00  0.00     0.006 C 
ENDBRANCH   8   9
BRANCH   8  11
ATOM     11  C   LIG d   1      -4.046  82.346 117.407  0.00  0.00     0.028 C 
ATOM     12  C   LIG d   1      -2.800  82.820 118.173  0.00  0.00     0.006 C 
ENDBRANCH   8  11
ENDBRANCH   7   8
ENDBRANCH   1   7
BRANCH   6  13
ATOM     13  N   LIG d   1      -2.495  78.070 115.138  0.00  0.00    -0.311 N 
ATOM     14  C   LIG d   1      -3.096  76.904 114.910  0.00  0.00     0.210 C 
ATOM     15  C   LIG d   1      -2.933  75.863 116.022  0.00  0.00     0.109 C 
ATOM     16  O   LIG d   1      -3.722  76.621 113.877  0.00  0.00    -0.276 OA
ATOM     17  H   LIG d   1      -1.982  78.202 115.988  0.00  0.00     0.149 HD
ENDBRANCH   6  13
BRANCH   5  18
ATOM     18  N   LIG d   1      -1.337  78.058 112.311  0.00  0.00     0.381 N 
ATOM     19  H   LIG d   1      -0.393  77.772 112.146  0.00  0.00    -0.090 HD
ATOM     20  H   LIG d   1      -1.746  78.320 111.431  0.00  0.00    -0.090 HD
ATOM     21  H   LIG d   1      -1.854  77.308 112.716  0.00  0.00    -0.090 HD
ENDBRANCH   5  18
BRANCH   3  22
ATOM     22  C   LIG d   1      -1.071  82.834 112.559  0.00  0.00     0.382 C 
ATOM     23  O   LIG d   1      -1.464  83.252 111.443  0.00  0.00    -0.241 OA
ATOM     24  O   LIG d   1      -0.181  83.456 113.168  0.00  0.00    -0.241 OA
ENDBRANCH   3  22
TORSDOF 7
ENDMDL
MODEL 2
REMARK VINA RESULT:      -5.0      0.797      1.777
REMARK  7 active torsions:
REMARK  status: ('A' for Active; 'I' for Inactive)
REMARK    1  A    between atoms: C_2  and  C_3 
REMARK    2  A    between atoms: C_3  and  O_6 
REMARK    3  A    between atoms: C_3  and  C_4 
REMARK    4  A    between atoms: C_7  and  O_6 
REMARK    5  A    between atoms: C_9  and  C_10 
REMARK    6  A    between atoms: N_15  and  C_14 
REMARK    7  A    between atoms: N_20  and  C_19 
REMARK       I    between atoms: C_22  and  N_20 
ROOT
ATOM      1  C   LIG d   1      -2.510  80.478 114.760  0.00  0.00     0.161 C 
ATOM      2  C   LIG d   1      -2.094  81.676 114.155  0.00  0.00     0.016 C 
ATOM      3  C   LIG d   1      -1.511  81.735 112.868  0.00  0.00     0.038 C 
ATOM      4  C   LIG d   1      -1.442  80.611 112.032  0.00  0.00     0.028 C 
ATOM      5  C   LIG d   1      -1.387  79.292 112.795  0.00  0.00    -0.047 C 
ATOM      6  C   LIG d   1      -2.545  79.256 113.819  0.00  0.00     0.091 C 
ENDROOT
BRANCH   1   7
ATOM      7  O   LIG d   1      -3.796  80.667 115.384  0.00  0.00    -0.368 OA
BRANCH   7   8
ATOM      8  C   LIG d   1      -3.791  80.798 116.827  0.00  0.00     0.119 C 
BRANCH   8   9
ATOM      9  C   LIG d   1      -3.871  82.302 117.155  0.00  0.00     0.028 C 
ATOM     10  C   LIG d   1      -2.811  82.736 118.182  0.00  0.00     0.006 C 
ENDBRANCH   8   9
BRANCH   8  11
ATOM     11  C   LIG d   1      -2.463  80.323 117.425  0.00  0.00     0.028 C 
ATOM     12  C   LIG d   1      -2.590  78.982 118.165  0.00  0.00     0.006 C 
ENDBRANCH   8  11
ENDBRANCH   7   8
ENDBRANCH   1   7
BRANCH   6  13
ATOM     13  N   LIG d   1      -2.515  78.035 114.666  0.00  0.00    -0.311 N 
ATOM     14  C   LIG d   1      -3.416  77.059 114.577  0.00  0.00     0.210 C 
ATOM     15  C   LIG d   1      -3.212  75.899 115.557  0.00  0.00     0.109 C 
ATOM     16  O   LIG d   1      -4.347  77.028 113.759  0.00  0.00    -0.276 OA
ATOM     17  H   LIG d   1      -1.774  77.963 115.336  0.00  0.00     0.149 HD
ENDBRANCH   6  13
BRANCH   5  18
ATOM     18  N   LIG d   1      -1.458  78.201 111.804  0.00  0.00     0.381 N 
ATOM     19  H   LIG d   1      -1.467  77.317 112.274  0.00  0.00    -0.090 HD
ATOM     20  H   LIG d   1      -0.641  78.239 111.220  0.00  0.00    -0.090 HD
ATOM     21  H   LIG d   1      -2.278  78.298 111.248  0.00  0.00    -0.090 HD
ENDBRANCH   5  18
BRANCH   3  22
ATOM     22  C   LIG d   1      -0.952  82.923 112.421  0.00  0.00     0.382 C 
ATOM     23  O   LIG d   1      -0.051  83.483 113.090  0.00  0.00    -0.241 OA
ATOM     24  O   LIG d   1      -1.370  83.466 111.381  0.00  0.00    -0.241 OA
ENDBRANCH   3  22
TORSDOF 7
ENDMDL
MODEL 3
REMARK VINA RESULT:      -5.0      2.276      4.947
REMARK  7 active torsions:
REMARK  status: ('A' for Active; 'I' for Inactive)
REMARK    1  A    between atoms: C_2  and  C_3 
REMARK    2  A    between atoms: C_3  and  O_6 
REMARK    3  A    between atoms: C_3  and  C_4 
REMARK    4  A    between atoms: C_7  and  O_6 
REMARK    5  A    between atoms: C_9  and  C_10 
REMARK    6  A    between atoms: N_15  and  C_14 
REMARK    7  A    between atoms: N_20  and  C_19 
REMARK       I    between atoms: C_22  and  N_20 
ROOT
ATOM      1  C   LIG d   1      -1.265  80.292 114.247  0.00  0.00     0.161 C 
ATOM      2  C   LIG d   1      -2.033  79.156 114.553  0.00  0.00     0.016 C 
ATOM      3  C   LIG d   1      -2.369  78.165 113.602  0.00  0.00     0.038 C 
ATOM      4  C   LIG d   1      -1.829  78.166 112.308  0.00  0.00     0.028 C 
ATOM      5  C   LIG d   1      -1.458  79.558 111.807  0.00  0.00    -0.047 C 
ATOM      6  C   LIG d   1      -0.574  80.253 112.868  0.00  0.00     0.091 C 
ENDROOT
BRANCH   1   7
ATOM      7  O   LIG d   1      -0.294  80.520 115.287  0.00  0.00    -0.368 OA
BRANCH   7   8
ATOM      8  C   LIG d   1      -0.551  81.644 116.164  0.00  0.00     0.119 C 
BRANCH   8   9
ATOM      9  C   LIG d   1      -2.007  82.091 115.929  0.00  0.00     0.028 C 
ATOM     10  C   LIG d   1      -2.847  82.054 117.217  0.00  0.00     0.006 C 
ENDBRANCH   8   9
BRANCH   8  11
ATOM     11  C   LIG d   1       0.310  82.853 115.787  0.00  0.00     0.028 C 
ATOM     12  C   LIG d   1       0.440  83.872 116.930  0.00  0.00     0.006 C 
ENDBRANCH   8  11
ENDBRANCH   7   8
ENDBRANCH   1   7
BRANCH   6  13
ATOM     13  N   LIG d   1      -0.236  81.652 112.495  0.00  0.00    -0.311 N 
ATOM     14  C   LIG d   1      -1.151  82.598 112.291  0.00  0.00     0.210 C 
ATOM     15  C   LIG d   1      -0.588  83.966 111.895  0.00  0.00     0.109 C 
ATOM     16  O   LIG d   1      -2.373  82.442 112.431  0.00  0.00    -0.276 OA
ATOM     17  H   LIG d   1       0.735  81.874 112.390  0.00  0.00     0.149 HD
ENDBRANCH   6  13
BRANCH   5  18
ATOM     18  N   LIG d   1      -0.782  79.398 110.506  0.00  0.00     0.381 N 
ATOM     19  H   LIG d   1      -1.017  80.162 109.905  0.00  0.00    -0.090 HD
ATOM     20  H   LIG d   1      -1.102  78.548 110.075  0.00  0.00    -0.090 HD
ATOM     21  H   LIG d   1       0.205  79.361 110.637  0.00  0.00    -0.090 HD
ENDBRANCH   5  18
BRANCH   3  22
ATOM     22  C   LIG d   1      -3.287  77.179 113.932  0.00  0.00     0.382 C 
ATOM     23  O   LIG d   1      -2.959  76.253 114.712  0.00  0.00    -0.241 OA
ATOM     24  O   LIG d   1      -4.424  77.180 113.425  0.00  0.00    -0.241 OA
ENDBRANCH   3  22
TORSDOF 7
ENDMDL
MODEL 4
REMARK VINA RESULT:      -4.8      1.976      4.975
REMARK  7 active torsions:
REMARK  status: ('A' for Active; 'I' for Inactive)
REMARK    1  A    between atoms: C_2  and  C_3 
REMARK    2  A    between atoms: C_3  and  O_6 
REMARK    3  A    between atoms: C_3  and  C_4 
REMARK    4  A    between atoms: C_7  and  O_6 
REMARK    5  A    between atoms: C_9  and  C_10 
REMARK    6  A    between atoms: N_15  and  C_14 
REMARK    7  A    between atoms: N_20  and  C_19 
REMARK       I    between atoms: C_22  and  N_20 
ROOT
ATOM      1  C   LIG d   1      -2.409  80.364 114.368  0.00  0.00     0.161 C 
ATOM      2  C   LIG d   1      -2.905  79.104 114.745  0.00  0.00     0.016 C 
ATOM      3  C   LIG d   1      -2.900  77.978 113.891  0.00  0.00     0.038 C 
ATOM      4  C   LIG d   1      -2.256  77.996 112.644  0.00  0.00     0.028 C 
ATOM      5  C   LIG d   1      -2.188  79.385 112.018  0.00  0.00    -0.047 C 
ATOM      6  C   LIG d   1      -1.603  80.374 113.052  0.00  0.00     0.091 C 
ENDROOT
BRANCH   1   7
ATOM      7  O   LIG d   1      -1.625  80.922 115.440  0.00  0.00    -0.368 OA
BRANCH   7   8
ATOM      8  C   LIG d   1      -2.207  82.052 116.135  0.00  0.00     0.119 C 
BRANCH   8   9
ATOM      9  C   LIG d   1      -1.401  82.264 117.431  0.00  0.00     0.028 C 
ATOM     10  C   LIG d   1      -0.555  83.548 117.391  0.00  0.00     0.006 C 
ENDBRANCH   8   9
BRANCH   8  11
ATOM     11  C   LIG d   1      -3.637  81.748 116.593  0.00  0.00     0.028 C 
ATOM     12  C   LIG d   1      -4.076  82.610 117.787  0.00  0.00     0.006 C 
ENDBRANCH   8  11
ENDBRANCH   7   8
ENDBRANCH   1   7
BRANCH   6  13
ATOM     13  N   LIG d   1      -1.580  81.772 112.549  0.00  0.00    -0.311 N 
ATOM     14  C   LIG d   1      -0.568  82.283 111.850  0.00  0.00     0.210 C 
ATOM     15  C   LIG d   1      -0.738  83.751 111.446  0.00  0.00     0.109 C 
ATOM     16  O   LIG d   1       0.439  81.651 111.499  0.00  0.00    -0.276 OA
ATOM     17  H   LIG d   1      -2.372  82.347 112.763  0.00  0.00     0.149 HD
ENDBRANCH   6  13
BRANCH   5  18
ATOM     18  N   LIG d   1      -1.374  79.282 110.792  0.00  0.00     0.381 N 
ATOM     19  H   LIG d   1      -1.123  78.326 110.631  0.00  0.00    -0.090 HD
ATOM     20  H   LIG d   1      -0.530  79.812 110.917  0.00  0.00    -0.090 HD
ATOM     21  H   LIG d   1      -1.884  79.635 110.013  0.00  0.00    -0.090 HD
ENDBRANCH   5  18
BRANCH   3  22
ATOM     22  C   LIG d   1      -3.578  76.828 114.265  0.00  0.00     0.382 C 
ATOM     23  O   LIG d   1      -4.766  76.655 113.901  0.00  0.00    -0.241 OA
ATOM     24  O   LIG d   1      -3.032  75.983 114.999  0.00  0.00    -0.241 OA
ENDBRANCH   3  22
TORSDOF 7
ENDMDL
MODEL 5
REMARK VINA RESULT:      -4.7      0.993      1.945
REMARK  7 active torsions:
REMARK  status: ('A' for Active; 'I' for Inactive)
REMARK    1  A    between atoms: C_2  and  C_3 
REMARK    2  A    between atoms: C_3  and  O_6 
REMARK    3  A    between atoms: C_3  and  C_4 
REMARK    4  A    between atoms: C_7  and  O_6 
REMARK    5  A    between atoms: C_9  and  C_10 
REMARK    6  A    between atoms: N_15  and  C_14 
REMARK    7  A    between atoms: N_20  and  C_19 
REMARK       I    between atoms: C_22  and  N_20 
ROOT
ATOM      1  C   LIG d   1      -2.946  79.849 115.424  0.00  0.00     0.161 C 
ATOM      2  C   LIG d   1      -2.593  81.047 114.781  0.00  0.00     0.016 C 
ATOM      3  C   LIG d   1      -1.907  81.094 113.545  0.00  0.00     0.038 C 
ATOM      4  C   LIG d   1      -1.661  79.938 112.790  0.00  0.00     0.028 C 
ATOM      5  C   LIG d   1      -1.551  78.674 113.635  0.00  0.00    -0.047 C 
ATOM      6  C   LIG d   1      -2.785  78.580 114.561  0.00  0.00     0.091 C 
ENDROOT
BRANCH   1   7
ATOM      7  O   LIG d   1      -4.293  79.945 115.928  0.00  0.00    -0.368 OA
BRANCH   7   8
ATOM      8  C   LIG d   1      -4.438  80.485 117.264  0.00  0.00     0.119 C 
BRANCH   8   9
ATOM      9  C   LIG d   1      -3.445  79.738 118.175  0.00  0.00     0.028 C 
ATOM     10  C   LIG d   1      -2.681  80.687 119.114  0.00  0.00     0.006 C 
ENDBRANCH   8   9
BRANCH   8  11
ATOM     11  C   LIG d   1      -5.824  80.183 117.841  0.00  0.00     0.028 C 
ATOM     12  C   LIG d   1      -6.342  78.790 117.449  0.00  0.00     0.006 C 
ENDBRANCH   8  11
ENDBRANCH   7   8
ENDBRANCH   1   7
BRANCH   6  13
ATOM     13  N   LIG d   1      -2.715  77.416 115.483  0.00  0.00    -0.311 N 
ATOM     14  C   LIG d   1      -3.374  76.277 115.276  0.00  0.00     0.210 C 
ATOM     15  C   LIG d   1      -3.179  75.212 116.360  0.00  0.00     0.109 C 
ATOM     16  O   LIG d   1      -4.077  76.037 114.283  0.00  0.00    -0.276 OA
ATOM     17  H   LIG d   1      -2.143  77.514 116.299  0.00  0.00     0.149 HD
ENDBRANCH   6  13
BRANCH   5  18
ATOM     18  N   LIG d   1      -1.432  77.529 112.713  0.00  0.00     0.381 N 
ATOM     19  H   LIG d   1      -2.188  77.543 112.058  0.00  0.00    -0.090 HD
ATOM     20  H   LIG d   1      -1.489  76.677 113.242  0.00  0.00    -0.090 HD
ATOM     21  H   LIG d   1      -0.562  77.571 112.228  0.00  0.00    -0.090 HD
ENDBRANCH   5  18
BRANCH   3  22
ATOM     22  C   LIG d   1      -1.425  82.305 113.072  0.00  0.00     0.382 C 
ATOM     23  O   LIG d   1      -0.592  82.956 113.749  0.00  0.00    -0.241 OA
ATOM     24  O   LIG d   1      -1.845  82.777 111.999  0.00  0.00    -0.241 OA
ENDBRANCH   3  22
TORSDOF 7
ENDMDL
MODEL 6
REMARK VINA RESULT:      -4.5      3.065      5.999
REMARK  7 active torsions:
REMARK  status: ('A' for Active; 'I' for Inactive)
REMARK    1  A    between atoms: C_2  and  C_3 
REMARK    2  A    between atoms: C_3  and  O_6 
REMARK    3  A    between atoms: C_3  and  C_4 
REMARK    4  A    between atoms: C_7  and  O_6 
REMARK    5  A    between atoms: C_9  and  C_10 
REMARK    6  A    between atoms: N_15  and  C_14 
REMARK    7  A    between atoms: N_20  and  C_19 
REMARK       I    between atoms: C_22  and  N_20 
ROOT
ATOM      1  C   LIG d   1      -4.193  79.391 116.634  0.00  0.00     0.161 C 
ATOM      2  C   LIG d   1      -3.805  78.270 115.882  0.00  0.00     0.016 C 
ATOM      3  C   LIG d   1      -4.566  77.081 115.807  0.00  0.00     0.038 C 
ATOM      4  C   LIG d   1      -5.851  76.987 116.361  0.00  0.00     0.028 C 
ATOM      5  C   LIG d   1      -6.066  77.914 117.553  0.00  0.00    -0.047 C 
ATOM      6  C   LIG d   1      -5.645  79.348 117.156  0.00  0.00     0.091 C 
ENDROOT
BRANCH   1   7
ATOM      7  O   LIG d   1      -3.971  80.593 115.871  0.00  0.00    -0.368 OA
BRANCH   7   8
ATOM      8  C   LIG d   1      -2.721  81.283 116.119  0.00  0.00     0.119 C 
BRANCH   8   9
ATOM      9  C   LIG d   1      -2.977  82.318 117.232  0.00  0.00     0.028 C 
ATOM     10  C   LIG d   1      -1.673  82.892 117.811  0.00  0.00     0.006 C 
ENDBRANCH   8   9
BRANCH   8  11
ATOM     11  C   LIG d   1      -2.284  82.099 114.899  0.00  0.00     0.028 C 
ATOM     12  C   LIG d   1      -2.741  81.476 113.570  0.00  0.00     0.006 C 
ENDBRANCH   8  11
ENDBRANCH   7   8
ENDBRANCH   1   7
BRANCH   6  13
ATOM     13  N   LIG d   1      -5.744  80.302 118.290  0.00  0.00    -0.311 N 
ATOM     14  C   LIG d   1      -6.487  81.407 118.256  0.00  0.00     0.210 C 
ATOM     15  C   LIG d   1      -6.432  82.263 119.526  0.00  0.00     0.109 C 
ATOM     16  O   LIG d   1      -7.212  81.743 117.308  0.00  0.00    -0.276 OA
ATOM     17  H   LIG d   1      -5.213  80.091 119.112  0.00  0.00     0.149 HD
ENDBRANCH   6  13
BRANCH   5  18
ATOM     18  N   LIG d   1      -7.485  77.816 117.944  0.00  0.00     0.381 N 
ATOM     19  H   LIG d   1      -8.002  78.568 117.535  0.00  0.00    -0.090 HD
ATOM     20  H   LIG d   1      -7.552  77.894 118.944  0.00  0.00    -0.090 HD
ATOM     21  H   LIG d   1      -7.861  76.943 117.646  0.00  0.00    -0.090 HD
ENDBRANCH   5  18
BRANCH   3  22
ATOM     22  C   LIG d   1      -4.025  75.955 115.204  0.00  0.00     0.382 C 
ATOM     23  O   LIG d   1      -4.736  75.242 114.456  0.00  0.00    -0.241 OA
ATOM     24  O   LIG d   1      -2.848  75.619 115.435  0.00  0.00    -0.241 OA
ENDBRANCH   3  22
TORSDOF 7
ENDMDL
MODEL 7
REMARK VINA RESULT:      -4.4      2.399      5.934
REMARK  7 active torsions:
REMARK  status: ('A' for Active; 'I' for Inactive)
REMARK    1  A    between atoms: C_2  and  C_3 
REMARK    2  A    between atoms: C_3  and  O_6 
REMARK    3  A    between atoms: C_3  and  C_4 
REMARK    4  A    between atoms: C_7  and  O_6 
REMARK    5  A    between atoms: C_9  and  C_10 
REMARK    6  A    between atoms: N_15  and  C_14 
REMARK    7  A    between atoms: N_20  and  C_19 
REMARK       I    between atoms: C_22  and  N_20 
ROOT
ATOM      1  C   LIG d   1      -2.492  78.922 115.847  0.00  0.00     0.161 C 
ATOM      2  C   LIG d   1      -2.744  77.635 115.345  0.00  0.00     0.016 C 
ATOM      3  C   LIG d   1      -3.963  76.946 115.545  0.00  0.00     0.038 C 
ATOM      4  C   LIG d   1      -5.075  77.564 116.135  0.00  0.00     0.028 C 
ATOM      5  C   LIG d   1      -4.703  78.682 117.104  0.00  0.00    -0.047 C 
ATOM      6  C   LIG d   1      -3.732  79.656 116.398  0.00  0.00     0.091 C 
ENDROOT
BRANCH   1   7
ATOM      7  O   LIG d   1      -1.844  79.722 114.838  0.00  0.00    -0.368 OA
BRANCH   7   8
ATOM      8  C   LIG d   1      -2.696  80.223 113.778  0.00  0.00     0.119 C 
BRANCH   8   9
ATOM      9  C   LIG d   1      -2.095  79.751 112.439  0.00  0.00     0.028 C 
ATOM     10  C   LIG d   1      -2.855  78.553 111.845  0.00  0.00     0.006 C 
ENDBRANCH   8   9
BRANCH   8  11
ATOM     11  C   LIG d   1      -2.669  81.753 113.717  0.00  0.00     0.028 C 
ATOM     12  C   LIG d   1      -1.562  82.293 112.797  0.00  0.00     0.006 C 
ENDBRANCH   8  11
ENDBRANCH   7   8
ENDBRANCH   1   7
BRANCH   6  13
ATOM     13  N   LIG d   1      -3.253  80.733 117.302  0.00  0.00    -0.311 N 
ATOM     14  C   LIG d   1      -3.809  81.942 117.362  0.00  0.00     0.210 C 
ATOM     15  C   LIG d   1      -3.148  82.910 118.347  0.00  0.00     0.109 C 
ATOM     16  O   LIG d   1      -4.807  82.294 116.715  0.00  0.00    -0.276 OA
ATOM     17  H   LIG d   1      -2.467  80.523 117.885  0.00  0.00     0.149 HD
ENDBRANCH   6  13
BRANCH   5  18
ATOM     18  N   LIG d   1      -5.956  79.329 117.540  0.00  0.00     0.381 N 
ATOM     19  H   LIG d   1      -6.094  79.174 118.518  0.00  0.00    -0.090 HD
ATOM     20  H   LIG d   1      -6.725  78.915 117.043  0.00  0.00    -0.090 HD
ATOM     21  H   LIG d   1      -5.918  80.306 117.353  0.00  0.00    -0.090 HD
ENDBRANCH   5  18
BRANCH   3  22
ATOM     22  C   LIG d   1      -4.064  75.611 115.186  0.00  0.00     0.382 C 
ATOM     23  O   LIG d   1      -3.231  74.780 115.621  0.00  0.00    -0.241 OA
ATOM     24  O   LIG d   1      -4.952  75.234 114.399  0.00  0.00    -0.241 OA
ENDBRANCH   3  22
TORSDOF 7
ENDMDL
MODEL 8
REMARK VINA RESULT:      -4.4      1.870      2.625
REMARK  7 active torsions:
REMARK  status: ('A' for Active; 'I' for Inactive)
REMARK    1  A    between atoms: C_2  and  C_3 
REMARK    2  A    between atoms: C_3  and  O_6 
REMARK    3  A    between atoms: C_3  and  C_4 
REMARK    4  A    between atoms: C_7  and  O_6 
REMARK    5  A    between atoms: C_9  and  C_10 
REMARK    6  A    between atoms: N_15  and  C_14 
REMARK    7  A    between atoms: N_20  and  C_19 
REMARK       I    between atoms: C_22  and  N_20 
ROOT
ATOM      1  C   LIG d   1      -3.564  78.812 116.144  0.00  0.00     0.161 C 
ATOM      2  C   LIG d   1      -3.433  80.149 115.733  0.00  0.00     0.016 C 
ATOM      3  C   LIG d   1      -2.681  80.546 114.603  0.00  0.00     0.038 C 
ATOM      4  C   LIG d   1      -2.128  79.611 113.715  0.00  0.00     0.028 C 
ATOM      5  C   LIG d   1      -1.809  78.271 114.368  0.00  0.00    -0.047 C 
ATOM      6  C   LIG d   1      -3.060  77.770 115.124  0.00  0.00     0.091 C 
ENDROOT
BRANCH   1   7
ATOM      7  O   LIG d   1      -4.934  78.543 116.501  0.00  0.00    -0.368 OA
BRANCH   7   8
ATOM      8  C   LIG d   1      -5.164  78.108 117.864  0.00  0.00     0.119 C 
BRANCH   8   9
ATOM      9  C   LIG d   1      -5.886  76.748 117.801  0.00  0.00     0.028 C 
ATOM     10  C   LIG d   1      -6.880  76.665 116.631  0.00  0.00     0.006 C 
ENDBRANCH   8   9
BRANCH   8  11
ATOM     11  C   LIG d   1      -6.130  79.047 118.593  0.00  0.00     0.028 C 
ATOM     12  C   LIG d   1      -6.430  80.328 117.797  0.00  0.00     0.006 C 
ENDBRANCH   8  11
ENDBRANCH   7   8
ENDBRANCH   1   7
BRANCH   6  13
ATOM     13  N   LIG d   1      -2.808  76.504 115.862  0.00  0.00    -0.311 N 
ATOM     14  C   LIG d   1      -3.450  75.366 115.605  0.00  0.00     0.210 C 
ATOM     15  C   LIG d   1      -3.053  74.185 116.496  0.00  0.00     0.109 C 
ATOM     16  O   LIG d   1      -4.287  75.214 114.703  0.00  0.00    -0.276 OA
ATOM     17  H   LIG d   1      -2.121  76.530 116.590  0.00  0.00     0.149 HD
ENDBRANCH   6  13
BRANCH   5  18
ATOM     18  N   LIG d   1      -1.369  77.350 113.303  0.00  0.00     0.381 N 
ATOM     19  H   LIG d   1      -1.942  77.472 112.492  0.00  0.00    -0.090 HD
ATOM     20  H   LIG d   1      -1.478  76.404 113.625  0.00  0.00    -0.090 HD
ATOM     21  H   LIG d   1      -0.415  77.523 113.074  0.00  0.00    -0.090 HD
ENDBRANCH   5  18
BRANCH   3  22
ATOM     22  C   LIG d   1      -2.441  81.892 114.375  0.00  0.00     0.382 C 
ATOM     23  O   LIG d   1      -1.290  82.361 114.542  0.00  0.00    -0.241 OA
ATOM     24  O   LIG d   1      -3.372  82.653 114.049  0.00  0.00    -0.241 OA
ENDBRANCH   3  22
TORSDOF 7
ENDMDL
MODEL 9
REMARK VINA RESULT:      -4.4      2.543      5.259
REMARK  7 active torsions:
REMARK  status: ('A' for Active; 'I' for Inactive)
REMARK    1  A    between atoms: C_2  and  C_3 
REMARK    2  A    between atoms: C_3  and  O_6 
REMARK    3  A    between atoms: C_3  and  C_4 
REMARK    4  A    between atoms: C_7  and  O_6 
REMARK    5  A    between atoms: C_9  and  C_10 
REMARK    6  A    between atoms: N_15  and  C_14 
REMARK    7  A    between atoms: N_20  and  C_19 
REMARK       I    between atoms: C_22  and  N_20 
ROOT
ATOM      1  C   LIG d   1      -1.725  79.984 114.579  0.00  0.00     0.161 C 
ATOM      2  C   LIG d   1      -2.548  78.878 114.850  0.00  0.00     0.016 C 
ATOM      3  C   LIG d   1      -2.852  77.882 113.894  0.00  0.00     0.038 C 
ATOM      4  C   LIG d   1      -2.229  77.844 112.638  0.00  0.00     0.028 C 
ATOM      5  C   LIG d   1      -1.781  79.215 112.143  0.00  0.00    -0.047 C 
ATOM      6  C   LIG d   1      -0.947  79.900 113.249  0.00  0.00     0.091 C 
ENDROOT
BRANCH   1   7
ATOM      7  O   LIG d   1      -0.817  80.199 115.678  0.00  0.00    -0.368 OA
BRANCH   7   8
ATOM      8  C   LIG d   1      -0.856  79.212 116.738  0.00  0.00     0.119 C 
BRANCH   8   9
ATOM      9  C   LIG d   1      -0.910  79.973 118.077  0.00  0.00     0.028 C 
ATOM     10  C   LIG d   1       0.440  80.615 118.442  0.00  0.00     0.006 C 
ENDBRANCH   8   9
BRANCH   8  11
ATOM     11  C   LIG d   1       0.440  78.396 116.788  0.00  0.00     0.028 C 
ATOM     12  C   LIG d   1       0.189  76.880 116.814  0.00  0.00     0.006 C 
ENDBRANCH   8  11
ENDBRANCH   7   8
ENDBRANCH   1   7
BRANCH   6  13
ATOM     13  N   LIG d   1      -0.539  81.281 112.879  0.00  0.00    -0.311 N 
ATOM     14  C   LIG d   1      -1.406  82.238 112.552  0.00  0.00     0.210 C 
ATOM     15  C   LIG d   1      -0.774  83.584 112.184  0.00  0.00     0.109 C 
ATOM     16  O   LIG d   1      -2.639  82.109 112.562  0.00  0.00    -0.276 OA
ATOM     17  H   LIG d   1       0.442  81.481 112.875  0.00  0.00     0.149 HD
ENDBRANCH   6  13
BRANCH   5  18
ATOM     18  N   LIG d   1      -1.026  79.012 110.892  0.00  0.00     0.381 N 
ATOM     19  H   LIG d   1      -0.110  79.404 110.982  0.00  0.00    -0.090 HD
ATOM     20  H   LIG d   1      -1.501  79.488 110.145  0.00  0.00    -0.090 HD
ATOM     21  H   LIG d   1      -0.961  78.039 110.687  0.00  0.00    -0.090 HD
ENDBRANCH   5  18
BRANCH   3  22
ATOM     22  C   LIG d   1      -3.822  76.931 114.177  0.00  0.00     0.382 C 
ATOM     23  O   LIG d   1      -3.565  75.989 114.965  0.00  0.00    -0.241 OA
ATOM     24  O   LIG d   1      -4.935  76.979 113.620  0.00  0.00    -0.241 OA
ENDBRANCH   3  22
TORSDOF 7
ENDMDL
