MODEL 1
REMARK VINA RESULT:      -5.2      0.000      0.000
REMARK  7 active torsions:
REMARK  status: ('A' for Active; 'I' for Inactive)
REMARK    1  A    between atoms: C_2  and  C_3 
REMARK    2  A    between atoms: C_3  and  O_6 
REMARK    3  A    between atoms: C_3  and  C_4 
REMARK    4  A    between atoms: C_7  and  O_6 
REMARK    5  A    between atoms: C_9  and  C_10 
REMARK    6  A    between atoms: N_15  and  C_14 
REMARK    7  A    between atoms: N_20  and  C_19 
REMARK       I    between atoms: C_22  and  N_20 
ROOT
ATOM      1  C   LIG d   1      -1.502  75.635 115.167  0.00  0.00     0.161 C 
ATOM      2  C   LIG d   1      -1.156  75.261 116.477  0.00  0.00     0.016 C 
ATOM      3  C   LIG d   1      -0.585  76.152 117.415  0.00  0.00     0.038 C 
ATOM      4  C   LIG d   1      -0.459  77.524 117.153  0.00  0.00     0.028 C 
ATOM      5  C   LIG d   1      -0.328  77.848 115.669  0.00  0.00    -0.047 C 
ATOM      6  C   LIG d   1      -1.475  77.154 114.900  0.00  0.00     0.091 C 
ENDROOT
BRANCH   1   7
ATOM      7  O   LIG d   1      -2.792  75.089 114.828  0.00  0.00    -0.368 OA
BRANCH   7   8
ATOM      8  C   LIG d   1      -3.924  75.979 114.992  0.00  0.00     0.119 C 
BRANCH   8   9
ATOM      9  C   LIG d   1      -4.620  75.603 116.315  0.00  0.00     0.028 C 
ATOM     10  C   LIG d   1      -4.437  76.678 117.400  0.00  0.00     0.006 C 
ENDBRANCH   8   9
BRANCH   8  11
ATOM     11  C   LIG d   1      -4.975  75.751 113.902  0.00  0.00     0.028 C 
ATOM     12  C   LIG d   1      -6.414  75.823 114.437  0.00  0.00     0.006 C 
ENDBRANCH   8  11
ENDBRANCH   7   8
ENDBRANCH   1   7
BRANCH   6  13
ATOM     13  N   LIG d   1      -1.373  77.350 113.430  0.00  0.00    -0.311 N 
ATOM     14  C   LIG d   1      -2.055  78.281 112.766  0.00  0.00     0.210 C 
ATOM     15  C   LIG d   1      -1.818  78.300 111.252  0.00  0.00     0.109 C 
ATOM     16  O   LIG d   1      -2.810  79.114 113.290  0.00  0.00    -0.276 OA
ATOM     17  H   LIG d   1      -0.759  76.738 112.930  0.00  0.00     0.149 HD
ENDBRANCH   6  13
BRANCH   5  18
ATOM     18  N   LIG d   1      -0.344  79.317 115.530  0.00  0.00     0.381 N 
ATOM     19  H   LIG d   1      -0.527  79.565 114.578  0.00  0.00    -0.090 HD
ATOM     20  H   LIG d   1       0.560  79.677 115.782  0.00  0.00    -0.090 HD
ATOM     21  H   LIG d   1      -1.042  79.708 116.123  0.00  0.00    -0.090 HD
ENDBRANCH   5  18
BRANCH   3  22
ATOM     22  C   LIG d   1      -0.095  75.663 118.617  0.00  0.00     0.382 C 
ATOM     23  O   LIG d   1       0.165  76.453 119.555  0.00  0.00    -0.241 OA
ATOM     24  O   LIG d   1       0.131  74.446 118.758  0.00  0.00    -0.241 OA
ENDBRANCH   3  22
TORSDOF 7
ENDMDL
MODEL 2
REMARK VINA RESULT:      -5.1      1.989      4.918
REMARK  7 active torsions:
REMARK  status: ('A' for Active; 'I' for Inactive)
REMARK    1  A    between atoms: C_2  and  C_3 
REMARK    2  A    between atoms: C_3  and  O_6 
REMARK    3  A    between atoms: C_3  and  C_4 
REMARK    4  A    between atoms: C_7  and  O_6 
REMARK    5  A    between atoms: C_9  and  C_10 
REMARK    6  A    between atoms: N_15  and  C_14 
REMARK    7  A    between atoms: N_20  and  C_19 
REMARK       I    between atoms: C_22  and  N_20 
ROOT
ATOM      1  C   LIG d   1      -2.650  77.849 116.323  0.00  0.00     0.161 C 
ATOM      2  C   LIG d   1      -2.974  78.603 115.183  0.00  0.00     0.016 C 
ATOM      3  C   LIG d   1      -2.335  78.435 113.932  0.00  0.00     0.038 C 
ATOM      4  C   LIG d   1      -1.428  77.391 113.697  0.00  0.00     0.028 C 
ATOM      5  C   LIG d   1      -0.700  76.926 114.954  0.00  0.00    -0.047 C 
ATOM      6  C   LIG d   1      -1.742  76.630 116.057  0.00  0.00     0.091 C 
ENDROOT
BRANCH   1   7
ATOM      7  O   LIG d   1      -3.857  77.436 116.994  0.00  0.00    -0.368 OA
BRANCH   7   8
ATOM      8  C   LIG d   1      -5.046  77.345 116.170  0.00  0.00     0.119 C 
BRANCH   8   9
ATOM      9  C   LIG d   1      -6.235  77.839 117.016  0.00  0.00     0.028 C 
ATOM     10  C   LIG d   1      -6.256  79.370 117.160  0.00  0.00     0.006 C 
ENDBRANCH   8   9
BRANCH   8  11
ATOM     11  C   LIG d   1      -5.372  75.889 115.823  0.00  0.00     0.028 C 
ATOM     12  C   LIG d   1      -5.619  75.675 114.322  0.00  0.00     0.006 C 
ENDBRANCH   8  11
ENDBRANCH   7   8
ENDBRANCH   1   7
BRANCH   6  13
ATOM     13  N   LIG d   1      -1.110  76.250 117.347  0.00  0.00    -0.311 N 
ATOM     14  C   LIG d   1      -1.335  75.090 117.960  0.00  0.00     0.210 C 
ATOM     15  C   LIG d   1      -0.598  74.907 119.290  0.00  0.00     0.109 C 
ATOM     16  O   LIG d   1      -2.052  74.181 117.514  0.00  0.00    -0.276 OA
ATOM     17  H   LIG d   1      -0.489  76.916 117.765  0.00  0.00     0.149 HD
ENDBRANCH   6  13
BRANCH   5  18
ATOM     18  N   LIG d   1       0.108  75.747 114.591  0.00  0.00     0.381 N 
ATOM     19  H   LIG d   1       0.593  75.407 115.397  0.00  0.00    -0.090 HD
ATOM     20  H   LIG d   1       0.790  76.019 113.905  0.00  0.00    -0.090 HD
ATOM     21  H   LIG d   1      -0.478  75.032 114.220  0.00  0.00    -0.090 HD
ENDBRANCH   5  18
BRANCH   3  22
ATOM     22  C   LIG d   1      -2.572  79.344 112.912  0.00  0.00     0.382 C 
ATOM     23  O   LIG d   1      -2.996  80.493 113.182  0.00  0.00    -0.241 OA
ATOM     24  O   LIG d   1      -2.411  79.013 111.722  0.00  0.00    -0.241 OA
ENDBRANCH   3  22
TORSDOF 7
ENDMDL
MODEL 3
REMARK VINA RESULT:      -5.0      1.032      1.443
REMARK  7 active torsions:
REMARK  status: ('A' for Active; 'I' for Inactive)
REMARK    1  A    between atoms: C_2  and  C_3 
REMARK    2  A    between atoms: C_3  and  O_6 
REMARK    3  A    between atoms: C_3  and  C_4 
REMARK    4  A    between atoms: C_7  and  O_6 
REMARK    5  A    between atoms: C_9  and  C_10 
REMARK    6  A    between atoms: N_15  and  C_14 
REMARK    7  A    between atoms: N_20  and  C_19 
REMARK       I    between atoms: C_22  and  N_20 
ROOT
ATOM      1  C   LIG d   1      -2.119  75.789 115.041  0.00  0.00     0.161 C 
ATOM      2  C   LIG d   1      -1.886  75.475 116.390  0.00  0.00     0.016 C 
ATOM      3  C   LIG d   1      -1.179  76.321 117.275  0.00  0.00     0.038 C 
ATOM      4  C   LIG d   1      -0.784  77.615 116.907  0.00  0.00     0.028 C 
ATOM      5  C   LIG d   1      -0.553  77.775 115.408  0.00  0.00    -0.047 C 
ATOM      6  C   LIG d   1      -1.792  77.246 114.650  0.00  0.00     0.091 C 
ENDROOT
BRANCH   1   7
ATOM      7  O   LIG d   1      -3.480  75.470 114.692  0.00  0.00    -0.368 OA
BRANCH   7   8
ATOM      8  C   LIG d   1      -4.455  75.587 115.758  0.00  0.00     0.119 C 
BRANCH   8   9
ATOM      9  C   LIG d   1      -5.524  74.501 115.528  0.00  0.00     0.028 C 
ATOM     10  C   LIG d   1      -6.844  74.815 116.251  0.00  0.00     0.006 C 
ENDBRANCH   8   9
BRANCH   8  11
ATOM     11  C   LIG d   1      -5.207  76.919 115.683  0.00  0.00     0.028 C 
ATOM     12  C   LIG d   1      -4.758  77.918 116.760  0.00  0.00     0.006 C 
ENDBRANCH   8  11
ENDBRANCH   7   8
ENDBRANCH   1   7
BRANCH   6  13
ATOM     13  N   LIG d   1      -1.615  77.287 113.176  0.00  0.00    -0.311 N 
ATOM     14  C   LIG d   1      -2.112  78.253 112.404  0.00  0.00     0.210 C 
ATOM     15  C   LIG d   1      -1.830  78.094 110.907  0.00  0.00     0.109 C 
ATOM     16  O   LIG d   1      -2.732  79.243 112.821  0.00  0.00    -0.276 OA
ATOM     17  H   LIG d   1      -1.097  76.539 112.757  0.00  0.00     0.149 HD
ENDBRANCH   6  13
BRANCH   5  18
ATOM     18  N   LIG d   1      -0.282  79.201 115.149  0.00  0.00     0.381 N 
ATOM     19  H   LIG d   1       0.705  79.368 115.171  0.00  0.00    -0.090 HD
ATOM     20  H   LIG d   1      -0.711  79.751 115.872  0.00  0.00    -0.090 HD
ATOM     21  H   LIG d   1      -0.649  79.462 114.260  0.00  0.00    -0.090 HD
ENDBRANCH   5  18
BRANCH   3  22
ATOM     22  C   LIG d   1      -0.825  75.857 118.533  0.00  0.00     0.382 C 
ATOM     23  O   LIG d   1      -1.716  75.534 119.356  0.00  0.00    -0.241 OA
ATOM     24  O   LIG d   1       0.372  75.798 118.871  0.00  0.00    -0.241 OA
ENDBRANCH   3  22
TORSDOF 7
ENDMDL
MODEL 4
REMARK VINA RESULT:      -4.9      2.509      5.241
REMARK  7 active torsions:
REMARK  status: ('A' for Active; 'I' for Inactive)
REMARK    1  A    between atoms: C_2  and  C_3 
REMARK    2  A    between atoms: C_3  and  O_6 
REMARK    3  A    between atoms: C_3  and  C_4 
REMARK    4  A    between atoms: C_7  and  O_6 
REMARK    5  A    between atoms: C_9  and  C_10 
REMARK    6  A    between atoms: N_15  and  C_14 
REMARK    7  A    between atoms: N_20  and  C_19 
REMARK       I    between atoms: C_22  and  N_20 
ROOT
ATOM      1  C   LIG d   1      -2.984  78.374 115.708  0.00  0.00     0.161 C 
ATOM      2  C   LIG d   1      -2.941  79.174 114.554  0.00  0.00     0.016 C 
ATOM      3  C   LIG d   1      -2.105  78.899 113.447  0.00  0.00     0.038 C 
ATOM      4  C   LIG d   1      -1.361  77.713 113.357  0.00  0.00     0.028 C 
ATOM      5  C   LIG d   1      -0.986  77.128 114.715  0.00  0.00    -0.047 C 
ATOM      6  C   LIG d   1      -2.261  77.017 115.582  0.00  0.00     0.091 C 
ENDROOT
BRANCH   1   7
ATOM      7  O   LIG d   1      -4.352  78.177 116.116  0.00  0.00    -0.368 OA
BRANCH   7   8
ATOM      8  C   LIG d   1      -4.739  78.796 117.368  0.00  0.00     0.119 C 
BRANCH   8   9
ATOM      9  C   LIG d   1      -5.129  77.666 118.341  0.00  0.00     0.028 C 
ATOM     10  C   LIG d   1      -4.285  77.682 119.627  0.00  0.00     0.006 C 
ENDBRANCH   8   9
BRANCH   8  11
ATOM     11  C   LIG d   1      -6.004  79.643 117.203  0.00  0.00     0.028 C 
ATOM     12  C   LIG d   1      -7.285  78.882 117.583  0.00  0.00     0.006 C 
ENDBRANCH   8  11
ENDBRANCH   7   8
ENDBRANCH   1   7
BRANCH   6  13
ATOM     13  N   LIG d   1      -1.971  76.532 116.956  0.00  0.00    -0.311 N 
ATOM     14  C   LIG d   1      -2.136  75.266 117.338  0.00  0.00     0.210 C 
ATOM     15  C   LIG d   1      -1.798  74.984 118.805  0.00  0.00     0.109 C 
ATOM     16  O   LIG d   1      -2.500  74.345 116.592  0.00  0.00    -0.276 OA
ATOM     17  H   LIG d   1      -1.642  77.207 117.618  0.00  0.00     0.149 HD
ENDBRANCH   6  13
BRANCH   5  18
ATOM     18  N   LIG d   1      -0.335  75.827 114.475  0.00  0.00     0.381 N 
ATOM     19  H   LIG d   1       0.651  75.958 114.359  0.00  0.00    -0.090 HD
ATOM     20  H   LIG d   1      -0.702  75.430 113.628  0.00  0.00    -0.090 HD
ATOM     21  H   LIG d   1      -0.508  75.213 115.240  0.00  0.00    -0.090 HD
ENDBRANCH   5  18
BRANCH   3  22
ATOM     22  C   LIG d   1      -1.978  79.835 112.433  0.00  0.00     0.382 C 
ATOM     23  O   LIG d   1      -1.278  79.575 111.424  0.00  0.00    -0.241 OA
ATOM     24  O   LIG d   1      -2.517  80.953 112.534  0.00  0.00    -0.241 OA
ENDBRANCH   3  22
TORSDOF 7
ENDMDL
MODEL 5
REMARK VINA RESULT:      -4.7      3.663      5.517
REMARK  7 active torsions:
REMARK  status: ('A' for Active; 'I' for Inactive)
REMARK    1  A    between atoms: C_2  and  C_3 
REMARK    2  A    between atoms: C_3  and  O_6 
REMARK    3  A    between atoms: C_3  and  C_4 
REMARK    4  A    between atoms: C_7  and  O_6 
REMARK    5  A    between atoms: C_9  and  C_10 
REMARK    6  A    between atoms: N_15  and  C_14 
REMARK    7  A    between atoms: N_20  and  C_19 
REMARK       I    between atoms: C_22  and  N_20 
ROOT
ATOM      1  C   LIG d   1      -5.970  77.499 116.909  0.00  0.00     0.161 C 
ATOM      2  C   LIG d   1      -5.394  76.807 115.830  0.00  0.00     0.016 C 
ATOM      3  C   LIG d   1      -4.015  76.853 115.523  0.00  0.00     0.038 C 
ATOM      4  C   LIG d   1      -3.087  77.478 116.370  0.00  0.00     0.028 C 
ATOM      5  C   LIG d   1      -3.687  78.612 117.194  0.00  0.00    -0.047 C 
ATOM      6  C   LIG d   1      -4.957  78.095 117.909  0.00  0.00     0.091 C 
ENDROOT
BRANCH   1   7
ATOM      7  O   LIG d   1      -6.906  76.644 117.594  0.00  0.00    -0.368 OA
BRANCH   7   8
ATOM      8  C   LIG d   1      -8.295  76.779 117.206  0.00  0.00     0.119 C 
BRANCH   8   9
ATOM      9  C   LIG d   1      -9.105  77.081 118.482  0.00  0.00     0.028 C 
ATOM     10  C   LIG d   1      -9.785  78.460 118.433  0.00  0.00     0.006 C 
ENDBRANCH   8   9
BRANCH   8  11
ATOM     11  C   LIG d   1      -8.856  75.457 116.673  0.00  0.00     0.028 C 
ATOM     12  C   LIG d   1      -8.185  74.227 117.305  0.00  0.00     0.006 C 
ENDBRANCH   8  11
ENDBRANCH   7   8
ENDBRANCH   1   7
BRANCH   6  13
ATOM     13  N   LIG d   1      -5.653  79.165 118.670  0.00  0.00    -0.311 N 
ATOM     14  C   LIG d   1      -6.351  80.141 118.092  0.00  0.00     0.210 C 
ATOM     15  C   LIG d   1      -6.972  81.153 119.060  0.00  0.00     0.109 C 
ATOM     16  O   LIG d   1      -6.540  80.248 116.871  0.00  0.00    -0.276 OA
ATOM     17  H   LIG d   1      -5.578  79.137 119.668  0.00  0.00     0.149 HD
ENDBRANCH   6  13
BRANCH   5  18
ATOM     18  N   LIG d   1      -2.648  79.081 118.129  0.00  0.00     0.381 N 
ATOM     19  H   LIG d   1      -2.809  80.041 118.361  0.00  0.00    -0.090 HD
ATOM     20  H   LIG d   1      -1.751  79.012 117.681  0.00  0.00    -0.090 HD
ATOM     21  H   LIG d   1      -2.657  78.526 118.956  0.00  0.00    -0.090 HD
ENDBRANCH   5  18
BRANCH   3  22
ATOM     22  C   LIG d   1      -3.557  76.303 114.336  0.00  0.00     0.382 C 
ATOM     23  O   LIG d   1      -2.451  75.710 114.305  0.00  0.00    -0.241 OA
ATOM     24  O   LIG d   1      -4.214  76.430 113.285  0.00  0.00    -0.241 OA
ENDBRANCH   3  22
TORSDOF 7
ENDMDL
MODEL 6
REMARK VINA RESULT:      -4.6      3.963      6.112
REMARK  7 active torsions:
REMARK  status: ('A' for Active; 'I' for Inactive)
REMARK    1  A    between atoms: C_2  and  C_3 
REMARK    2  A    between atoms: C_3  and  O_6 
REMARK    3  A    between atoms: C_3  and  C_4 
REMARK    4  A    between atoms: C_7  and  O_6 
REMARK    5  A    between atoms: C_9  and  C_10 
REMARK    6  A    between atoms: N_15  and  C_14 
REMARK    7  A    between atoms: N_20  and  C_19 
REMARK       I    between atoms: C_22  and  N_20 
ROOT
ATOM      1  C   LIG d   1      -5.917  77.954 117.232  0.00  0.00     0.161 C 
ATOM      2  C   LIG d   1      -6.890  78.966 117.184  0.00  0.00     0.016 C 
ATOM      3  C   LIG d   1      -6.793  80.175 117.909  0.00  0.00     0.038 C 
ATOM      4  C   LIG d   1      -5.634  80.522 118.620  0.00  0.00     0.028 C 
ATOM      5  C   LIG d   1      -4.838  79.316 119.106  0.00  0.00    -0.047 C 
ATOM      6  C   LIG d   1      -4.594  78.362 117.914  0.00  0.00     0.091 C 
ENDROOT
BRANCH   1   7
ATOM      7  O   LIG d   1      -5.662  77.457 115.903  0.00  0.00    -0.368 OA
BRANCH   7   8
ATOM      8  C   LIG d   1      -6.517  76.378 115.453  0.00  0.00     0.119 C 
BRANCH   8   9
ATOM      9  C   LIG d   1      -6.577  75.331 116.582  0.00  0.00     0.028 C 
ATOM     10  C   LIG d   1      -8.020  74.961 116.964  0.00  0.00     0.006 C 
ENDBRANCH   8   9
BRANCH   8  11
ATOM     11  C   LIG d   1      -5.906  75.646 114.254  0.00  0.00     0.028 C 
ATOM     12  C   LIG d   1      -4.393  75.423 114.400  0.00  0.00     0.006 C 
ENDBRANCH   8  11
ENDBRANCH   7   8
ENDBRANCH   1   7
BRANCH   6  13
ATOM     13  N   LIG d   1      -3.894  77.115 118.320  0.00  0.00    -0.311 N 
ATOM     14  C   LIG d   1      -2.803  76.656 117.710  0.00  0.00     0.210 C 
ATOM     15  C   LIG d   1      -2.252  75.343 118.274  0.00  0.00     0.109 C 
ATOM     16  O   LIG d   1      -2.220  77.228 116.777  0.00  0.00    -0.276 OA
ATOM     17  H   LIG d   1      -4.281  76.605 119.089  0.00  0.00     0.149 HD
ENDBRANCH   6  13
BRANCH   5  18
ATOM     18  N   LIG d   1      -3.589  79.819 119.709  0.00  0.00     0.381 N 
ATOM     19  H   LIG d   1      -3.791  80.269 120.579  0.00  0.00    -0.090 HD
ATOM     20  H   LIG d   1      -3.181  80.498 119.090  0.00  0.00    -0.090 HD
ATOM     21  H   LIG d   1      -2.953  79.067 119.854  0.00  0.00    -0.090 HD
ENDBRANCH   5  18
BRANCH   3  22
ATOM     22  C   LIG d   1      -7.879  81.035 117.961  0.00  0.00     0.382 C 
ATOM     23  O   LIG d   1      -8.423  81.423 116.899  0.00  0.00    -0.241 OA
ATOM     24  O   LIG d   1      -8.295  81.464 119.054  0.00  0.00    -0.241 OA
ENDBRANCH   3  22
TORSDOF 7
ENDMDL
MODEL 7
REMARK VINA RESULT:      -4.6      3.751      5.855
REMARK  7 active torsions:
REMARK  status: ('A' for Active; 'I' for Inactive)
REMARK    1  A    between atoms: C_2  and  C_3 
REMARK    2  A    between atoms: C_3  and  O_6 
REMARK    3  A    between atoms: C_3  and  C_4 
REMARK    4  A    between atoms: C_7  and  O_6 
REMARK    5  A    between atoms: C_9  and  C_10 
REMARK    6  A    between atoms: N_15  and  C_14 
REMARK    7  A    between atoms: N_20  and  C_19 
REMARK       I    between atoms: C_22  and  N_20 
ROOT
ATOM      1  C   LIG d   1      -5.035  78.177 116.671  0.00  0.00     0.161 C 
ATOM      2  C   LIG d   1      -3.911  78.826 116.134  0.00  0.00     0.016 C 
ATOM      3  C   LIG d   1      -3.009  78.207 115.239  0.00  0.00     0.038 C 
ATOM      4  C   LIG d   1      -3.255  76.936 114.698  0.00  0.00     0.028 C 
ATOM      5  C   LIG d   1      -4.110  76.050 115.599  0.00  0.00    -0.047 C 
ATOM      6  C   LIG d   1      -5.382  76.828 116.007  0.00  0.00     0.091 C 
ENDROOT
BRANCH   1   7
ATOM      7  O   LIG d   1      -6.173  79.060 116.634  0.00  0.00    -0.368 OA
BRANCH   7   8
ATOM      8  C   LIG d   1      -6.422  79.830 117.836  0.00  0.00     0.119 C 
BRANCH   8   9
ATOM      9  C   LIG d   1      -7.382  79.011 118.720  0.00  0.00     0.028 C 
ATOM     10  C   LIG d   1      -8.781  78.873 118.095  0.00  0.00     0.006 C 
ENDBRANCH   8   9
BRANCH   8  11
ATOM     11  C   LIG d   1      -7.169  81.130 117.521  0.00  0.00     0.028 C 
ATOM     12  C   LIG d   1      -7.134  82.134 118.684  0.00  0.00     0.006 C 
ENDBRANCH   8  11
ENDBRANCH   7   8
ENDBRANCH   1   7
BRANCH   6  13
ATOM     13  N   LIG d   1      -6.233  76.065 116.956  0.00  0.00    -0.311 N 
ATOM     14  C   LIG d   1      -7.508  75.763 116.718  0.00  0.00     0.210 C 
ATOM     15  C   LIG d   1      -8.209  74.987 117.838  0.00  0.00     0.109 C 
ATOM     16  O   LIG d   1      -8.116  76.035 115.672  0.00  0.00    -0.276 OA
ATOM     17  H   LIG d   1      -5.810  75.776 117.817  0.00  0.00     0.149 HD
ENDBRANCH   6  13
BRANCH   5  18
ATOM     18  N   LIG d   1      -4.403  74.810 114.856  0.00  0.00     0.381 N 
ATOM     19  H   LIG d   1      -4.470  74.041 115.492  0.00  0.00    -0.090 HD
ATOM     20  H   LIG d   1      -3.649  74.627 114.217  0.00  0.00    -0.090 HD
ATOM     21  H   LIG d   1      -5.258  74.909 114.352  0.00  0.00    -0.090 HD
ENDBRANCH   5  18
BRANCH   3  22
ATOM     22  C   LIG d   1      -1.823  78.845 114.906  0.00  0.00     0.382 C 
ATOM     23  O   LIG d   1      -0.837  78.778 115.679  0.00  0.00    -0.241 OA
ATOM     24  O   LIG d   1      -1.742  79.523 113.865  0.00  0.00    -0.241 OA
ENDBRANCH   3  22
TORSDOF 7
ENDMDL
MODEL 8
REMARK VINA RESULT:      -4.6      3.510      4.645
REMARK  7 active torsions:
REMARK  status: ('A' for Active; 'I' for Inactive)
REMARK    1  A    between atoms: C_2  and  C_3 
REMARK    2  A    between atoms: C_3  and  O_6 
REMARK    3  A    between atoms: C_3  and  C_4 
REMARK    4  A    between atoms: C_7  and  O_6 
REMARK    5  A    between atoms: C_9  and  C_10 
REMARK    6  A    between atoms: N_15  and  C_14 
REMARK    7  A    between atoms: N_20  and  C_19 
REMARK       I    between atoms: C_22  and  N_20 
ROOT
ATOM      1  C   LIG d   1      -4.523  78.078 116.261  0.00  0.00     0.161 C 
ATOM      2  C   LIG d   1      -3.361  77.301 116.404  0.00  0.00     0.016 C 
ATOM      3  C   LIG d   1      -2.582  77.277 117.583  0.00  0.00     0.038 C 
ATOM      4  C   LIG d   1      -2.998  77.917 118.760  0.00  0.00     0.028 C 
ATOM      5  C   LIG d   1      -3.900  79.120 118.509  0.00  0.00    -0.047 C 
ATOM      6  C   LIG d   1      -5.053  78.696 117.572  0.00  0.00     0.091 C 
ENDROOT
BRANCH   1   7
ATOM      7  O   LIG d   1      -5.554  77.302 115.620  0.00  0.00    -0.368 OA
BRANCH   7   8
ATOM      8  C   LIG d   1      -6.060  76.171 116.371  0.00  0.00     0.119 C 
BRANCH   8   9
ATOM      9  C   LIG d   1      -5.855  74.912 115.506  0.00  0.00     0.028 C 
ATOM     10  C   LIG d   1      -5.428  75.251 114.068  0.00  0.00     0.006 C 
ENDBRANCH   8   9
BRANCH   8  11
ATOM     11  C   LIG d   1      -7.573  76.275 116.583  0.00  0.00     0.028 C 
ATOM     12  C   LIG d   1      -8.194  74.966 117.097  0.00  0.00     0.006 C 
ENDBRANCH   8  11
ENDBRANCH   7   8
ENDBRANCH   1   7
BRANCH   6  13
ATOM     13  N   LIG d   1      -5.935  79.835 117.207  0.00  0.00    -0.311 N 
ATOM     14  C   LIG d   1      -7.070  80.117 117.845  0.00  0.00     0.210 C 
ATOM     15  C   LIG d   1      -7.838  81.323 117.295  0.00  0.00     0.109 C 
ATOM     16  O   LIG d   1      -7.497  79.503 118.834  0.00  0.00    -0.276 OA
ATOM     17  H   LIG d   1      -5.649  80.405 116.435  0.00  0.00     0.149 HD
ENDBRANCH   6  13
BRANCH   5  18
ATOM     18  N   LIG d   1      -4.369  79.607 119.820  0.00  0.00     0.381 N 
ATOM     19  H   LIG d   1      -4.682  78.836 120.375  0.00  0.00    -0.090 HD
ATOM     20  H   LIG d   1      -5.146  80.228 119.677  0.00  0.00    -0.090 HD
ATOM     21  H   LIG d   1      -3.633  80.086 120.290  0.00  0.00    -0.090 HD
ENDBRANCH   5  18
BRANCH   3  22
ATOM     22  C   LIG d   1      -1.351  76.639 117.580  0.00  0.00     0.382 C 
ATOM     23  O   LIG d   1      -1.140  75.686 116.791  0.00  0.00    -0.241 OA
ATOM     24  O   LIG d   1      -0.463  76.975 118.387  0.00  0.00    -0.241 OA
ENDBRANCH   3  22
TORSDOF 7
ENDMDL
MODEL 9
REMARK VINA RESULT:      -4.5      3.338      5.308
REMARK  7 active torsions:
REMARK  status: ('A' for Active; 'I' for Inactive)
REMARK    1  A    between atoms: C_2  and  C_3 
REMARK    2  A    between atoms: C_3  and  O_6 
REMARK    3  A    between atoms: C_3  and  C_4 
REMARK    4  A    between atoms: C_7  and  O_6 
REMARK    5  A    between atoms: C_9  and  C_10 
REMARK    6  A    between atoms: N_15  and  C_14 
REMARK    7  A    between atoms: N_20  and  C_19 
REMARK       I    between atoms: C_22  and  N_20 
ROOT
ATOM      1  C   LIG d   1      -4.232  77.047 117.364  0.00  0.00     0.161 C 
ATOM      2  C   LIG d   1      -3.032  77.636 116.929  0.00  0.00     0.016 C 
ATOM      3  C   LIG d   1      -2.550  77.531 115.605  0.00  0.00     0.038 C 
ATOM      4  C   LIG d   1      -3.315  76.953 114.580  0.00  0.00     0.028 C 
ATOM      5  C   LIG d   1      -4.303  75.904 115.080  0.00  0.00    -0.047 C 
ATOM      6  C   LIG d   1      -5.134  76.508 116.235  0.00  0.00     0.091 C 
ENDROOT
BRANCH   1   7
ATOM      7  O   LIG d   1      -4.962  77.978 118.188  0.00  0.00    -0.368 OA
BRANCH   7   8
ATOM      8  C   LIG d   1      -4.850  79.376 117.823  0.00  0.00     0.119 C 
BRANCH   8   9
ATOM      9  C   LIG d   1      -4.622  80.176 119.120  0.00  0.00     0.028 C 
ATOM     10  C   LIG d   1      -3.153  80.595 119.300  0.00  0.00     0.006 C 
ENDBRANCH   8   9
BRANCH   8  11
ATOM     11  C   LIG d   1      -6.165  79.907 117.244  0.00  0.00     0.028 C 
ATOM     12  C   LIG d   1      -7.393  79.130 117.744  0.00  0.00     0.006 C 
ENDBRANCH   8  11
ENDBRANCH   7   8
ENDBRANCH   1   7
BRANCH   6  13
ATOM     13  N   LIG d   1      -6.067  75.521 116.838  0.00  0.00    -0.311 N 
ATOM     14  C   LIG d   1      -7.352  75.425 116.499  0.00  0.00     0.210 C 
ATOM     15  C   LIG d   1      -8.142  74.353 117.256  0.00  0.00     0.109 C 
ATOM     16  O   LIG d   1      -7.904  76.103 115.620  0.00  0.00    -0.276 OA
ATOM     17  H   LIG d   1      -5.695  74.909 117.537  0.00  0.00     0.149 HD
ENDBRANCH   6  13
BRANCH   5  18
ATOM     18  N   LIG d   1      -5.127  75.486 113.931  0.00  0.00     0.381 N 
ATOM     19  H   LIG d   1      -6.062  75.825 114.043  0.00  0.00    -0.090 HD
ATOM     20  H   LIG d   1      -5.158  74.482 113.901  0.00  0.00    -0.090 HD
ATOM     21  H   LIG d   1      -4.737  75.839 113.085  0.00  0.00    -0.090 HD
ENDBRANCH   5  18
BRANCH   3  22
ATOM     22  C   LIG d   1      -1.270  77.972 115.302  0.00  0.00     0.382 C 
ATOM     23  O   LIG d   1      -0.322  77.153 115.247  0.00  0.00    -0.241 OA
ATOM     24  O   LIG d   1      -1.045  79.185 115.128  0.00  0.00    -0.241 OA
ENDBRANCH   3  22
TORSDOF 7
ENDMDL
