MODEL 1
REMARK VINA RESULT:      -4.8      0.000      0.000
REMARK  7 active torsions:
REMARK  status: ('A' for Active; 'I' for Inactive)
REMARK    1  A    between atoms: C_2  and  C_3 
REMARK    2  A    between atoms: C_3  and  O_6 
REMARK    3  A    between atoms: C_3  and  C_4 
REMARK    4  A    between atoms: C_7  and  O_6 
REMARK    5  A    between atoms: C_9  and  C_10 
REMARK    6  A    between atoms: N_15  and  C_14 
REMARK    7  A    between atoms: N_20  and  C_19 
REMARK       I    between atoms: C_22  and  N_20 
ROOT
ATOM      1  C   LIG d   1      -2.990  79.093 115.915  0.00  0.00     0.161 C 
ATOM      2  C   LIG d   1      -3.022  79.948 114.800  0.00  0.00     0.016 C 
ATOM      3  C   LIG d   1      -2.326  79.684 113.597  0.00  0.00     0.038 C 
ATOM      4  C   LIG d   1      -1.669  78.465 113.373  0.00  0.00     0.028 C 
ATOM      5  C   LIG d   1      -1.189  77.790 114.654  0.00  0.00    -0.047 C 
ATOM      6  C   LIG d   1      -2.369  77.706 115.649  0.00  0.00     0.091 C 
ENDROOT
BRANCH   1   7
ATOM      7  O   LIG d   1      -4.317  78.952 116.460  0.00  0.00    -0.368 OA
BRANCH   7   8
ATOM      8  C   LIG d   1      -4.737  79.982 117.388  0.00  0.00     0.119 C 
BRANCH   8   9
ATOM      9  C   LIG d   1      -4.053  79.695 118.739  0.00  0.00     0.028 C 
ATOM     10  C   LIG d   1      -3.215  80.884 119.237  0.00  0.00     0.006 C 
ENDBRANCH   8   9
BRANCH   8  11
ATOM     11  C   LIG d   1      -6.240  79.900 117.669  0.00  0.00     0.028 C 
ATOM     12  C   LIG d   1      -6.911  81.281 117.736  0.00  0.00     0.006 C 
ENDBRANCH   8  11
ENDBRANCH   7   8
ENDBRANCH   1   7
BRANCH   6  13
ATOM     13  N   LIG d   1      -1.965  77.135 116.960  0.00  0.00    -0.311 N 
ATOM     14  C   LIG d   1      -2.078  75.843 117.263  0.00  0.00     0.210 C 
ATOM     15  C   LIG d   1      -1.621  75.469 118.677  0.00  0.00     0.109 C 
ATOM     16  O   LIG d   1      -2.482  74.966 116.485  0.00  0.00    -0.276 OA
ATOM     17  H   LIG d   1      -1.598  77.771 117.641  0.00  0.00     0.149 HD
ENDBRANCH   6  13
BRANCH   5  18
ATOM     18  N   LIG d   1      -0.648  76.469 114.286  0.00  0.00     0.381 N 
ATOM     19  H   LIG d   1       0.323  76.422 114.524  0.00  0.00    -0.090 HD
ATOM     20  H   LIG d   1      -0.735  76.347 113.292  0.00  0.00    -0.090 HD
ATOM     21  H   LIG d   1      -1.148  75.750 114.761  0.00  0.00    -0.090 HD
ENDBRANCH   5  18
BRANCH   3  22
ATOM     22  C   LIG d   1      -2.250  80.663 112.619  0.00  0.00     0.382 C 
ATOM     23  O   LIG d   1      -2.931  81.711 112.726  0.00  0.00    -0.241 OA
ATOM     24  O   LIG d   1      -1.543  80.492 111.608  0.00  0.00    -0.241 OA
ENDBRANCH   3  22
TORSDOF 7
ENDMDL
MODEL 2
REMARK VINA RESULT:      -4.7      2.784      3.573
REMARK  7 active torsions:
REMARK  status: ('A' for Active; 'I' for Inactive)
REMARK    1  A    between atoms: C_2  and  C_3 
REMARK    2  A    between atoms: C_3  and  O_6 
REMARK    3  A    between atoms: C_3  and  C_4 
REMARK    4  A    between atoms: C_7  and  O_6 
REMARK    5  A    between atoms: C_9  and  C_10 
REMARK    6  A    between atoms: N_15  and  C_14 
REMARK    7  A    between atoms: N_20  and  C_19 
REMARK       I    between atoms: C_22  and  N_20 
ROOT
ATOM      1  C   LIG d   1      -2.913  77.104 114.834  0.00  0.00     0.161 C 
ATOM      2  C   LIG d   1      -3.042  78.055 113.808  0.00  0.00     0.016 C 
ATOM      3  C   LIG d   1      -2.114  79.099 113.593  0.00  0.00     0.038 C 
ATOM      4  C   LIG d   1      -0.905  79.174 114.300  0.00  0.00     0.028 C 
ATOM      5  C   LIG d   1      -0.971  78.533 115.682  0.00  0.00    -0.047 C 
ATOM      6  C   LIG d   1      -1.543  77.103 115.545  0.00  0.00     0.091 C 
ENDROOT
BRANCH   1   7
ATOM      7  O   LIG d   1      -3.213  75.790 114.323  0.00  0.00    -0.368 OA
BRANCH   7   8
ATOM      8  C   LIG d   1      -4.408  75.161 114.846  0.00  0.00     0.119 C 
BRANCH   8   9
ATOM      9  C   LIG d   1      -5.412  75.036 113.684  0.00  0.00     0.028 C 
ATOM     10  C   LIG d   1      -6.551  76.066 113.779  0.00  0.00     0.006 C 
ENDBRANCH   8   9
BRANCH   8  11
ATOM     11  C   LIG d   1      -5.098  76.051 115.884  0.00  0.00     0.028 C 
ATOM     12  C   LIG d   1      -5.266  75.359 117.246  0.00  0.00     0.006 C 
ENDBRANCH   8  11
ENDBRANCH   7   8
ENDBRANCH   1   7
BRANCH   6  13
ATOM     13  N   LIG d   1      -1.721  76.435 116.861  0.00  0.00    -0.311 N 
ATOM     14  C   LIG d   1      -1.470  75.144 117.067  0.00  0.00     0.210 C 
ATOM     15  C   LIG d   1      -1.739  74.652 118.493  0.00  0.00     0.109 C 
ATOM     16  O   LIG d   1      -1.021  74.365 116.213  0.00  0.00    -0.276 OA
ATOM     17  H   LIG d   1      -2.053  77.000 117.618  0.00  0.00     0.149 HD
ENDBRANCH   6  13
BRANCH   5  18
ATOM     18  N   LIG d   1       0.389  78.559 116.252  0.00  0.00     0.381 N 
ATOM     19  H   LIG d   1       1.044  78.848 115.552  0.00  0.00    -0.090 HD
ATOM     20  H   LIG d   1       0.635  77.631 116.550  0.00  0.00    -0.090 HD
ATOM     21  H   LIG d   1       0.422  79.184 117.027  0.00  0.00    -0.090 HD
ENDBRANCH   5  18
BRANCH   3  22
ATOM     22  C   LIG d   1      -2.410  80.107 112.687  0.00  0.00     0.382 C 
ATOM     23  O   LIG d   1      -1.811  80.156 111.586  0.00  0.00    -0.241 OA
ATOM     24  O   LIG d   1      -3.238  80.992 112.976  0.00  0.00    -0.241 OA
ENDBRANCH   3  22
TORSDOF 7
ENDMDL
MODEL 3
REMARK VINA RESULT:      -4.5      2.635      3.580
REMARK  7 active torsions:
REMARK  status: ('A' for Active; 'I' for Inactive)
REMARK    1  A    between atoms: C_2  and  C_3 
REMARK    2  A    between atoms: C_3  and  O_6 
REMARK    3  A    between atoms: C_3  and  C_4 
REMARK    4  A    between atoms: C_7  and  O_6 
REMARK    5  A    between atoms: C_9  and  C_10 
REMARK    6  A    between atoms: N_15  and  C_14 
REMARK    7  A    between atoms: N_20  and  C_19 
REMARK       I    between atoms: C_22  and  N_20 
ROOT
ATOM      1  C   LIG d   1      -3.409  78.636 116.728  0.00  0.00     0.161 C 
ATOM      2  C   LIG d   1      -2.467  79.536 117.254  0.00  0.00     0.016 C 
ATOM      3  C   LIG d   1      -1.130  79.615 116.802  0.00  0.00     0.038 C 
ATOM      4  C   LIG d   1      -0.681  78.898 115.683  0.00  0.00     0.028 C 
ATOM      5  C   LIG d   1      -1.456  77.607 115.440  0.00  0.00    -0.047 C 
ATOM      6  C   LIG d   1      -2.969  77.924 115.431  0.00  0.00     0.091 C 
ENDROOT
BRANCH   1   7
ATOM      7  O   LIG d   1      -4.668  79.308 116.528  0.00  0.00    -0.368 OA
BRANCH   7   8
ATOM      8  C   LIG d   1      -5.645  79.160 117.588  0.00  0.00     0.119 C 
BRANCH   8   9
ATOM      9  C   LIG d   1      -6.643  78.071 117.149  0.00  0.00     0.028 C 
ATOM     10  C   LIG d   1      -7.880  78.006 118.061  0.00  0.00     0.006 C 
ENDBRANCH   8   9
BRANCH   8  11
ATOM     11  C   LIG d   1      -6.481  80.432 117.757  0.00  0.00     0.028 C 
ATOM     12  C   LIG d   1      -6.036  81.282 118.958  0.00  0.00     0.006 C 
ENDBRANCH   8  11
ENDBRANCH   7   8
ENDBRANCH   1   7
BRANCH   6  13
ATOM     13  N   LIG d   1      -3.803  76.703 115.283  0.00  0.00    -0.311 N 
ATOM     14  C   LIG d   1      -4.277  76.276 114.114  0.00  0.00     0.210 C 
ATOM     15  C   LIG d   1      -5.132  75.007 114.187  0.00  0.00     0.109 C 
ATOM     16  O   LIG d   1      -4.045  76.810 113.019  0.00  0.00    -0.276 OA
ATOM     17  H   LIG d   1      -4.014  76.191 116.117  0.00  0.00     0.149 HD
ENDBRANCH   6  13
BRANCH   5  18
ATOM     18  N   LIG d   1      -0.978  77.033 114.168  0.00  0.00     0.381 N 
ATOM     19  H   LIG d   1       0.022  77.048 114.144  0.00  0.00    -0.090 HD
ATOM     20  H   LIG d   1      -1.320  77.596 113.409  0.00  0.00    -0.090 HD
ATOM     21  H   LIG d   1      -1.306  76.098 114.072  0.00  0.00    -0.090 HD
ENDBRANCH   5  18
BRANCH   3  22
ATOM     22  C   LIG d   1      -0.214  80.389 117.499  0.00  0.00     0.382 C 
ATOM     23  O   LIG d   1       0.269  79.969 118.578  0.00  0.00    -0.241 OA
ATOM     24  O   LIG d   1       0.102  81.520 117.085  0.00  0.00    -0.241 OA
ENDBRANCH   3  22
TORSDOF 7
ENDMDL
MODEL 4
REMARK VINA RESULT:      -4.5      1.570      2.177
REMARK  7 active torsions:
REMARK  status: ('A' for Active; 'I' for Inactive)
REMARK    1  A    between atoms: C_2  and  C_3 
REMARK    2  A    between atoms: C_3  and  O_6 
REMARK    3  A    between atoms: C_3  and  C_4 
REMARK    4  A    between atoms: C_7  and  O_6 
REMARK    5  A    between atoms: C_9  and  C_10 
REMARK    6  A    between atoms: N_15  and  C_14 
REMARK    7  A    between atoms: N_20  and  C_19 
REMARK       I    between atoms: C_22  and  N_20 
ROOT
ATOM      1  C   LIG d   1      -2.459  78.294 116.753  0.00  0.00     0.161 C 
ATOM      2  C   LIG d   1      -2.709  79.199 115.709  0.00  0.00     0.016 C 
ATOM      3  C   LIG d   1      -2.195  79.040 114.401  0.00  0.00     0.038 C 
ATOM      4  C   LIG d   1      -1.515  77.877 114.009  0.00  0.00     0.028 C 
ATOM      5  C   LIG d   1      -0.807  77.171 115.160  0.00  0.00    -0.047 C 
ATOM      6  C   LIG d   1      -1.813  76.963 116.315  0.00  0.00     0.091 C 
ENDROOT
BRANCH   1   7
ATOM      7  O   LIG d   1      -3.676  78.043 117.484  0.00  0.00    -0.368 OA
BRANCH   7   8
ATOM      8  C   LIG d   1      -4.893  78.000 116.699  0.00  0.00     0.119 C 
BRANCH   8   9
ATOM      9  C   LIG d   1      -5.984  78.743 117.495  0.00  0.00     0.028 C 
ATOM     10  C   LIG d   1      -5.730  80.258 117.566  0.00  0.00     0.006 C 
ENDBRANCH   8   9
BRANCH   8  11
ATOM     11  C   LIG d   1      -5.408  76.565 116.548  0.00  0.00     0.028 C 
ATOM     12  C   LIG d   1      -5.151  75.985 115.148  0.00  0.00     0.006 C 
ENDBRANCH   8  11
ENDBRANCH   7   8
ENDBRANCH   1   7
BRANCH   6  13
ATOM     13  N   LIG d   1      -1.180  76.354 117.514  0.00  0.00    -0.311 N 
ATOM     14  C   LIG d   1      -1.152  75.042 117.742  0.00  0.00     0.210 C 
ATOM     15  C   LIG d   1      -0.468  74.627 119.048  0.00  0.00     0.109 C 
ATOM     16  O   LIG d   1      -1.600  74.181 116.970  0.00  0.00    -0.276 OA
ATOM     17  H   LIG d   1      -0.765  76.979 118.178  0.00  0.00     0.149 HD
ENDBRANCH   6  13
BRANCH   5  18
ATOM     18  N   LIG d   1      -0.258  75.906 114.637  0.00  0.00     0.381 N 
ATOM     19  H   LIG d   1      -0.096  75.270 115.391  0.00  0.00    -0.090 HD
ATOM     20  H   LIG d   1       0.622  76.095 114.189  0.00  0.00    -0.090 HD
ATOM     21  H   LIG d   1      -0.892  75.504 113.983  0.00  0.00    -0.090 HD
ENDBRANCH   5  18
BRANCH   3  22
ATOM     22  C   LIG d   1      -2.324  80.070 113.482  0.00  0.00     0.382 C 
ATOM     23  O   LIG d   1      -3.361  80.157 112.780  0.00  0.00    -0.241 OA
ATOM     24  O   LIG d   1      -1.399  80.886 113.313  0.00  0.00    -0.241 OA
ENDBRANCH   3  22
TORSDOF 7
ENDMDL
MODEL 5
REMARK VINA RESULT:      -4.4      2.577      5.687
REMARK  7 active torsions:
REMARK  status: ('A' for Active; 'I' for Inactive)
REMARK    1  A    between atoms: C_2  and  C_3 
REMARK    2  A    between atoms: C_3  and  O_6 
REMARK    3  A    between atoms: C_3  and  C_4 
REMARK    4  A    between atoms: C_7  and  O_6 
REMARK    5  A    between atoms: C_9  and  C_10 
REMARK    6  A    between atoms: N_15  and  C_14 
REMARK    7  A    between atoms: N_20  and  C_19 
REMARK       I    between atoms: C_22  and  N_20 
ROOT
ATOM      1  C   LIG d   1      -2.776  76.500 115.266  0.00  0.00     0.161 C 
ATOM      2  C   LIG d   1      -2.676  75.662 116.389  0.00  0.00     0.016 C 
ATOM      3  C   LIG d   1      -1.719  75.845 117.414  0.00  0.00     0.038 C 
ATOM      4  C   LIG d   1      -0.891  76.976 117.461  0.00  0.00     0.028 C 
ATOM      5  C   LIG d   1      -0.612  77.580 116.089  0.00  0.00    -0.047 C 
ATOM      6  C   LIG d   1      -1.955  77.803 115.356  0.00  0.00     0.091 C 
ENDROOT
BRANCH   1   7
ATOM      7  O   LIG d   1      -4.161  76.798 115.002  0.00  0.00    -0.368 OA
BRANCH   7   8
ATOM      8  C   LIG d   1      -5.134  76.030 115.753  0.00  0.00     0.119 C 
BRANCH   8   9
ATOM      9  C   LIG d   1      -5.969  75.223 114.740  0.00  0.00     0.028 C 
ATOM     10  C   LIG d   1      -5.656  75.606 113.284  0.00  0.00     0.006 C 
ENDBRANCH   8   9
BRANCH   8  11
ATOM     11  C   LIG d   1      -6.134  76.944 116.467  0.00  0.00     0.028 C 
ATOM     12  C   LIG d   1      -7.517  76.296 116.636  0.00  0.00     0.006 C 
ENDBRANCH   8  11
ENDBRANCH   7   8
ENDBRANCH   1   7
BRANCH   6  13
ATOM     13  N   LIG d   1      -1.768  78.313 113.973  0.00  0.00    -0.311 N 
ATOM     14  C   LIG d   1      -2.340  79.427 113.519  0.00  0.00     0.210 C 
ATOM     15  C   LIG d   1      -2.032  79.762 112.056  0.00  0.00     0.109 C 
ATOM     16  O   LIG d   1      -3.049  80.185 114.198  0.00  0.00    -0.276 OA
ATOM     17  H   LIG d   1      -1.183  77.776 113.364  0.00  0.00     0.149 HD
ENDBRANCH   6  13
BRANCH   5  18
ATOM     18  N   LIG d   1       0.147  78.828 116.298  0.00  0.00     0.381 N 
ATOM     19  H   LIG d   1       0.023  79.146 117.238  0.00  0.00    -0.090 HD
ATOM     20  H   LIG d   1      -0.210  79.533 115.677  0.00  0.00    -0.090 HD
ATOM     21  H   LIG d   1       1.114  78.674 116.115  0.00  0.00    -0.090 HD
ENDBRANCH   5  18
BRANCH   3  22
ATOM     22  C   LIG d   1      -1.557  74.869 118.386  0.00  0.00     0.382 C 
ATOM     23  O   LIG d   1      -0.420  74.644 118.864  0.00  0.00    -0.241 OA
ATOM     24  O   LIG d   1      -2.527  74.181 118.757  0.00  0.00    -0.241 OA
ENDBRANCH   3  22
TORSDOF 7
ENDMDL
MODEL 6
REMARK VINA RESULT:      -4.3      1.836      4.875
REMARK  7 active torsions:
REMARK  status: ('A' for Active; 'I' for Inactive)
REMARK    1  A    between atoms: C_2  and  C_3 
REMARK    2  A    between atoms: C_3  and  O_6 
REMARK    3  A    between atoms: C_3  and  C_4 
REMARK    4  A    between atoms: C_7  and  O_6 
REMARK    5  A    between atoms: C_9  and  C_10 
REMARK    6  A    between atoms: N_15  and  C_14 
REMARK    7  A    between atoms: N_20  and  C_19 
REMARK       I    between atoms: C_22  and  N_20 
ROOT
ATOM      1  C   LIG d   1      -3.356  77.739 115.348  0.00  0.00     0.161 C 
ATOM      2  C   LIG d   1      -3.851  76.773 116.240  0.00  0.00     0.016 C 
ATOM      3  C   LIG d   1      -3.123  75.624 116.626  0.00  0.00     0.038 C 
ATOM      4  C   LIG d   1      -1.781  75.439 116.261  0.00  0.00     0.028 C 
ATOM      5  C   LIG d   1      -1.408  76.132 114.955  0.00  0.00    -0.047 C 
ATOM      6  C   LIG d   1      -1.852  77.611 115.027  0.00  0.00     0.091 C 
ENDROOT
BRANCH   1   7
ATOM      7  O   LIG d   1      -3.651  79.059 115.844  0.00  0.00    -0.368 OA
BRANCH   7   8
ATOM      8  C   LIG d   1      -3.980  79.153 117.252  0.00  0.00     0.119 C 
BRANCH   8   9
ATOM      9  C   LIG d   1      -5.239  80.032 117.377  0.00  0.00     0.028 C 
ATOM     10  C   LIG d   1      -6.508  79.205 117.643  0.00  0.00     0.006 C 
ENDBRANCH   8   9
BRANCH   8  11
ATOM     11  C   LIG d   1      -2.889  79.894 118.031  0.00  0.00     0.028 C 
ATOM     12  C   LIG d   1      -3.451  80.750 119.176  0.00  0.00     0.006 C 
ENDBRANCH   8  11
ENDBRANCH   7   8
ENDBRANCH   1   7
BRANCH   6  13
ATOM     13  N   LIG d   1      -1.600  78.341 113.757  0.00  0.00    -0.311 N 
ATOM     14  C   LIG d   1      -1.038  79.547 113.703  0.00  0.00     0.210 C 
ATOM     15  C   LIG d   1      -0.888  80.129 112.294  0.00  0.00     0.109 C 
ATOM     16  O   LIG d   1      -0.620  80.177 114.687  0.00  0.00    -0.276 OA
ATOM     17  H   LIG d   1      -1.880  77.889 112.908  0.00  0.00     0.149 HD
ENDBRANCH   6  13
BRANCH   5  18
ATOM     18  N   LIG d   1       0.046  75.973 114.766  0.00  0.00     0.381 N 
ATOM     19  H   LIG d   1       0.430  76.810 114.373  0.00  0.00    -0.090 HD
ATOM     20  H   LIG d   1       0.210  75.219 114.122  0.00  0.00    -0.090 HD
ATOM     21  H   LIG d   1       0.484  75.776 115.638  0.00  0.00    -0.090 HD
ENDBRANCH   5  18
BRANCH   3  22
ATOM     22  C   LIG d   1      -3.751  74.625 117.354  0.00  0.00     0.382 C 
ATOM     23  O   LIG d   1      -4.872  74.195 116.990  0.00  0.00    -0.241 OA
ATOM     24  O   LIG d   1      -3.232  74.180 118.395  0.00  0.00    -0.241 OA
ENDBRANCH   3  22
TORSDOF 7
ENDMDL
MODEL 7
REMARK VINA RESULT:      -4.1      1.968      2.556
REMARK  7 active torsions:
REMARK  status: ('A' for Active; 'I' for Inactive)
REMARK    1  A    between atoms: C_2  and  C_3 
REMARK    2  A    between atoms: C_3  and  O_6 
REMARK    3  A    between atoms: C_3  and  C_4 
REMARK    4  A    between atoms: C_7  and  O_6 
REMARK    5  A    between atoms: C_9  and  C_10 
REMARK    6  A    between atoms: N_15  and  C_14 
REMARK    7  A    between atoms: N_20  and  C_19 
REMARK       I    between atoms: C_22  and  N_20 
ROOT
ATOM      1  C   LIG d   1      -2.654  78.349 116.359  0.00  0.00     0.161 C 
ATOM      2  C   LIG d   1      -2.928  79.180 115.260  0.00  0.00     0.016 C 
ATOM      3  C   LIG d   1      -2.391  78.967 113.970  0.00  0.00     0.038 C 
ATOM      4  C   LIG d   1      -1.657  77.814 113.653  0.00  0.00     0.028 C 
ATOM      5  C   LIG d   1      -0.934  77.208 114.852  0.00  0.00    -0.047 C 
ATOM      6  C   LIG d   1      -1.945  77.024 116.007  0.00  0.00     0.091 C 
ENDROOT
BRANCH   1   7
ATOM      7  O   LIG d   1      -3.868  78.089 117.090  0.00  0.00    -0.368 OA
BRANCH   7   8
ATOM      8  C   LIG d   1      -4.466  76.784 116.890  0.00  0.00     0.119 C 
BRANCH   8   9
ATOM      9  C   LIG d   1      -5.855  77.003 116.261  0.00  0.00     0.028 C 
ATOM     10  C   LIG d   1      -6.179  75.960 115.178  0.00  0.00     0.006 C 
ENDBRANCH   8   9
BRANCH   8  11
ATOM     11  C   LIG d   1      -4.731  76.083 118.225  0.00  0.00     0.028 C 
ATOM     12  C   LIG d   1      -5.855  76.748 119.035  0.00  0.00     0.006 C 
ENDBRANCH   8  11
ENDBRANCH   7   8
ENDBRANCH   1   7
BRANCH   6  13
ATOM     13  N   LIG d   1      -1.303  76.515 117.246  0.00  0.00    -0.311 N 
ATOM     14  C   LIG d   1      -1.192  75.219 117.535  0.00  0.00     0.210 C 
ATOM     15  C   LIG d   1      -0.514  74.911 118.874  0.00  0.00     0.109 C 
ATOM     16  O   LIG d   1      -1.562  74.295 116.795  0.00  0.00    -0.276 OA
ATOM     17  H   LIG d   1      -0.947  77.195 117.889  0.00  0.00     0.149 HD
ENDBRANCH   6  13
BRANCH   5  18
ATOM     18  N   LIG d   1      -0.325  75.940 114.410  0.00  0.00     0.381 N 
ATOM     19  H   LIG d   1       0.648  75.932 114.643  0.00  0.00    -0.090 HD
ATOM     20  H   LIG d   1      -0.411  75.868 113.412  0.00  0.00    -0.090 HD
ATOM     21  H   LIG d   1      -0.784  75.170 114.847  0.00  0.00    -0.090 HD
ENDBRANCH   5  18
BRANCH   3  22
ATOM     22  C   LIG d   1      -2.552  79.934 112.989  0.00  0.00     0.382 C 
ATOM     23  O   LIG d   1      -3.233  80.961 113.228  0.00  0.00    -0.241 OA
ATOM     24  O   LIG d   1      -2.062  79.773 111.855  0.00  0.00    -0.241 OA
ENDBRANCH   3  22
TORSDOF 7
ENDMDL
MODEL 8
REMARK VINA RESULT:      -4.0      1.236      2.040
REMARK  7 active torsions:
REMARK  status: ('A' for Active; 'I' for Inactive)
REMARK    1  A    between atoms: C_2  and  C_3 
REMARK    2  A    between atoms: C_3  and  O_6 
REMARK    3  A    between atoms: C_3  and  C_4 
REMARK    4  A    between atoms: C_7  and  O_6 
REMARK    5  A    between atoms: C_9  and  C_10 
REMARK    6  A    between atoms: N_15  and  C_14 
REMARK    7  A    between atoms: N_20  and  C_19 
REMARK       I    between atoms: C_22  and  N_20 
ROOT
ATOM      1  C   LIG d   1      -2.953  79.070 115.932  0.00  0.00     0.161 C 
ATOM      2  C   LIG d   1      -3.010  79.949 114.837  0.00  0.00     0.016 C 
ATOM      3  C   LIG d   1      -2.358  79.704 113.607  0.00  0.00     0.038 C 
ATOM      4  C   LIG d   1      -1.725  78.482 113.334  0.00  0.00     0.028 C 
ATOM      5  C   LIG d   1      -1.212  77.773 114.584  0.00  0.00    -0.047 C 
ATOM      6  C   LIG d   1      -2.360  77.681 115.615  0.00  0.00     0.091 C 
ENDROOT
BRANCH   1   7
ATOM      7  O   LIG d   1      -4.263  78.934 116.517  0.00  0.00    -0.368 OA
BRANCH   7   8
ATOM      8  C   LIG d   1      -4.331  79.049 117.960  0.00  0.00     0.119 C 
BRANCH   8   9
ATOM      9  C   LIG d   1      -5.781  79.419 118.327  0.00  0.00     0.028 C 
ATOM     10  C   LIG d   1      -6.254  80.705 117.628  0.00  0.00     0.006 C 
ENDBRANCH   8   9
BRANCH   8  11
ATOM     11  C   LIG d   1      -3.475  80.214 118.467  0.00  0.00     0.028 C 
ATOM     12  C   LIG d   1      -2.804  79.916 119.818  0.00  0.00     0.006 C 
ENDBRANCH   8  11
ENDBRANCH   7   8
ENDBRANCH   1   7
BRANCH   6  13
ATOM     13  N   LIG d   1      -1.921  77.076 116.899  0.00  0.00    -0.311 N 
ATOM     14  C   LIG d   1      -0.919  77.560 117.633  0.00  0.00     0.210 C 
ATOM     15  C   LIG d   1      -0.617  76.773 118.912  0.00  0.00     0.109 C 
ATOM     16  O   LIG d   1      -0.274  78.583 117.361  0.00  0.00    -0.276 OA
ATOM     17  H   LIG d   1      -2.410  76.260 117.210  0.00  0.00     0.149 HD
ENDBRANCH   6  13
BRANCH   5  18
ATOM     18  N   LIG d   1      -0.701  76.453 114.169  0.00  0.00     0.381 N 
ATOM     19  H   LIG d   1       0.205  76.302 114.565  0.00  0.00    -0.090 HD
ATOM     20  H   LIG d   1      -0.614  76.438 113.168  0.00  0.00    -0.090 HD
ATOM     21  H   LIG d   1      -1.325  75.736 114.466  0.00  0.00    -0.090 HD
ENDBRANCH   5  18
BRANCH   3  22
ATOM     22  C   LIG d   1      -2.301  80.703 112.648  0.00  0.00     0.382 C 
ATOM     23  O   LIG d   1      -1.504  80.603 111.684  0.00  0.00    -0.241 OA
ATOM     24  O   LIG d   1      -3.005  81.725 112.758  0.00  0.00    -0.241 OA
ENDBRANCH   3  22
TORSDOF 7
ENDMDL
MODEL 9
REMARK VINA RESULT:      -3.8      3.558      5.910
REMARK  7 active torsions:
REMARK  status: ('A' for Active; 'I' for Inactive)
REMARK    1  A    between atoms: C_2  and  C_3 
REMARK    2  A    between atoms: C_3  and  O_6 
REMARK    3  A    between atoms: C_3  and  C_4 
REMARK    4  A    between atoms: C_7  and  O_6 
REMARK    5  A    between atoms: C_9  and  C_10 
REMARK    6  A    between atoms: N_15  and  C_14 
REMARK    7  A    between atoms: N_20  and  C_19 
REMARK       I    between atoms: C_22  and  N_20 
ROOT
ATOM      1  C   LIG d   1      -6.010  77.827 117.177  0.00  0.00     0.161 C 
ATOM      2  C   LIG d   1      -4.807  77.866 116.453  0.00  0.00     0.016 C 
ATOM      3  C   LIG d   1      -3.820  78.861 116.637  0.00  0.00     0.038 C 
ATOM      4  C   LIG d   1      -3.903  79.805 117.671  0.00  0.00     0.028 C 
ATOM      5  C   LIG d   1      -5.334  80.112 118.098  0.00  0.00    -0.047 C 
ATOM      6  C   LIG d   1      -6.068  78.783 118.387  0.00  0.00     0.091 C 
ENDROOT
BRANCH   1   7
ATOM      7  O   LIG d   1      -6.286  76.475 117.594  0.00  0.00    -0.368 OA
BRANCH   7   8
ATOM      8  C   LIG d   1      -7.071  75.673 116.678  0.00  0.00     0.119 C 
BRANCH   8   9
ATOM      9  C   LIG d   1      -8.253  75.085 117.473  0.00  0.00     0.028 C 
ATOM     10  C   LIG d   1      -9.386  76.103 117.680  0.00  0.00     0.006 C 
ENDBRANCH   8   9
BRANCH   8  11
ATOM     11  C   LIG d   1      -6.278  74.463 116.175  0.00  0.00     0.028 C 
ATOM     12  C   LIG d   1      -5.935  74.555 114.680  0.00  0.00     0.006 C 
ENDBRANCH   8  11
ENDBRANCH   7   8
ENDBRANCH   1   7
BRANCH   6  13
ATOM     13  N   LIG d   1      -7.499  78.989 118.730  0.00  0.00    -0.311 N 
ATOM     14  C   LIG d   1      -8.254  79.941 118.185  0.00  0.00     0.210 C 
ATOM     15  C   LIG d   1      -9.698  79.992 118.693  0.00  0.00     0.109 C 
ATOM     16  O   LIG d   1      -7.874  80.728 117.305  0.00  0.00    -0.276 OA
ATOM     17  H   LIG d   1      -7.898  78.374 119.412  0.00  0.00     0.149 HD
ENDBRANCH   6  13
BRANCH   5  18
ATOM     18  N   LIG d   1      -5.268  81.003 119.272  0.00  0.00     0.381 N 
ATOM     19  H   LIG d   1      -6.058  81.617 119.276  0.00  0.00    -0.090 HD
ATOM     20  H   LIG d   1      -4.435  81.562 119.209  0.00  0.00    -0.090 HD
ATOM     21  H   LIG d   1      -5.253  80.463 120.109  0.00  0.00    -0.090 HD
ENDBRANCH   5  18
BRANCH   3  22
ATOM     22  C   LIG d   1      -2.754  78.943 115.754  0.00  0.00     0.382 C 
ATOM     23  O   LIG d   1      -1.604  79.207 116.182  0.00  0.00    -0.241 OA
ATOM     24  O   LIG d   1      -2.935  78.801 114.530  0.00  0.00    -0.241 OA
ENDBRANCH   3  22
TORSDOF 7
ENDMDL
