MODEL 1
REMARK VINA RESULT:      -5.1      0.000      0.000
REMARK  7 active torsions:
REMARK  status: ('A' for Active; 'I' for Inactive)
REMARK    1  A    between atoms: C_2  and  C_3 
REMARK    2  A    between atoms: C_3  and  O_6 
REMARK    3  A    between atoms: C_3  and  C_4 
REMARK    4  A    between atoms: C_7  and  O_6 
REMARK    5  A    between atoms: C_9  and  C_10 
REMARK    6  A    between atoms: N_15  and  C_14 
REMARK    7  A    between atoms: N_20  and  C_19 
REMARK       I    between atoms: C_22  and  N_20 
ROOT
ATOM      1  C   LIG d   1      -2.762  80.101 114.682  0.00  0.00     0.161 C 
ATOM      2  C   LIG d   1      -2.294  81.219 113.970  0.00  0.00     0.016 C 
ATOM      3  C   LIG d   1      -1.709  81.134 112.686  0.00  0.00     0.038 C 
ATOM      4  C   LIG d   1      -1.690  79.935 111.958  0.00  0.00     0.028 C 
ATOM      5  C   LIG d   1      -1.693  78.691 112.839  0.00  0.00    -0.047 C 
ATOM      6  C   LIG d   1      -2.851  78.800 113.858  0.00  0.00     0.091 C 
ENDROOT
BRANCH   1   7
ATOM      7  O   LIG d   1      -4.037  80.403 115.281  0.00  0.00    -0.368 OA
BRANCH   7   8
ATOM      8  C   LIG d   1      -4.087  80.363 116.729  0.00  0.00     0.119 C 
BRANCH   8   9
ATOM      9  C   LIG d   1      -5.534  80.020 117.133  0.00  0.00     0.028 C 
ATOM     10  C   LIG d   1      -5.874  78.538 116.901  0.00  0.00     0.006 C 
ENDBRANCH   8   9
BRANCH   8  11
ATOM     11  C   LIG d   1      -3.812  81.742 117.335  0.00  0.00     0.028 C 
ATOM     12  C   LIG d   1      -2.609  81.744 118.291  0.00  0.00     0.006 C 
ENDBRANCH   8  11
ENDBRANCH   7   8
ENDBRANCH   1   7
BRANCH   6  13
ATOM     13  N   LIG d   1      -2.874  77.663 114.814  0.00  0.00    -0.311 N 
ATOM     14  C   LIG d   1      -3.640  76.585 114.653  0.00  0.00     0.210 C 
ATOM     15  C   LIG d   1      -3.526  75.539 115.766  0.00  0.00     0.109 C 
ATOM     16  O   LIG d   1      -4.378  76.381 113.678  0.00  0.00    -0.276 OA
ATOM     17  H   LIG d   1      -2.281  77.731 115.618  0.00  0.00     0.149 HD
ENDBRANCH   6  13
BRANCH   5  18
ATOM     18  N   LIG d   1      -1.812  77.517 111.953  0.00  0.00     0.381 N 
ATOM     19  H   LIG d   1      -1.008  77.458 111.360  0.00  0.00    -0.090 HD
ATOM     20  H   LIG d   1      -2.625  77.628 111.373  0.00  0.00    -0.090 HD
ATOM     21  H   LIG d   1      -1.894  76.686 112.497  0.00  0.00    -0.090 HD
ENDBRANCH   5  18
BRANCH   3  22
ATOM     22  C   LIG d   1      -1.099  82.250 112.133  0.00  0.00     0.382 C 
ATOM     23  O   LIG d   1      -0.986  83.301 112.809  0.00  0.00    -0.241 OA
ATOM     24  O   LIG d   1      -0.700  82.233 110.954  0.00  0.00    -0.241 OA
ENDBRANCH   3  22
TORSDOF 7
ENDMDL
MODEL 2
REMARK VINA RESULT:      -4.9      3.944      6.970
REMARK  7 active torsions:
REMARK  status: ('A' for Active; 'I' for Inactive)
REMARK    1  A    between atoms: C_2  and  C_3 
REMARK    2  A    between atoms: C_3  and  O_6 
REMARK    3  A    between atoms: C_3  and  C_4 
REMARK    4  A    between atoms: C_7  and  O_6 
REMARK    5  A    between atoms: C_9  and  C_10 
REMARK    6  A    between atoms: N_15  and  C_14 
REMARK    7  A    between atoms: N_20  and  C_19 
REMARK       I    between atoms: C_22  and  N_20 
ROOT
ATOM      1  C   LIG d   1      -7.013  77.782 117.332  0.00  0.00     0.161 C 
ATOM      2  C   LIG d   1      -8.173  78.513 117.640  0.00  0.00     0.016 C 
ATOM      3  C   LIG d   1      -8.209  79.926 117.698  0.00  0.00     0.038 C 
ATOM      4  C   LIG d   1      -7.118  80.713 117.303  0.00  0.00     0.028 C 
ATOM      5  C   LIG d   1      -5.773  80.012 117.470  0.00  0.00    -0.047 C 
ATOM      6  C   LIG d   1      -5.841  78.627 116.789  0.00  0.00     0.091 C 
ENDROOT
BRANCH   1   7
ATOM      7  O   LIG d   1      -7.335  76.721 116.411  0.00  0.00    -0.368 OA
BRANCH   7   8
ATOM      8  C   LIG d   1      -6.994  75.380 116.840  0.00  0.00     0.119 C 
BRANCH   8   9
ATOM      9  C   LIG d   1      -6.247  74.697 115.678  0.00  0.00     0.028 C 
ATOM     10  C   LIG d   1      -6.304  75.521 114.380  0.00  0.00     0.006 C 
ENDBRANCH   8   9
BRANCH   8  11
ATOM     11  C   LIG d   1      -8.249  74.532 117.070  0.00  0.00     0.028 C 
ATOM     12  C   LIG d   1      -9.523  75.194 116.522  0.00  0.00     0.006 C 
ENDBRANCH   8  11
ENDBRANCH   7   8
ENDBRANCH   1   7
BRANCH   6  13
ATOM     13  N   LIG d   1      -4.595  77.840 116.978  0.00  0.00    -0.311 N 
ATOM     14  C   LIG d   1      -3.728  77.592 115.997  0.00  0.00     0.210 C 
ATOM     15  C   LIG d   1      -2.518  76.745 116.403  0.00  0.00     0.109 C 
ATOM     16  O   LIG d   1      -3.830  78.021 114.838  0.00  0.00    -0.276 OA
ATOM     17  H   LIG d   1      -4.417  77.481 117.895  0.00  0.00     0.149 HD
ENDBRANCH   6  13
BRANCH   5  18
ATOM     18  N   LIG d   1      -4.738  80.891 116.893  0.00  0.00     0.381 N 
ATOM     19  H   LIG d   1      -4.353  81.475 117.607  0.00  0.00    -0.090 HD
ATOM     20  H   LIG d   1      -5.162  81.480 116.198  0.00  0.00    -0.090 HD
ATOM     21  H   LIG d   1      -4.018  80.341 116.478  0.00  0.00    -0.090 HD
ENDBRANCH   5  18
BRANCH   3  22
ATOM     22  C   LIG d   1      -9.335  80.564 118.196  0.00  0.00     0.382 C 
ATOM     23  O   LIG d   1      -9.663  81.692 117.754  0.00  0.00    -0.241 OA
ATOM     24  O   LIG d   1     -10.003  80.046 119.111  0.00  0.00    -0.241 OA
ENDBRANCH   3  22
TORSDOF 7
ENDMDL
MODEL 3
REMARK VINA RESULT:      -4.7      1.819      2.749
REMARK  7 active torsions:
REMARK  status: ('A' for Active; 'I' for Inactive)
REMARK    1  A    between atoms: C_2  and  C_3 
REMARK    2  A    between atoms: C_3  and  O_6 
REMARK    3  A    between atoms: C_3  and  C_4 
REMARK    4  A    between atoms: C_7  and  O_6 
REMARK    5  A    between atoms: C_9  and  C_10 
REMARK    6  A    between atoms: N_15  and  C_14 
REMARK    7  A    between atoms: N_20  and  C_19 
REMARK       I    between atoms: C_22  and  N_20 
ROOT
ATOM      1  C   LIG d   1      -0.824  80.876 114.826  0.00  0.00     0.161 C 
ATOM      2  C   LIG d   1      -0.655  82.195 114.372  0.00  0.00     0.016 C 
ATOM      3  C   LIG d   1      -0.663  82.554 113.004  0.00  0.00     0.038 C 
ATOM      4  C   LIG d   1      -0.994  81.634 111.998  0.00  0.00     0.028 C 
ATOM      5  C   LIG d   1      -0.675  80.189 112.370  0.00  0.00    -0.047 C 
ATOM      6  C   LIG d   1      -1.297  79.877 113.750  0.00  0.00     0.091 C 
ENDROOT
BRANCH   1   7
ATOM      7  O   LIG d   1      -1.722  80.860 115.954  0.00  0.00    -0.368 OA
BRANCH   7   8
ATOM      8  C   LIG d   1      -2.229  82.147 116.385  0.00  0.00     0.119 C 
BRANCH   8   9
ATOM      9  C   LIG d   1      -2.057  82.224 117.914  0.00  0.00     0.028 C 
ATOM     10  C   LIG d   1      -0.658  82.714 118.324  0.00  0.00     0.006 C 
ENDBRANCH   8   9
BRANCH   8  11
ATOM     11  C   LIG d   1      -3.736  82.263 116.139  0.00  0.00     0.028 C 
ATOM     12  C   LIG d   1      -4.541  81.164 116.850  0.00  0.00     0.006 C 
ENDBRANCH   8  11
ENDBRANCH   7   8
ENDBRANCH   1   7
BRANCH   6  13
ATOM     13  N   LIG d   1      -0.962  78.510 114.227  0.00  0.00    -0.311 N 
ATOM     14  C   LIG d   1      -1.715  77.441 113.976  0.00  0.00     0.210 C 
ATOM     15  C   LIG d   1      -1.198  76.130 114.578  0.00  0.00     0.109 C 
ATOM     16  O   LIG d   1      -2.745  77.447 113.286  0.00  0.00    -0.276 OA
ATOM     17  H   LIG d   1      -0.125  78.408 114.768  0.00  0.00     0.149 HD
ENDBRANCH   6  13
BRANCH   5  18
ATOM     18  N   LIG d   1      -1.196  79.327 111.292  0.00  0.00     0.381 N 
ATOM     19  H   LIG d   1      -0.621  78.513 111.203  0.00  0.00    -0.090 HD
ATOM     20  H   LIG d   1      -1.162  79.834 110.425  0.00  0.00    -0.090 HD
ATOM     21  H   LIG d   1      -2.134  79.059 111.493  0.00  0.00    -0.090 HD
ENDBRANCH   5  18
BRANCH   3  22
ATOM     22  C   LIG d   1      -0.298  83.838 112.629  0.00  0.00     0.382 C 
ATOM     23  O   LIG d   1      -0.247  84.144 111.413  0.00  0.00    -0.241 OA
ATOM     24  O   LIG d   1       0.023  84.680 113.488  0.00  0.00    -0.241 OA
ENDBRANCH   3  22
TORSDOF 7
ENDMDL
MODEL 4
REMARK VINA RESULT:      -4.7      3.169      7.233
REMARK  7 active torsions:
REMARK  status: ('A' for Active; 'I' for Inactive)
REMARK    1  A    between atoms: C_2  and  C_3 
REMARK    2  A    between atoms: C_3  and  O_6 
REMARK    3  A    between atoms: C_3  and  C_4 
REMARK    4  A    between atoms: C_7  and  O_6 
REMARK    5  A    between atoms: C_9  and  C_10 
REMARK    6  A    between atoms: N_15  and  C_14 
REMARK    7  A    between atoms: N_20  and  C_19 
REMARK       I    between atoms: C_22  and  N_20 
ROOT
ATOM      1  C   LIG d   1      -5.464  78.704 117.016  0.00  0.00     0.161 C 
ATOM      2  C   LIG d   1      -6.614  77.903 117.103  0.00  0.00     0.016 C 
ATOM      3  C   LIG d   1      -7.877  78.397 117.503  0.00  0.00     0.038 C 
ATOM      4  C   LIG d   1      -8.110  79.767 117.699  0.00  0.00     0.028 C 
ATOM      5  C   LIG d   1      -6.863  80.540 118.112  0.00  0.00    -0.047 C 
ATOM      6  C   LIG d   1      -5.723  80.222 117.118  0.00  0.00     0.091 C 
ENDROOT
BRANCH   1   7
ATOM      7  O   LIG d   1      -4.747  78.399 115.803  0.00  0.00    -0.368 OA
BRANCH   7   8
ATOM      8  C   LIG d   1      -3.917  77.212 115.835  0.00  0.00     0.119 C 
BRANCH   8   9
ATOM      9  C   LIG d   1      -2.449  77.675 115.914  0.00  0.00     0.028 C 
ATOM     10  C   LIG d   1      -2.159  78.867 114.986  0.00  0.00     0.006 C 
ENDBRANCH   8   9
BRANCH   8  11
ATOM     11  C   LIG d   1      -4.023  76.423 114.527  0.00  0.00     0.028 C 
ATOM     12  C   LIG d   1      -5.328  75.618 114.420  0.00  0.00     0.006 C 
ENDBRANCH   8  11
ENDBRANCH   7   8
ENDBRANCH   1   7
BRANCH   6  13
ATOM     13  N   LIG d   1      -4.442  80.873 117.497  0.00  0.00    -0.311 N 
ATOM     14  C   LIG d   1      -3.758  81.676 116.684  0.00  0.00     0.210 C 
ATOM     15  C   LIG d   1      -2.452  82.226 117.266  0.00  0.00     0.109 C 
ATOM     16  O   LIG d   1      -4.126  82.012 115.548  0.00  0.00    -0.276 OA
ATOM     17  H   LIG d   1      -4.086  80.680 118.413  0.00  0.00     0.149 HD
ENDBRANCH   6  13
BRANCH   5  18
ATOM     18  N   LIG d   1      -7.217  81.971 118.147  0.00  0.00     0.381 N 
ATOM     19  H   LIG d   1      -8.045  82.102 118.693  0.00  0.00    -0.090 HD
ATOM     20  H   LIG d   1      -7.404  82.283 117.210  0.00  0.00    -0.090 HD
ATOM     21  H   LIG d   1      -6.467  82.499 118.537  0.00  0.00    -0.090 HD
ENDBRANCH   5  18
BRANCH   3  22
ATOM     22  C   LIG d   1      -8.915  77.511 117.750  0.00  0.00     0.382 C 
ATOM     23  O   LIG d   1      -8.715  76.275 117.675  0.00  0.00    -0.241 OA
ATOM     24  O   LIG d   1     -10.059  77.932 118.004  0.00  0.00    -0.241 OA
ENDBRANCH   3  22
TORSDOF 7
ENDMDL
MODEL 5
REMARK VINA RESULT:      -4.6      3.204      6.848
REMARK  7 active torsions:
REMARK  status: ('A' for Active; 'I' for Inactive)
REMARK    1  A    between atoms: C_2  and  C_3 
REMARK    2  A    between atoms: C_3  and  O_6 
REMARK    3  A    between atoms: C_3  and  C_4 
REMARK    4  A    between atoms: C_7  and  O_6 
REMARK    5  A    between atoms: C_9  and  C_10 
REMARK    6  A    between atoms: N_15  and  C_14 
REMARK    7  A    between atoms: N_20  and  C_19 
REMARK       I    between atoms: C_22  and  N_20 
ROOT
ATOM      1  C   LIG d   1      -6.136  77.875 116.862  0.00  0.00     0.161 C 
ATOM      2  C   LIG d   1      -7.465  77.972 117.308  0.00  0.00     0.016 C 
ATOM      3  C   LIG d   1      -8.073  79.193 117.681  0.00  0.00     0.038 C 
ATOM      4  C   LIG d   1      -7.437  80.428 117.488  0.00  0.00     0.028 C 
ATOM      5  C   LIG d   1      -5.915  80.336 117.514  0.00  0.00    -0.047 C 
ATOM      6  C   LIG d   1      -5.462  79.225 116.539  0.00  0.00     0.091 C 
ENDROOT
BRANCH   1   7
ATOM      7  O   LIG d   1      -6.067  76.996 115.722  0.00  0.00    -0.368 OA
BRANCH   7   8
ATOM      8  C   LIG d   1      -5.307  75.776 115.904  0.00  0.00     0.119 C 
BRANCH   8   9
ATOM      9  C   LIG d   1      -6.260  74.593 115.645  0.00  0.00     0.028 C 
ATOM     10  C   LIG d   1      -7.043  74.184 116.905  0.00  0.00     0.006 C 
ENDBRANCH   8   9
BRANCH   8  11
ATOM     11  C   LIG d   1      -4.848  75.616 117.357  0.00  0.00     0.028 C 
ATOM     12  C   LIG d   1      -3.330  75.409 117.483  0.00  0.00     0.006 C 
ENDBRANCH   8  11
ENDBRANCH   7   8
ENDBRANCH   1   7
BRANCH   6  13
ATOM     13  N   LIG d   1      -3.992  79.012 116.566  0.00  0.00    -0.311 N 
ATOM     14  C   LIG d   1      -3.163  79.498 115.643  0.00  0.00     0.210 C 
ATOM     15  C   LIG d   1      -1.687  79.144 115.849  0.00  0.00     0.109 C 
ATOM     16  O   LIG d   1      -3.507  80.215 114.692  0.00  0.00    -0.276 OA
ATOM     17  H   LIG d   1      -3.624  78.467 117.321  0.00  0.00     0.149 HD
ENDBRANCH   6  13
BRANCH   5  18
ATOM     18  N   LIG d   1      -5.382  81.666 117.164  0.00  0.00     0.381 N 
ATOM     19  H   LIG d   1      -5.474  81.819 116.179  0.00  0.00    -0.090 HD
ATOM     20  H   LIG d   1      -4.405  81.696 117.397  0.00  0.00    -0.090 HD
ATOM     21  H   LIG d   1      -5.873  82.373 117.665  0.00  0.00    -0.090 HD
ENDBRANCH   5  18
BRANCH   3  22
ATOM     22  C   LIG d   1      -9.318  79.182 118.292  0.00  0.00     0.382 C 
ATOM     23  O   LIG d   1     -10.060  78.175 118.185  0.00  0.00    -0.241 OA
ATOM     24  O   LIG d   1      -9.727  80.182 118.911  0.00  0.00    -0.241 OA
ENDBRANCH   3  22
TORSDOF 7
ENDMDL
MODEL 6
REMARK VINA RESULT:      -4.4      4.509      6.701
REMARK  7 active torsions:
REMARK  status: ('A' for Active; 'I' for Inactive)
REMARK    1  A    between atoms: C_2  and  C_3 
REMARK    2  A    between atoms: C_3  and  O_6 
REMARK    3  A    between atoms: C_3  and  C_4 
REMARK    4  A    between atoms: C_7  and  O_6 
REMARK    5  A    between atoms: C_9  and  C_10 
REMARK    6  A    between atoms: N_15  and  C_14 
REMARK    7  A    between atoms: N_20  and  C_19 
REMARK       I    between atoms: C_22  and  N_20 
ROOT
ATOM      1  C   LIG d   1      -6.991  76.975 117.332  0.00  0.00     0.161 C 
ATOM      2  C   LIG d   1      -6.862  76.184 116.178  0.00  0.00     0.016 C 
ATOM      3  C   LIG d   1      -5.745  76.246 115.313  0.00  0.00     0.038 C 
ATOM      4  C   LIG d   1      -4.605  77.000 115.627  0.00  0.00     0.028 C 
ATOM      5  C   LIG d   1      -4.900  78.200 116.521  0.00  0.00    -0.047 C 
ATOM      6  C   LIG d   1      -5.707  77.723 117.750  0.00  0.00     0.091 C 
ENDROOT
BRANCH   1   7
ATOM      7  O   LIG d   1      -7.480  76.172 118.423  0.00  0.00    -0.368 OA
BRANCH   7   8
ATOM      8  C   LIG d   1      -8.818  76.475 118.888  0.00  0.00     0.119 C 
BRANCH   8   9
ATOM      9  C   LIG d   1      -9.674  75.208 118.696  0.00  0.00     0.028 C 
ATOM     10  C   LIG d   1     -10.060  74.979 117.225  0.00  0.00     0.006 C 
ENDBRANCH   8   9
BRANCH   8  11
ATOM     11  C   LIG d   1      -9.481  77.548 118.019  0.00  0.00     0.028 C 
ATOM     12  C   LIG d   1     -10.060  78.709 118.842  0.00  0.00     0.006 C 
ENDBRANCH   8  11
ENDBRANCH   7   8
ENDBRANCH   1   7
BRANCH   6  13
ATOM     13  N   LIG d   1      -6.110  78.847 118.634  0.00  0.00    -0.311 N 
ATOM     14  C   LIG d   1      -6.560  80.015 118.178  0.00  0.00     0.210 C 
ATOM     15  C   LIG d   1      -6.900  81.045 119.259  0.00  0.00     0.109 C 
ATOM     16  O   LIG d   1      -6.739  80.284 116.980  0.00  0.00    -0.276 OA
ATOM     17  H   LIG d   1      -6.026  78.704 119.622  0.00  0.00     0.149 HD
ENDBRANCH   6  13
BRANCH   5  18
ATOM     18  N   LIG d   1      -3.608  78.815 116.881  0.00  0.00     0.381 N 
ATOM     19  H   LIG d   1      -3.761  79.581 117.507  0.00  0.00    -0.090 HD
ATOM     20  H   LIG d   1      -3.174  79.171 116.048  0.00  0.00    -0.090 HD
ATOM     21  H   LIG d   1      -3.016  78.139 117.311  0.00  0.00    -0.090 HD
ENDBRANCH   5  18
BRANCH   3  22
ATOM     22  C   LIG d   1      -5.780  75.578 114.098  0.00  0.00     0.382 C 
ATOM     23  O   LIG d   1      -6.479  76.024 113.157  0.00  0.00    -0.241 OA
ATOM     24  O   LIG d   1      -5.155  74.511 113.946  0.00  0.00    -0.241 OA
ENDBRANCH   3  22
TORSDOF 7
ENDMDL
MODEL 7
REMARK VINA RESULT:      -4.4      2.819      6.664
REMARK  7 active torsions:
REMARK  status: ('A' for Active; 'I' for Inactive)
REMARK    1  A    between atoms: C_2  and  C_3 
REMARK    2  A    between atoms: C_3  and  O_6 
REMARK    3  A    between atoms: C_3  and  C_4 
REMARK    4  A    between atoms: C_7  and  O_6 
REMARK    5  A    between atoms: C_9  and  C_10 
REMARK    6  A    between atoms: N_15  and  C_14 
REMARK    7  A    between atoms: N_20  and  C_19 
REMARK       I    between atoms: C_22  and  N_20 
ROOT
ATOM      1  C   LIG d   1      -4.415  79.232 116.332  0.00  0.00     0.161 C 
ATOM      2  C   LIG d   1      -5.361  78.207 116.500  0.00  0.00     0.016 C 
ATOM      3  C   LIG d   1      -6.598  78.391 117.160  0.00  0.00     0.038 C 
ATOM      4  C   LIG d   1      -7.040  79.659 117.566  0.00  0.00     0.028 C 
ATOM      5  C   LIG d   1      -5.903  80.629 117.869  0.00  0.00    -0.047 C 
ATOM      6  C   LIG d   1      -4.927  80.647 116.670  0.00  0.00     0.091 C 
ENDROOT
BRANCH   1   7
ATOM      7  O   LIG d   1      -3.890  79.196 114.990  0.00  0.00    -0.368 OA
BRANCH   7   8
ATOM      8  C   LIG d   1      -2.632  78.498 114.816  0.00  0.00     0.119 C 
BRANCH   8   9
ATOM      9  C   LIG d   1      -1.799  78.719 116.093  0.00  0.00     0.028 C 
ATOM     10  C   LIG d   1      -0.582  79.627 115.850  0.00  0.00     0.006 C 
ENDBRANCH   8   9
BRANCH   8  11
ATOM     11  C   LIG d   1      -1.806  79.111 113.681  0.00  0.00     0.028 C 
ATOM     12  C   LIG d   1      -2.632  80.042 112.779  0.00  0.00     0.006 C 
ENDBRANCH   8  11
ENDBRANCH   7   8
ENDBRANCH   1   7
BRANCH   6  13
ATOM     13  N   LIG d   1      -3.741  81.508 116.918  0.00  0.00    -0.311 N 
ATOM     14  C   LIG d   1      -3.281  82.395 116.038  0.00  0.00     0.210 C 
ATOM     15  C   LIG d   1      -2.034  83.164 116.485  0.00  0.00     0.109 C 
ATOM     16  O   LIG d   1      -3.807  82.641 114.942  0.00  0.00    -0.276 OA
ATOM     17  H   LIG d   1      -3.272  81.396 117.796  0.00  0.00     0.149 HD
ENDBRANCH   6  13
BRANCH   5  18
ATOM     18  N   LIG d   1      -6.504  81.948 118.146  0.00  0.00     0.381 N 
ATOM     19  H   LIG d   1      -7.227  81.853 118.830  0.00  0.00    -0.090 HD
ATOM     20  H   LIG d   1      -6.914  82.302 117.300  0.00  0.00    -0.090 HD
ATOM     21  H   LIG d   1      -5.805  82.578 118.474  0.00  0.00    -0.090 HD
ENDBRANCH   5  18
BRANCH   3  22
ATOM     22  C   LIG d   1      -7.390  77.292 117.455  0.00  0.00     0.382 C 
ATOM     23  O   LIG d   1      -6.858  76.179 117.681  0.00  0.00    -0.241 OA
ATOM     24  O   LIG d   1      -8.632  77.389 117.453  0.00  0.00    -0.241 OA
ENDBRANCH   3  22
TORSDOF 7
ENDMDL
MODEL 8
REMARK VINA RESULT:      -4.4      4.547      5.885
REMARK  7 active torsions:
REMARK  status: ('A' for Active; 'I' for Inactive)
REMARK    1  A    between atoms: C_2  and  C_3 
REMARK    2  A    between atoms: C_3  and  O_6 
REMARK    3  A    between atoms: C_3  and  C_4 
REMARK    4  A    between atoms: C_7  and  O_6 
REMARK    5  A    between atoms: C_9  and  C_10 
REMARK    6  A    between atoms: N_15  and  C_14 
REMARK    7  A    between atoms: N_20  and  C_19 
REMARK       I    between atoms: C_22  and  N_20 
ROOT
ATOM      1  C   LIG d   1      -5.062  75.025 117.351  0.00  0.00     0.161 C 
ATOM      2  C   LIG d   1      -3.729  75.313 117.014  0.00  0.00     0.016 C 
ATOM      3  C   LIG d   1      -3.316  75.672 115.711  0.00  0.00     0.038 C 
ATOM      4  C   LIG d   1      -4.238  75.916 114.682  0.00  0.00     0.028 C 
ATOM      5  C   LIG d   1      -5.545  75.148 114.845  0.00  0.00    -0.047 C 
ATOM      6  C   LIG d   1      -6.097  75.394 116.268  0.00  0.00     0.091 C 
ENDROOT
BRANCH   1   7
ATOM      7  O   LIG d   1      -5.397  75.658 118.602  0.00  0.00    -0.368 OA
BRANCH   7   8
ATOM      8  C   LIG d   1      -5.655  77.083 118.545  0.00  0.00     0.119 C 
BRANCH   8   9
ATOM      9  C   LIG d   1      -4.524  77.789 119.317  0.00  0.00     0.028 C 
ATOM     10  C   LIG d   1      -3.699  78.728 118.420  0.00  0.00     0.006 C 
ENDBRANCH   8   9
BRANCH   8  11
ATOM     11  C   LIG d   1      -6.943  77.446 119.292  0.00  0.00     0.028 C 
ATOM     12  C   LIG d   1      -7.522  78.801 118.855  0.00  0.00     0.006 C 
ENDBRANCH   8  11
ENDBRANCH   7   8
ENDBRANCH   1   7
BRANCH   6  13
ATOM     13  N   LIG d   1      -7.331  74.612 116.541  0.00  0.00    -0.311 N 
ATOM     14  C   LIG d   1      -8.531  75.168 116.698  0.00  0.00     0.210 C 
ATOM     15  C   LIG d   1      -9.667  74.182 116.991  0.00  0.00     0.109 C 
ATOM     16  O   LIG d   1      -8.769  76.380 116.590  0.00  0.00    -0.276 OA
ATOM     17  H   LIG d   1      -7.235  73.618 116.613  0.00  0.00     0.149 HD
ENDBRANCH   6  13
BRANCH   5  18
ATOM     18  N   LIG d   1      -6.464  75.600 113.783  0.00  0.00     0.381 N 
ATOM     19  H   LIG d   1      -5.939  75.895 112.984  0.00  0.00    -0.090 HD
ATOM     20  H   LIG d   1      -6.990  76.386 114.122  0.00  0.00    -0.090 HD
ATOM     21  H   LIG d   1      -7.082  74.861 113.530  0.00  0.00    -0.090 HD
ENDBRANCH   5  18
BRANCH   3  22
ATOM     22  C   LIG d   1      -1.964  75.751 115.415  0.00  0.00     0.382 C 
ATOM     23  O   LIG d   1      -1.591  76.111 114.272  0.00  0.00    -0.241 OA
ATOM     24  O   LIG d   1      -1.112  75.425 116.264  0.00  0.00    -0.241 OA
ENDBRANCH   3  22
TORSDOF 7
ENDMDL
MODEL 9
REMARK VINA RESULT:      -4.3      2.521      3.770
REMARK  7 active torsions:
REMARK  status: ('A' for Active; 'I' for Inactive)
REMARK    1  A    between atoms: C_2  and  C_3 
REMARK    2  A    between atoms: C_3  and  O_6 
REMARK    3  A    between atoms: C_3  and  C_4 
REMARK    4  A    between atoms: C_7  and  O_6 
REMARK    5  A    between atoms: C_9  and  C_10 
REMARK    6  A    between atoms: N_15  and  C_14 
REMARK    7  A    between atoms: N_20  and  C_19 
REMARK       I    between atoms: C_22  and  N_20 
ROOT
ATOM      1  C   LIG d   1      -2.992  77.806 115.030  0.00  0.00     0.161 C 
ATOM      2  C   LIG d   1      -3.135  78.785 114.034  0.00  0.00     0.016 C 
ATOM      3  C   LIG d   1      -2.176  79.795 113.792  0.00  0.00     0.038 C 
ATOM      4  C   LIG d   1      -0.929  79.803 114.435  0.00  0.00     0.028 C 
ATOM      5  C   LIG d   1      -0.949  79.132 115.804  0.00  0.00    -0.047 C 
ATOM      6  C   LIG d   1      -1.588  77.731 115.667  0.00  0.00     0.091 C 
ENDROOT
BRANCH   1   7
ATOM      7  O   LIG d   1      -3.374  76.518 114.508  0.00  0.00    -0.368 OA
BRANCH   7   8
ATOM      8  C   LIG d   1      -4.337  75.772 115.292  0.00  0.00     0.119 C 
BRANCH   8   9
ATOM      9  C   LIG d   1      -5.372  75.181 114.316  0.00  0.00     0.028 C 
ATOM     10  C   LIG d   1      -6.768  75.801 114.495  0.00  0.00     0.006 C 
ENDBRANCH   8   9
BRANCH   8  11
ATOM     11  C   LIG d   1      -5.134  76.694 116.220  0.00  0.00     0.028 C 
ATOM     12  C   LIG d   1      -5.162  76.197 117.674  0.00  0.00     0.006 C 
ENDBRANCH   8  11
ENDBRANCH   7   8
ENDBRANCH   1   7
BRANCH   6  13
ATOM     13  N   LIG d   1      -1.724  77.039 116.975  0.00  0.00    -0.311 N 
ATOM     14  C   LIG d   1      -1.326  75.786 117.186  0.00  0.00     0.210 C 
ATOM     15  C   LIG d   1      -1.576  75.258 118.602  0.00  0.00     0.109 C 
ATOM     16  O   LIG d   1      -0.760  75.072 116.344  0.00  0.00    -0.276 OA
ATOM     17  H   LIG d   1      -2.144  77.555 117.723  0.00  0.00     0.149 HD
ENDBRANCH   6  13
BRANCH   5  18
ATOM     18  N   LIG d   1       0.439  79.088 116.300  0.00  0.00     0.381 N 
ATOM     19  H   LIG d   1       0.516  79.625 117.141  0.00  0.00    -0.090 HD
ATOM     20  H   LIG d   1       1.044  79.496 115.609  0.00  0.00    -0.090 HD
ATOM     21  H   LIG d   1       0.710  78.145 116.473  0.00  0.00    -0.090 HD
ENDBRANCH   5  18
BRANCH   3  22
ATOM     22  C   LIG d   1      -2.477  80.836 112.926  0.00  0.00     0.382 C 
ATOM     23  O   LIG d   1      -3.307  81.713 113.265  0.00  0.00    -0.241 OA
ATOM     24  O   LIG d   1      -1.961  80.884 111.793  0.00  0.00    -0.241 OA
ENDBRANCH   3  22
TORSDOF 7
ENDMDL
