MODEL 1
REMARK VINA RESULT:      -4.8      0.000      0.000
REMARK  7 active torsions:
REMARK  status: ('A' for Active; 'I' for Inactive)
REMARK    1  A    between atoms: C_2  and  C_3 
REMARK    2  A    between atoms: C_3  and  O_6 
REMARK    3  A    between atoms: C_3  and  C_4 
REMARK    4  A    between atoms: C_7  and  O_6 
REMARK    5  A    between atoms: C_9  and  C_10 
REMARK    6  A    between atoms: N_15  and  C_14 
REMARK    7  A    between atoms: N_20  and  C_19 
REMARK       I    between atoms: C_22  and  N_20 
ROOT
ATOM      1  C   LIG d   1      -2.765  78.050 116.559  0.00  0.00     0.161 C 
ATOM      2  C   LIG d   1      -3.041  78.914 115.486  0.00  0.00     0.016 C 
ATOM      3  C   LIG d   1      -2.382  78.839 114.237  0.00  0.00     0.038 C 
ATOM      4  C   LIG d   1      -1.503  77.791 113.925  0.00  0.00     0.028 C 
ATOM      5  C   LIG d   1      -0.816  77.191 115.147  0.00  0.00    -0.047 C 
ATOM      6  C   LIG d   1      -1.890  76.831 116.200  0.00  0.00     0.091 C 
ENDROOT
BRANCH   1   7
ATOM      7  O   LIG d   1      -3.998  77.620 117.169  0.00  0.00    -0.368 OA
BRANCH   7   8
ATOM      8  C   LIG d   1      -5.076  77.288 116.260  0.00  0.00     0.119 C 
BRANCH   8   9
ATOM      9  C   LIG d   1      -6.394  77.733 116.924  0.00  0.00     0.028 C 
ATOM     10  C   LIG d   1      -7.549  76.756 116.648  0.00  0.00     0.006 C 
ENDBRANCH   8   9
BRANCH   8  11
ATOM     11  C   LIG d   1      -5.205  75.772 116.079  0.00  0.00     0.028 C 
ATOM     12  C   LIG d   1      -4.794  75.303 114.674  0.00  0.00     0.006 C 
ENDBRANCH   8  11
ENDBRANCH   7   8
ENDBRANCH   1   7
BRANCH   6  13
ATOM     13  N   LIG d   1      -1.296  76.316 117.461  0.00  0.00    -0.311 N 
ATOM     14  C   LIG d   1      -1.456  75.065 117.889  0.00  0.00     0.210 C 
ATOM     15  C   LIG d   1      -0.776  74.747 119.225  0.00  0.00     0.109 C 
ATOM     16  O   LIG d   1      -2.069  74.180 117.274  0.00  0.00    -0.276 OA
ATOM     17  H   LIG d   1      -0.757  76.959 118.007  0.00  0.00     0.149 HD
ENDBRANCH   6  13
BRANCH   5  18
ATOM     18  N   LIG d   1      -0.038  76.023 114.693  0.00  0.00     0.381 N 
ATOM     19  H   LIG d   1       0.816  76.329 114.271  0.00  0.00    -0.090 HD
ATOM     20  H   LIG d   1      -0.571  75.527 114.001  0.00  0.00    -0.090 HD
ATOM     21  H   LIG d   1       0.159  75.424 115.464  0.00  0.00    -0.090 HD
ENDBRANCH   5  18
BRANCH   3  22
ATOM     22  C   LIG d   1      -2.570  79.843 113.300  0.00  0.00     0.382 C 
ATOM     23  O   LIG d   1      -1.968  79.794 112.200  0.00  0.00    -0.241 OA
ATOM     24  O   LIG d   1      -3.299  80.819 113.557  0.00  0.00    -0.241 OA
ENDBRANCH   3  22
TORSDOF 7
ENDMDL
MODEL 2
REMARK VINA RESULT:      -4.7      2.553      3.893
REMARK  7 active torsions:
REMARK  status: ('A' for Active; 'I' for Inactive)
REMARK    1  A    between atoms: C_2  and  C_3 
REMARK    2  A    between atoms: C_3  and  O_6 
REMARK    3  A    between atoms: C_3  and  C_4 
REMARK    4  A    between atoms: C_7  and  O_6 
REMARK    5  A    between atoms: C_9  and  C_10 
REMARK    6  A    between atoms: N_15  and  C_14 
REMARK    7  A    between atoms: N_20  and  C_19 
REMARK       I    between atoms: C_22  and  N_20 
ROOT
ATOM      1  C   LIG d   1      -3.171  78.446 116.918  0.00  0.00     0.161 C 
ATOM      2  C   LIG d   1      -2.259  79.375 117.446  0.00  0.00     0.016 C 
ATOM      3  C   LIG d   1      -0.894  79.418 117.083  0.00  0.00     0.038 C 
ATOM      4  C   LIG d   1      -0.377  78.625 116.048  0.00  0.00     0.028 C 
ATOM      5  C   LIG d   1      -1.144  77.324 115.839  0.00  0.00    -0.047 C 
ATOM      6  C   LIG d   1      -2.650  77.647 115.705  0.00  0.00     0.091 C 
ENDROOT
BRANCH   1   7
ATOM      7  O   LIG d   1      -4.408  79.109 116.588  0.00  0.00    -0.368 OA
BRANCH   7   8
ATOM      8  C   LIG d   1      -5.459  79.029 117.582  0.00  0.00     0.119 C 
BRANCH   8   9
ATOM      9  C   LIG d   1      -6.506  78.021 117.069  0.00  0.00     0.028 C 
ATOM     10  C   LIG d   1      -6.384  76.649 117.753  0.00  0.00     0.006 C 
ENDBRANCH   8   9
BRANCH   8  11
ATOM     11  C   LIG d   1      -6.206  80.360 117.711  0.00  0.00     0.028 C 
ATOM     12  C   LIG d   1      -7.724  80.178 117.865  0.00  0.00     0.006 C 
ENDBRANCH   8  11
ENDBRANCH   7   8
ENDBRANCH   1   7
BRANCH   6  13
ATOM     13  N   LIG d   1      -3.483  76.422 115.583  0.00  0.00    -0.311 N 
ATOM     14  C   LIG d   1      -4.266  76.169 114.535  0.00  0.00     0.210 C 
ATOM     15  C   LIG d   1      -5.055  74.859 114.618  0.00  0.00     0.109 C 
ATOM     16  O   LIG d   1      -4.356  76.890 113.529  0.00  0.00    -0.276 OA
ATOM     17  H   LIG d   1      -3.446  75.768 116.339  0.00  0.00     0.149 HD
ENDBRANCH   6  13
BRANCH   5  18
ATOM     18  N   LIG d   1      -0.586  76.664 114.644  0.00  0.00     0.381 N 
ATOM     19  H   LIG d   1       0.387  76.479 114.783  0.00  0.00    -0.090 HD
ATOM     20  H   LIG d   1      -0.681  77.281 113.857  0.00  0.00    -0.090 HD
ATOM     21  H   LIG d   1      -1.071  75.812 114.468  0.00  0.00    -0.090 HD
ENDBRANCH   5  18
BRANCH   3  22
ATOM     22  C   LIG d   1      -0.021  80.233 117.788  0.00  0.00     0.382 C 
ATOM     23  O   LIG d   1       0.300  79.938 118.965  0.00  0.00    -0.241 OA
ATOM     24  O   LIG d   1       0.415  81.282 117.277  0.00  0.00    -0.241 OA
ENDBRANCH   3  22
TORSDOF 7
ENDMDL
MODEL 3
REMARK VINA RESULT:      -4.7      1.524      2.079
REMARK  7 active torsions:
REMARK  status: ('A' for Active; 'I' for Inactive)
REMARK    1  A    between atoms: C_2  and  C_3 
REMARK    2  A    between atoms: C_3  and  O_6 
REMARK    3  A    between atoms: C_3  and  C_4 
REMARK    4  A    between atoms: C_7  and  O_6 
REMARK    5  A    between atoms: C_9  and  C_10 
REMARK    6  A    between atoms: N_15  and  C_14 
REMARK    7  A    between atoms: N_20  and  C_19 
REMARK       I    between atoms: C_22  and  N_20 
ROOT
ATOM      1  C   LIG d   1      -2.830  77.121 115.369  0.00  0.00     0.161 C 
ATOM      2  C   LIG d   1      -2.971  77.877 114.193  0.00  0.00     0.016 C 
ATOM      3  C   LIG d   1      -2.061  78.887 113.803  0.00  0.00     0.038 C 
ATOM      4  C   LIG d   1      -0.859  79.107 114.491  0.00  0.00     0.028 C 
ATOM      5  C   LIG d   1      -0.922  78.713 115.963  0.00  0.00    -0.047 C 
ATOM      6  C   LIG d   1      -1.466  77.270 116.074  0.00  0.00     0.091 C 
ENDROOT
BRANCH   1   7
ATOM      7  O   LIG d   1      -3.102  75.733 115.093  0.00  0.00    -0.368 OA
BRANCH   7   8
ATOM      8  C   LIG d   1      -4.365  75.220 115.584  0.00  0.00     0.119 C 
BRANCH   8   9
ATOM      9  C   LIG d   1      -5.257  74.936 114.361  0.00  0.00     0.028 C 
ATOM     10  C   LIG d   1      -6.486  75.860 114.303  0.00  0.00     0.006 C 
ENDBRANCH   8   9
BRANCH   8  11
ATOM     11  C   LIG d   1      -5.117  76.278 116.398  0.00  0.00     0.028 C 
ATOM     12  C   LIG d   1      -5.311  75.873 117.868  0.00  0.00     0.006 C 
ENDBRANCH   8  11
ENDBRANCH   7   8
ENDBRANCH   1   7
BRANCH   6  13
ATOM     13  N   LIG d   1      -1.639  76.837 117.485  0.00  0.00    -0.311 N 
ATOM     14  C   LIG d   1      -1.163  75.688 117.963  0.00  0.00     0.210 C 
ATOM     15  C   LIG d   1      -1.471  75.425 119.440  0.00  0.00     0.109 C 
ATOM     16  O   LIG d   1      -0.488  74.877 117.311  0.00  0.00    -0.276 OA
ATOM     17  H   LIG d   1      -2.148  77.450 118.091  0.00  0.00     0.149 HD
ENDBRANCH   6  13
BRANCH   5  18
ATOM     18  N   LIG d   1       0.434  78.865 116.524  0.00  0.00     0.381 N 
ATOM     19  H   LIG d   1       0.788  77.970 116.800  0.00  0.00    -0.090 HD
ATOM     20  H   LIG d   1       0.385  79.450 117.339  0.00  0.00    -0.090 HD
ATOM     21  H   LIG d   1       1.039  79.275 115.847  0.00  0.00    -0.090 HD
ENDBRANCH   5  18
BRANCH   3  22
ATOM     22  C   LIG d   1      -2.371  79.716 112.736  0.00  0.00     0.382 C 
ATOM     23  O   LIG d   1      -3.223  80.626 112.876  0.00  0.00    -0.241 OA
ATOM     24  O   LIG d   1      -1.841  79.538 111.623  0.00  0.00    -0.241 OA
ENDBRANCH   3  22
TORSDOF 7
ENDMDL
MODEL 4
REMARK VINA RESULT:      -4.7      1.496      2.292
REMARK  7 active torsions:
REMARK  status: ('A' for Active; 'I' for Inactive)
REMARK    1  A    between atoms: C_2  and  C_3 
REMARK    2  A    between atoms: C_3  and  O_6 
REMARK    3  A    between atoms: C_3  and  C_4 
REMARK    4  A    between atoms: C_7  and  O_6 
REMARK    5  A    between atoms: C_9  and  C_10 
REMARK    6  A    between atoms: N_15  and  C_14 
REMARK    7  A    between atoms: N_20  and  C_19 
REMARK       I    between atoms: C_22  and  N_20 
ROOT
ATOM      1  C   LIG d   1      -3.098  78.611 116.130  0.00  0.00     0.161 C 
ATOM      2  C   LIG d   1      -3.163  79.466 115.017  0.00  0.00     0.016 C 
ATOM      3  C   LIG d   1      -2.369  79.297 113.859  0.00  0.00     0.038 C 
ATOM      4  C   LIG d   1      -1.560  78.166 113.674  0.00  0.00     0.028 C 
ATOM      5  C   LIG d   1      -1.082  77.542 114.980  0.00  0.00    -0.047 C 
ATOM      6  C   LIG d   1      -2.302  77.310 115.901  0.00  0.00     0.091 C 
ENDROOT
BRANCH   1   7
ATOM      7  O   LIG d   1      -4.429  78.310 116.593  0.00  0.00    -0.368 OA
BRANCH   7   8
ATOM      8  C   LIG d   1      -5.058  79.315 117.426  0.00  0.00     0.119 C 
BRANCH   8   9
ATOM      9  C   LIG d   1      -4.479  79.167 118.846  0.00  0.00     0.028 C 
ATOM     10  C   LIG d   1      -4.686  77.755 119.420  0.00  0.00     0.006 C 
ENDBRANCH   8   9
BRANCH   8  11
ATOM     11  C   LIG d   1      -6.560  79.057 117.572  0.00  0.00     0.028 C 
ATOM     12  C   LIG d   1      -7.364  80.344 117.821  0.00  0.00     0.006 C 
ENDBRANCH   8  11
ENDBRANCH   7   8
ENDBRANCH   1   7
BRANCH   6  13
ATOM     13  N   LIG d   1      -1.913  76.779 117.234  0.00  0.00    -0.311 N 
ATOM     14  C   LIG d   1      -1.931  75.484 117.541  0.00  0.00     0.210 C 
ATOM     15  C   LIG d   1      -1.512  75.153 118.977  0.00  0.00     0.109 C 
ATOM     16  O   LIG d   1      -2.223  74.573 116.751  0.00  0.00    -0.276 OA
ATOM     17  H   LIG d   1      -1.632  77.446 117.926  0.00  0.00     0.149 HD
ENDBRANCH   6  13
BRANCH   5  18
ATOM     18  N   LIG d   1      -0.365  76.298 114.644  0.00  0.00     0.381 N 
ATOM     19  H   LIG d   1       0.552  76.515 114.308  0.00  0.00    -0.090 HD
ATOM     20  H   LIG d   1      -0.865  75.822 113.913  0.00  0.00    -0.090 HD
ATOM     21  H   LIG d   1      -0.303  75.712 115.448  0.00  0.00    -0.090 HD
ENDBRANCH   5  18
BRANCH   3  22
ATOM     22  C   LIG d   1      -2.351  80.287 112.888  0.00  0.00     0.382 C 
ATOM     23  O   LIG d   1      -3.198  81.211 112.919  0.00  0.00    -0.241 OA
ATOM     24  O   LIG d   1      -1.525  80.243 111.957  0.00  0.00    -0.241 OA
ENDBRANCH   3  22
TORSDOF 7
ENDMDL
MODEL 5
REMARK VINA RESULT:      -4.3      3.237      4.733
REMARK  7 active torsions:
REMARK  status: ('A' for Active; 'I' for Inactive)
REMARK    1  A    between atoms: C_2  and  C_3 
REMARK    2  A    between atoms: C_3  and  O_6 
REMARK    3  A    between atoms: C_3  and  C_4 
REMARK    4  A    between atoms: C_7  and  O_6 
REMARK    5  A    between atoms: C_9  and  C_10 
REMARK    6  A    between atoms: N_15  and  C_14 
REMARK    7  A    between atoms: N_20  and  C_19 
REMARK       I    between atoms: C_22  and  N_20 
ROOT
ATOM      1  C   LIG d   1      -5.570  77.560 117.664  0.00  0.00     0.161 C 
ATOM      2  C   LIG d   1      -6.606  78.460 117.362  0.00  0.00     0.016 C 
ATOM      3  C   LIG d   1      -6.645  79.790 117.840  0.00  0.00     0.038 C 
ATOM      4  C   LIG d   1      -5.567  80.361 118.533  0.00  0.00     0.028 C 
ATOM      5  C   LIG d   1      -4.726  79.340 119.291  0.00  0.00    -0.047 C 
ATOM      6  C   LIG d   1      -4.331  78.198 118.326  0.00  0.00     0.091 C 
ENDROOT
BRANCH   1   7
ATOM      7  O   LIG d   1      -5.187  76.839 116.476  0.00  0.00    -0.368 OA
BRANCH   7   8
ATOM      8  C   LIG d   1      -5.331  75.398 116.531  0.00  0.00     0.119 C 
BRANCH   8   9
ATOM      9  C   LIG d   1      -3.929  74.786 116.343  0.00  0.00     0.028 C 
ATOM     10  C   LIG d   1      -2.959  75.747 115.635  0.00  0.00     0.006 C 
ENDBRANCH   8   9
BRANCH   8  11
ATOM     11  C   LIG d   1      -6.162  74.876 115.355  0.00  0.00     0.028 C 
ATOM     12  C   LIG d   1      -6.426  75.950 114.288  0.00  0.00     0.006 C 
ENDBRANCH   8  11
ENDBRANCH   7   8
ENDBRANCH   1   7
BRANCH   6  13
ATOM     13  N   LIG d   1      -3.578  77.114 119.009  0.00  0.00    -0.311 N 
ATOM     14  C   LIG d   1      -2.247  77.049 119.032  0.00  0.00     0.210 C 
ATOM     15  C   LIG d   1      -1.672  75.838 119.773  0.00  0.00     0.109 C 
ATOM     16  O   LIG d   1      -1.489  77.895 118.536  0.00  0.00    -0.276 OA
ATOM     17  H   LIG d   1      -4.114  76.402 119.464  0.00  0.00     0.149 HD
ENDBRANCH   6  13
BRANCH   5  18
ATOM     18  N   LIG d   1      -3.561  80.051 119.853  0.00  0.00     0.381 N 
ATOM     19  H   LIG d   1      -2.998  79.414 120.379  0.00  0.00    -0.090 HD
ATOM     20  H   LIG d   1      -3.888  80.770 120.473  0.00  0.00    -0.090 HD
ATOM     21  H   LIG d   1      -3.022  80.454 119.119  0.00  0.00    -0.090 HD
ENDBRANCH   5  18
BRANCH   3  22
ATOM     22  C   LIG d   1      -7.789  80.552 117.659  0.00  0.00     0.382 C 
ATOM     23  O   LIG d   1      -7.733  81.623 117.009  0.00  0.00    -0.241 OA
ATOM     24  O   LIG d   1      -8.868  80.203 118.175  0.00  0.00    -0.241 OA
ENDBRANCH   3  22
TORSDOF 7
ENDMDL
MODEL 6
REMARK VINA RESULT:      -4.2      2.248      3.070
REMARK  7 active torsions:
REMARK  status: ('A' for Active; 'I' for Inactive)
REMARK    1  A    between atoms: C_2  and  C_3 
REMARK    2  A    between atoms: C_3  and  O_6 
REMARK    3  A    between atoms: C_3  and  C_4 
REMARK    4  A    between atoms: C_7  and  O_6 
REMARK    5  A    between atoms: C_9  and  C_10 
REMARK    6  A    between atoms: N_15  and  C_14 
REMARK    7  A    between atoms: N_20  and  C_19 
REMARK       I    between atoms: C_22  and  N_20 
ROOT
ATOM      1  C   LIG d   1      -3.543  76.975 114.929  0.00  0.00     0.161 C 
ATOM      2  C   LIG d   1      -3.169  77.333 113.623  0.00  0.00     0.016 C 
ATOM      3  C   LIG d   1      -2.222  78.342 113.334  0.00  0.00     0.038 C 
ATOM      4  C   LIG d   1      -1.469  78.963 114.341  0.00  0.00     0.028 C 
ATOM      5  C   LIG d   1      -2.173  78.992 115.694  0.00  0.00    -0.047 C 
ATOM      6  C   LIG d   1      -2.651  77.564 116.042  0.00  0.00     0.091 C 
ENDROOT
BRANCH   1   7
ATOM      7  O   LIG d   1      -3.606  75.540 115.044  0.00  0.00    -0.368 OA
BRANCH   7   8
ATOM      8  C   LIG d   1      -4.931  74.955 115.012  0.00  0.00     0.119 C 
BRANCH   8   9
ATOM      9  C   LIG d   1      -5.945  76.111 114.913  0.00  0.00     0.028 C 
ATOM     10  C   LIG d   1      -6.696  76.120 113.570  0.00  0.00     0.006 C 
ENDBRANCH   8   9
BRANCH   8  11
ATOM     11  C   LIG d   1      -5.257  74.241 116.327  0.00  0.00     0.028 C 
ATOM     12  C   LIG d   1      -6.395  74.919 117.107  0.00  0.00     0.006 C 
ENDBRANCH   8  11
ENDBRANCH   7   8
ENDBRANCH   1   7
BRANCH   6  13
ATOM     13  N   LIG d   1      -3.424  77.518 117.310  0.00  0.00    -0.311 N 
ATOM     14  C   LIG d   1      -4.503  78.266 117.538  0.00  0.00     0.210 C 
ATOM     15  C   LIG d   1      -5.139  78.079 118.919  0.00  0.00     0.109 C 
ATOM     16  O   LIG d   1      -5.012  79.042 116.716  0.00  0.00    -0.276 OA
ATOM     17  H   LIG d   1      -3.099  76.892 118.021  0.00  0.00     0.149 HD
ENDBRANCH   6  13
BRANCH   5  18
ATOM     18  N   LIG d   1      -1.223  79.541 116.679  0.00  0.00     0.381 N 
ATOM     19  H   LIG d   1      -1.589  79.425 117.603  0.00  0.00    -0.090 HD
ATOM     20  H   LIG d   1      -1.107  80.524 116.507  0.00  0.00    -0.090 HD
ATOM     21  H   LIG d   1      -0.345  79.076 116.602  0.00  0.00    -0.090 HD
ENDBRANCH   5  18
BRANCH   3  22
ATOM     22  C   LIG d   1      -2.050  78.768 112.026  0.00  0.00     0.382 C 
ATOM     23  O   LIG d   1      -1.634  79.929 111.794  0.00  0.00    -0.241 OA
ATOM     24  O   LIG d   1      -2.347  78.022 111.074  0.00  0.00    -0.241 OA
ENDBRANCH   3  22
TORSDOF 7
ENDMDL
MODEL 7
REMARK VINA RESULT:      -4.2      2.893      5.333
REMARK  7 active torsions:
REMARK  status: ('A' for Active; 'I' for Inactive)
REMARK    1  A    between atoms: C_2  and  C_3 
REMARK    2  A    between atoms: C_3  and  O_6 
REMARK    3  A    between atoms: C_3  and  C_4 
REMARK    4  A    between atoms: C_7  and  O_6 
REMARK    5  A    between atoms: C_9  and  C_10 
REMARK    6  A    between atoms: N_15  and  C_14 
REMARK    7  A    between atoms: N_20  and  C_19 
REMARK       I    between atoms: C_22  and  N_20 
ROOT
ATOM      1  C   LIG d   1      -5.456  76.291 117.831  0.00  0.00     0.161 C 
ATOM      2  C   LIG d   1      -6.837  76.173 117.604  0.00  0.00     0.016 C 
ATOM      3  C   LIG d   1      -7.700  77.284 117.461  0.00  0.00     0.038 C 
ATOM      4  C   LIG d   1      -7.212  78.597 117.384  0.00  0.00     0.028 C 
ATOM      5  C   LIG d   1      -5.886  78.794 118.112  0.00  0.00    -0.047 C 
ATOM      6  C   LIG d   1      -4.888  77.713 117.639  0.00  0.00     0.091 C 
ENDROOT
BRANCH   1   7
ATOM      7  O   LIG d   1      -4.743  75.351 117.003  0.00  0.00    -0.368 OA
BRANCH   7   8
ATOM      8  C   LIG d   1      -4.280  75.851 115.724  0.00  0.00     0.119 C 
BRANCH   8   9
ATOM      9  C   LIG d   1      -5.018  75.062 114.625  0.00  0.00     0.028 C 
ATOM     10  C   LIG d   1      -6.221  75.833 114.057  0.00  0.00     0.006 C 
ENDBRANCH   8   9
BRANCH   8  11
ATOM     11  C   LIG d   1      -2.794  75.549 115.512  0.00  0.00     0.028 C 
ATOM     12  C   LIG d   1      -2.194  74.691 116.637  0.00  0.00     0.006 C 
ENDBRANCH   8  11
ENDBRANCH   7   8
ENDBRANCH   1   7
BRANCH   6  13
ATOM     13  N   LIG d   1      -3.592  77.782 118.364  0.00  0.00    -0.311 N 
ATOM     14  C   LIG d   1      -2.532  78.447 117.908  0.00  0.00     0.210 C 
ATOM     15  C   LIG d   1      -1.290  78.373 118.801  0.00  0.00     0.109 C 
ATOM     16  O   LIG d   1      -2.512  79.119 116.866  0.00  0.00    -0.276 OA
ATOM     17  H   LIG d   1      -3.530  77.291 119.234  0.00  0.00     0.149 HD
ENDBRANCH   6  13
BRANCH   5  18
ATOM     18  N   LIG d   1      -5.426  80.168 117.835  0.00  0.00     0.381 N 
ATOM     19  H   LIG d   1      -4.526  80.313 118.248  0.00  0.00    -0.090 HD
ATOM     20  H   LIG d   1      -6.071  80.817 118.250  0.00  0.00    -0.090 HD
ATOM     21  H   LIG d   1      -5.376  80.319 116.852  0.00  0.00    -0.090 HD
ENDBRANCH   5  18
BRANCH   3  22
ATOM     22  C   LIG d   1      -9.072  77.089 117.434  0.00  0.00     0.382 C 
ATOM     23  O   LIG d   1      -9.545  76.022 116.974  0.00  0.00    -0.241 OA
ATOM     24  O   LIG d   1      -9.846  77.985 117.822  0.00  0.00    -0.241 OA
ENDBRANCH   3  22
TORSDOF 7
ENDMDL
MODEL 8
REMARK VINA RESULT:      -4.1      2.925      4.090
REMARK  7 active torsions:
REMARK  status: ('A' for Active; 'I' for Inactive)
REMARK    1  A    between atoms: C_2  and  C_3 
REMARK    2  A    between atoms: C_3  and  O_6 
REMARK    3  A    between atoms: C_3  and  C_4 
REMARK    4  A    between atoms: C_7  and  O_6 
REMARK    5  A    between atoms: C_9  and  C_10 
REMARK    6  A    between atoms: N_15  and  C_14 
REMARK    7  A    between atoms: N_20  and  C_19 
REMARK       I    between atoms: C_22  and  N_20 
ROOT
ATOM      1  C   LIG d   1      -4.319  77.569 117.970  0.00  0.00     0.161 C 
ATOM      2  C   LIG d   1      -3.465  78.579 118.444  0.00  0.00     0.016 C 
ATOM      3  C   LIG d   1      -2.434  79.154 117.666  0.00  0.00     0.038 C 
ATOM      4  C   LIG d   1      -2.284  78.863 116.302  0.00  0.00     0.028 C 
ATOM      5  C   LIG d   1      -2.801  77.481 115.917  0.00  0.00    -0.047 C 
ATOM      6  C   LIG d   1      -4.243  77.318 116.450  0.00  0.00     0.091 C 
ENDROOT
BRANCH   1   7
ATOM      7  O   LIG d   1      -5.676  77.854 118.364  0.00  0.00    -0.368 OA
BRANCH   7   8
ATOM      8  C   LIG d   1      -6.463  78.628 117.426  0.00  0.00     0.119 C 
BRANCH   8   9
ATOM      9  C   LIG d   1      -6.403  80.100 117.876  0.00  0.00     0.028 C 
ATOM     10  C   LIG d   1      -7.776  80.791 117.808  0.00  0.00     0.006 C 
ENDBRANCH   8   9
BRANCH   8  11
ATOM     11  C   LIG d   1      -7.944  78.244 117.490  0.00  0.00     0.028 C 
ATOM     12  C   LIG d   1      -8.205  76.798 117.038  0.00  0.00     0.006 C 
ENDBRANCH   8  11
ENDBRANCH   7   8
ENDBRANCH   1   7
BRANCH   6  13
ATOM     13  N   LIG d   1      -4.793  75.963 116.190  0.00  0.00    -0.311 N 
ATOM     14  C   LIG d   1      -5.471  75.646 115.088  0.00  0.00     0.210 C 
ATOM     15  C   LIG d   1      -5.968  74.198 115.028  0.00  0.00     0.109 C 
ATOM     16  O   LIG d   1      -5.680  76.417 114.139  0.00  0.00    -0.276 OA
ATOM     17  H   LIG d   1      -4.643  75.266 116.893  0.00  0.00     0.149 HD
ENDBRANCH   6  13
BRANCH   5  18
ATOM     18  N   LIG d   1      -2.711  77.365 114.449  0.00  0.00     0.381 N 
ATOM     19  H   LIG d   1      -3.418  76.741 114.115  0.00  0.00    -0.090 HD
ATOM     20  H   LIG d   1      -1.813  76.982 114.208  0.00  0.00    -0.090 HD
ATOM     21  H   LIG d   1      -2.822  78.261 114.028  0.00  0.00    -0.090 HD
ENDBRANCH   5  18
BRANCH   3  22
ATOM     22  C   LIG d   1      -1.514  80.002 118.264  0.00  0.00     0.382 C 
ATOM     23  O   LIG d   1      -1.569  80.217 119.498  0.00  0.00    -0.241 OA
ATOM     24  O   LIG d   1      -0.657  80.590 117.576  0.00  0.00    -0.241 OA
ENDBRANCH   3  22
TORSDOF 7
ENDMDL
MODEL 9
REMARK VINA RESULT:      -4.1      2.294      3.638
REMARK  7 active torsions:
REMARK  status: ('A' for Active; 'I' for Inactive)
REMARK    1  A    between atoms: C_2  and  C_3 
REMARK    2  A    between atoms: C_3  and  O_6 
REMARK    3  A    between atoms: C_3  and  C_4 
REMARK    4  A    between atoms: C_7  and  O_6 
REMARK    5  A    between atoms: C_9  and  C_10 
REMARK    6  A    between atoms: N_15  and  C_14 
REMARK    7  A    between atoms: N_20  and  C_19 
REMARK       I    between atoms: C_22  and  N_20 
ROOT
ATOM      1  C   LIG d   1      -0.524  78.101 116.102  0.00  0.00     0.161 C 
ATOM      2  C   LIG d   1      -1.004  79.042 115.176  0.00  0.00     0.016 C 
ATOM      3  C   LIG d   1      -2.126  78.816 114.347  0.00  0.00     0.038 C 
ATOM      4  C   LIG d   1      -2.942  77.684 114.496  0.00  0.00     0.028 C 
ATOM      5  C   LIG d   1      -2.205  76.478 115.068  0.00  0.00    -0.047 C 
ATOM      6  C   LIG d   1      -1.467  76.906 116.357  0.00  0.00     0.091 C 
ENDROOT
BRANCH   1   7
ATOM      7  O   LIG d   1      -0.201  78.758 117.344  0.00  0.00    -0.368 OA
BRANCH   7   8
ATOM      8  C   LIG d   1      -1.036  79.886 117.704  0.00  0.00     0.119 C 
BRANCH   8   9
ATOM      9  C   LIG d   1      -0.134  80.926 118.397  0.00  0.00     0.028 C 
ATOM     10  C   LIG d   1      -0.942  81.972 119.184  0.00  0.00     0.006 C 
ENDBRANCH   8   9
BRANCH   8  11
ATOM     11  C   LIG d   1      -2.081  79.493 118.752  0.00  0.00     0.028 C 
ATOM     12  C   LIG d   1      -3.504  79.420 118.175  0.00  0.00     0.006 C 
ENDBRANCH   8  11
ENDBRANCH   7   8
ENDBRANCH   1   7
BRANCH   6  13
ATOM     13  N   LIG d   1      -0.652  75.806 116.935  0.00  0.00    -0.311 N 
ATOM     14  C   LIG d   1      -0.863  75.297 118.148  0.00  0.00     0.210 C 
ATOM     15  C   LIG d   1       0.105  74.183 118.559  0.00  0.00     0.109 C 
ATOM     16  O   LIG d   1      -1.779  75.641 118.910  0.00  0.00    -0.276 OA
ATOM     17  H   LIG d   1       0.094  75.446 116.372  0.00  0.00     0.149 HD
ENDBRANCH   6  13
BRANCH   5  18
ATOM     18  N   LIG d   1      -3.201  75.415 115.299  0.00  0.00     0.381 N 
ATOM     19  H   LIG d   1      -2.762  74.626 115.728  0.00  0.00    -0.090 HD
ATOM     20  H   LIG d   1      -3.577  75.124 114.413  0.00  0.00    -0.090 HD
ATOM     21  H   LIG d   1      -3.934  75.755 115.883  0.00  0.00    -0.090 HD
ENDBRANCH   5  18
BRANCH   3  22
ATOM     22  C   LIG d   1      -2.420  79.710 113.328  0.00  0.00     0.382 C 
ATOM     23  O   LIG d   1      -1.880  79.578 112.204  0.00  0.00    -0.241 OA
ATOM     24  O   LIG d   1      -3.184  80.672 113.533  0.00  0.00    -0.241 OA
ENDBRANCH   3  22
TORSDOF 7
ENDMDL
