MODEL 1
REMARK VINA RESULT:      -5.2      0.000      0.000
REMARK  7 active torsions:
REMARK  status: ('A' for Active; 'I' for Inactive)
REMARK    1  A    between atoms: C_2  and  C_3 
REMARK    2  A    between atoms: C_3  and  O_6 
REMARK    3  A    between atoms: C_3  and  C_4 
REMARK    4  A    between atoms: C_7  and  O_6 
REMARK    5  A    between atoms: C_9  and  C_10 
REMARK    6  A    between atoms: N_15  and  C_14 
REMARK    7  A    between atoms: N_20  and  C_19 
REMARK       I    between atoms: C_22  and  N_20 
ROOT
ATOM      1  C   LIG d   1      -2.919  78.387 115.505  0.00  0.00     0.161 C 
ATOM      2  C   LIG d   1      -3.016  79.545 114.716  0.00  0.00     0.016 C 
ATOM      3  C   LIG d   1      -2.422  79.668 113.438  0.00  0.00     0.038 C 
ATOM      4  C   LIG d   1      -1.815  78.579 112.795  0.00  0.00     0.028 C 
ATOM      5  C   LIG d   1      -1.254  77.541 113.761  0.00  0.00    -0.047 C 
ATOM      6  C   LIG d   1      -2.355  77.151 114.774  0.00  0.00     0.091 C 
ENDROOT
BRANCH   1   7
ATOM      7  O   LIG d   1      -4.203  78.084 116.086  0.00  0.00    -0.368 OA
BRANCH   7   8
ATOM      8  C   LIG d   1      -4.419  78.560 117.437  0.00  0.00     0.119 C 
BRANCH   8   9
ATOM      9  C   LIG d   1      -4.231  77.361 118.387  0.00  0.00     0.028 C 
ATOM     10  C   LIG d   1      -2.917  77.442 119.182  0.00  0.00     0.006 C 
ENDBRANCH   8   9
BRANCH   8  11
ATOM     11  C   LIG d   1      -5.867  79.016 117.642  0.00  0.00     0.028 C 
ATOM     12  C   LIG d   1      -5.997  80.541 117.784  0.00  0.00     0.006 C 
ENDBRANCH   8  11
ENDBRANCH   7   8
ENDBRANCH   1   7
BRANCH   6  13
ATOM     13  N   LIG d   1      -1.865  76.202 115.807  0.00  0.00    -0.311 N 
ATOM     14  C   LIG d   1      -2.398  74.998 116.008  0.00  0.00     0.210 C 
ATOM     15  C   LIG d   1      -1.755  74.187 117.138  0.00  0.00     0.109 C 
ATOM     16  O   LIG d   1      -3.321  74.512 115.338  0.00  0.00    -0.276 OA
ATOM     17  H   LIG d   1      -1.098  76.503 116.376  0.00  0.00     0.149 HD
ENDBRANCH   6  13
BRANCH   5  18
ATOM     18  N   LIG d   1      -0.776  76.399 112.960  0.00  0.00     0.381 N 
ATOM     19  H   LIG d   1      -0.712  75.583 113.536  0.00  0.00    -0.090 HD
ATOM     20  H   LIG d   1       0.142  76.609 112.610  0.00  0.00    -0.090 HD
ATOM     21  H   LIG d   1      -1.398  76.230 112.200  0.00  0.00    -0.090 HD
ENDBRANCH   5  18
BRANCH   3  22
ATOM     22  C   LIG d   1      -2.398  80.902 112.807  0.00  0.00     0.382 C 
ATOM     23  O   LIG d   1      -3.471  81.442 112.444  0.00  0.00    -0.241 OA
ATOM     24  O   LIG d   1      -1.314  81.463 112.558  0.00  0.00    -0.241 OA
ENDBRANCH   3  22
TORSDOF 7
ENDMDL
MODEL 2
REMARK VINA RESULT:      -5.1      1.532      2.217
REMARK  7 active torsions:
REMARK  status: ('A' for Active; 'I' for Inactive)
REMARK    1  A    between atoms: C_2  and  C_3 
REMARK    2  A    between atoms: C_3  and  O_6 
REMARK    3  A    between atoms: C_3  and  C_4 
REMARK    4  A    between atoms: C_7  and  O_6 
REMARK    5  A    between atoms: C_9  and  C_10 
REMARK    6  A    between atoms: N_15  and  C_14 
REMARK    7  A    between atoms: N_20  and  C_19 
REMARK       I    between atoms: C_22  and  N_20 
ROOT
ATOM      1  C   LIG d   1      -2.313  78.082 116.332  0.00  0.00     0.161 C 
ATOM      2  C   LIG d   1      -2.694  79.000 115.340  0.00  0.00     0.016 C 
ATOM      3  C   LIG d   1      -2.258  78.921 113.998  0.00  0.00     0.038 C 
ATOM      4  C   LIG d   1      -1.527  77.824 113.519  0.00  0.00     0.028 C 
ATOM      5  C   LIG d   1      -0.697  77.133 114.595  0.00  0.00    -0.047 C 
ATOM      6  C   LIG d   1      -1.606  76.816 115.804  0.00  0.00     0.091 C 
ENDROOT
BRANCH   1   7
ATOM      7  O   LIG d   1      -3.458  77.720 117.130  0.00  0.00    -0.368 OA
BRANCH   7   8
ATOM      8  C   LIG d   1      -4.714  77.590 116.419  0.00  0.00     0.119 C 
BRANCH   8   9
ATOM      9  C   LIG d   1      -5.813  78.208 117.305  0.00  0.00     0.028 C 
ATOM     10  C   LIG d   1      -5.565  79.698 117.594  0.00  0.00     0.006 C 
ENDBRANCH   8   9
BRANCH   8  11
ATOM     11  C   LIG d   1      -5.109  76.120 116.250  0.00  0.00     0.028 C 
ATOM     12  C   LIG d   1      -5.029  75.646 114.790  0.00  0.00     0.006 C 
ENDBRANCH   8  11
ENDBRANCH   7   8
ENDBRANCH   1   7
BRANCH   6  13
ATOM     13  N   LIG d   1      -0.854  76.215 116.937  0.00  0.00    -0.311 N 
ATOM     14  C   LIG d   1      -1.215  75.081 117.537  0.00  0.00     0.210 C 
ATOM     15  C   LIG d   1      -0.312  74.648 118.696  0.00  0.00     0.109 C 
ATOM     16  O   LIG d   1      -2.177  74.377 117.198  0.00  0.00    -0.276 OA
ATOM     17  H   LIG d   1      -0.042  76.705 117.256  0.00  0.00     0.149 HD
ENDBRANCH   6  13
BRANCH   5  18
ATOM     18  N   LIG d   1      -0.097  75.929 113.991  0.00  0.00     0.381 N 
ATOM     19  H   LIG d   1      -0.813  75.264 113.777  0.00  0.00    -0.090 HD
ATOM     20  H   LIG d   1       0.532  75.511 114.654  0.00  0.00    -0.090 HD
ATOM     21  H   LIG d   1       0.398  76.174 113.162  0.00  0.00    -0.090 HD
ENDBRANCH   5  18
BRANCH   3  22
ATOM     22  C   LIG d   1      -2.520  79.968 113.127  0.00  0.00     0.382 C 
ATOM     23  O   LIG d   1      -3.067  81.015 113.552  0.00  0.00    -0.241 OA
ATOM     24  O   LIG d   1      -2.257  79.863 111.914  0.00  0.00    -0.241 OA
ENDBRANCH   3  22
TORSDOF 7
ENDMDL
MODEL 3
REMARK VINA RESULT:      -4.9      2.404      3.298
REMARK  7 active torsions:
REMARK  status: ('A' for Active; 'I' for Inactive)
REMARK    1  A    between atoms: C_2  and  C_3 
REMARK    2  A    between atoms: C_3  and  O_6 
REMARK    3  A    between atoms: C_3  and  C_4 
REMARK    4  A    between atoms: C_7  and  O_6 
REMARK    5  A    between atoms: C_9  and  C_10 
REMARK    6  A    between atoms: N_15  and  C_14 
REMARK    7  A    between atoms: N_20  and  C_19 
REMARK       I    between atoms: C_22  and  N_20 
ROOT
ATOM      1  C   LIG d   1      -2.919  77.234 114.911  0.00  0.00     0.161 C 
ATOM      2  C   LIG d   1      -3.002  77.325 113.512  0.00  0.00     0.016 C 
ATOM      3  C   LIG d   1      -2.175  78.170 112.736  0.00  0.00     0.038 C 
ATOM      4  C   LIG d   1      -1.099  78.873 113.298  0.00  0.00     0.028 C 
ATOM      5  C   LIG d   1      -1.296  79.203 114.774  0.00  0.00    -0.047 C 
ATOM      6  C   LIG d   1      -1.678  77.910 115.530  0.00  0.00     0.091 C 
ENDROOT
BRANCH   1   7
ATOM      7  O   LIG d   1      -2.992  75.853 115.317  0.00  0.00    -0.368 OA
BRANCH   7   8
ATOM      8  C   LIG d   1      -4.188  75.461 116.033  0.00  0.00     0.119 C 
BRANCH   8   9
ATOM      9  C   LIG d   1      -4.905  74.392 115.187  0.00  0.00     0.028 C 
ATOM     10  C   LIG d   1      -5.948  74.999 114.233  0.00  0.00     0.006 C 
ENDBRANCH   8   9
BRANCH   8  11
ATOM     11  C   LIG d   1      -5.179  76.624 116.141  0.00  0.00     0.028 C 
ATOM     12  C   LIG d   1      -5.396  77.090 117.589  0.00  0.00     0.006 C 
ENDBRANCH   8  11
ENDBRANCH   7   8
ENDBRANCH   1   7
BRANCH   6  13
ATOM     13  N   LIG d   1      -1.970  78.159 116.966  0.00  0.00    -0.311 N 
ATOM     14  C   LIG d   1      -1.490  77.405 117.953  0.00  0.00     0.210 C 
ATOM     15  C   LIG d   1      -1.931  77.824 119.360  0.00  0.00     0.109 C 
ATOM     16  O   LIG d   1      -0.716  76.449 117.801  0.00  0.00    -0.276 OA
ATOM     17  H   LIG d   1      -2.566  78.935 117.182  0.00  0.00     0.149 HD
ENDBRANCH   6  13
BRANCH   5  18
ATOM     18  N   LIG d   1      -0.045  79.812 115.264  0.00  0.00     0.381 N 
ATOM     19  H   LIG d   1       0.741  79.331 114.875  0.00  0.00    -0.090 HD
ATOM     20  H   LIG d   1      -0.009  79.719 116.264  0.00  0.00    -0.090 HD
ATOM     21  H   LIG d   1      -0.013  80.775 115.012  0.00  0.00    -0.090 HD
ENDBRANCH   5  18
BRANCH   3  22
ATOM     22  C   LIG d   1      -2.447  78.348 111.388  0.00  0.00     0.382 C 
ATOM     23  O   LIG d   1      -3.469  77.827 110.880  0.00  0.00    -0.241 OA
ATOM     24  O   LIG d   1      -1.659  78.985 110.664  0.00  0.00    -0.241 OA
ENDBRANCH   3  22
TORSDOF 7
ENDMDL
MODEL 4
REMARK VINA RESULT:      -4.8      2.709      4.905
REMARK  7 active torsions:
REMARK  status: ('A' for Active; 'I' for Inactive)
REMARK    1  A    between atoms: C_2  and  C_3 
REMARK    2  A    between atoms: C_3  and  O_6 
REMARK    3  A    between atoms: C_3  and  C_4 
REMARK    4  A    between atoms: C_7  and  O_6 
REMARK    5  A    between atoms: C_9  and  C_10 
REMARK    6  A    between atoms: N_15  and  C_14 
REMARK    7  A    between atoms: N_20  and  C_19 
REMARK       I    between atoms: C_22  and  N_20 
ROOT
ATOM      1  C   LIG d   1      -3.339  77.387 115.626  0.00  0.00     0.161 C 
ATOM      2  C   LIG d   1      -3.073  77.375 117.006  0.00  0.00     0.016 C 
ATOM      3  C   LIG d   1      -1.998  78.079 117.596  0.00  0.00     0.038 C 
ATOM      4  C   LIG d   1      -1.202  78.970 116.861  0.00  0.00     0.028 C 
ATOM      5  C   LIG d   1      -1.118  78.625 115.378  0.00  0.00    -0.047 C 
ATOM      6  C   LIG d   1      -2.549  78.442 114.824  0.00  0.00     0.091 C 
ENDROOT
BRANCH   1   7
ATOM      7  O   LIG d   1      -4.755  77.545 115.404  0.00  0.00    -0.368 OA
BRANCH   7   8
ATOM      8  C   LIG d   1      -5.582  76.399 115.725  0.00  0.00     0.119 C 
BRANCH   8   9
ATOM      9  C   LIG d   1      -5.925  75.690 114.401  0.00  0.00     0.028 C 
ATOM     10  C   LIG d   1      -5.627  74.182 114.449  0.00  0.00     0.006 C 
ENDBRANCH   8   9
BRANCH   8  11
ATOM     11  C   LIG d   1      -6.928  76.832 116.314  0.00  0.00     0.028 C 
ATOM     12  C   LIG d   1      -7.555  75.760 117.219  0.00  0.00     0.006 C 
ENDBRANCH   8  11
ENDBRANCH   7   8
ENDBRANCH   1   7
BRANCH   6  13
ATOM     13  N   LIG d   1      -2.555  78.020 113.399  0.00  0.00    -0.311 N 
ATOM     14  C   LIG d   1      -2.713  78.868 112.384  0.00  0.00     0.210 C 
ATOM     15  C   LIG d   1      -2.708  78.222 110.995  0.00  0.00     0.109 C 
ATOM     16  O   LIG d   1      -2.824  80.098 112.500  0.00  0.00    -0.276 OA
ATOM     17  H   LIG d   1      -2.440  77.043 113.212  0.00  0.00     0.149 HD
ENDBRANCH   6  13
BRANCH   5  18
ATOM     18  N   LIG d   1      -0.374  79.710 114.710  0.00  0.00     0.381 N 
ATOM     19  H   LIG d   1       0.089  79.352 113.898  0.00  0.00    -0.090 HD
ATOM     20  H   LIG d   1       0.324  80.062 115.341  0.00  0.00    -0.090 HD
ATOM     21  H   LIG d   1      -0.998  80.442 114.450  0.00  0.00    -0.090 HD
ENDBRANCH   5  18
BRANCH   3  22
ATOM     22  C   LIG d   1      -1.686  77.864 118.930  0.00  0.00     0.382 C 
ATOM     23  O   LIG d   1      -2.401  77.103 119.626  0.00  0.00    -0.241 OA
ATOM     24  O   LIG d   1      -0.725  78.456 119.458  0.00  0.00    -0.241 OA
ENDBRANCH   3  22
TORSDOF 7
ENDMDL
MODEL 5
REMARK VINA RESULT:      -4.6      2.768      3.516
REMARK  7 active torsions:
REMARK  status: ('A' for Active; 'I' for Inactive)
REMARK    1  A    between atoms: C_2  and  C_3 
REMARK    2  A    between atoms: C_3  and  O_6 
REMARK    3  A    between atoms: C_3  and  C_4 
REMARK    4  A    between atoms: C_7  and  O_6 
REMARK    5  A    between atoms: C_9  and  C_10 
REMARK    6  A    between atoms: N_15  and  C_14 
REMARK    7  A    between atoms: N_20  and  C_19 
REMARK       I    between atoms: C_22  and  N_20 
ROOT
ATOM      1  C   LIG d   1      -3.592  77.878 116.898  0.00  0.00     0.161 C 
ATOM      2  C   LIG d   1      -2.731  78.831 117.465  0.00  0.00     0.016 C 
ATOM      3  C   LIG d   1      -1.345  78.890 117.189  0.00  0.00     0.038 C 
ATOM      4  C   LIG d   1      -0.751  78.087 116.204  0.00  0.00     0.028 C 
ATOM      5  C   LIG d   1      -1.484  76.770 115.973  0.00  0.00    -0.047 C 
ATOM      6  C   LIG d   1      -2.983  77.064 115.737  0.00  0.00     0.091 C 
ENDROOT
BRANCH   1   7
ATOM      7  O   LIG d   1      -4.815  78.513 116.477  0.00  0.00    -0.368 OA
BRANCH   7   8
ATOM      8  C   LIG d   1      -5.913  78.474 117.422  0.00  0.00     0.119 C 
BRANCH   8   9
ATOM      9  C   LIG d   1      -7.048  77.655 116.779  0.00  0.00     0.028 C 
ATOM     10  C   LIG d   1      -7.195  76.260 117.411  0.00  0.00     0.006 C 
ENDBRANCH   8   9
BRANCH   8  11
ATOM     11  C   LIG d   1      -6.500  79.870 117.652  0.00  0.00     0.028 C 
ATOM     12  C   LIG d   1      -8.000  79.838 117.985  0.00  0.00     0.006 C 
ENDBRANCH   8  11
ENDBRANCH   7   8
ENDBRANCH   1   7
BRANCH   6  13
ATOM     13  N   LIG d   1      -3.787  75.824 115.586  0.00  0.00    -0.311 N 
ATOM     14  C   LIG d   1      -4.723  75.667 114.651  0.00  0.00     0.210 C 
ATOM     15  C   LIG d   1      -5.449  74.318 114.683  0.00  0.00     0.109 C 
ATOM     16  O   LIG d   1      -4.999  76.504 113.778  0.00  0.00    -0.276 OA
ATOM     17  H   LIG d   1      -3.607  75.082 116.233  0.00  0.00     0.149 HD
ENDBRANCH   6  13
BRANCH   5  18
ATOM     18  N   LIG d   1      -0.840  76.096 114.829  0.00  0.00     0.381 N 
ATOM     19  H   LIG d   1      -0.712  76.747 114.081  0.00  0.00    -0.090 HD
ATOM     20  H   LIG d   1      -1.441  75.358 114.506  0.00  0.00    -0.090 HD
ATOM     21  H   LIG d   1       0.040  75.721 115.106  0.00  0.00    -0.090 HD
ENDBRANCH   5  18
BRANCH   3  22
ATOM     22  C   LIG d   1      -0.531  79.732 117.932  0.00  0.00     0.382 C 
ATOM     23  O   LIG d   1      -0.492  79.625 119.181  0.00  0.00    -0.241 OA
ATOM     24  O   LIG d   1       0.130  80.627 117.372  0.00  0.00    -0.241 OA
ENDBRANCH   3  22
TORSDOF 7
ENDMDL
MODEL 6
REMARK VINA RESULT:      -4.5      3.766      5.812
REMARK  7 active torsions:
REMARK  status: ('A' for Active; 'I' for Inactive)
REMARK    1  A    between atoms: C_2  and  C_3 
REMARK    2  A    between atoms: C_3  and  O_6 
REMARK    3  A    between atoms: C_3  and  C_4 
REMARK    4  A    between atoms: C_7  and  O_6 
REMARK    5  A    between atoms: C_9  and  C_10 
REMARK    6  A    between atoms: N_15  and  C_14 
REMARK    7  A    between atoms: N_20  and  C_19 
REMARK       I    between atoms: C_22  and  N_20 
ROOT
ATOM      1  C   LIG d   1      -6.053  77.783 117.173  0.00  0.00     0.161 C 
ATOM      2  C   LIG d   1      -6.610  79.013 117.561  0.00  0.00     0.016 C 
ATOM      3  C   LIG d   1      -7.990  79.199 117.805  0.00  0.00     0.038 C 
ATOM      4  C   LIG d   1      -8.892  78.125 117.823  0.00  0.00     0.028 C 
ATOM      5  C   LIG d   1      -8.459  76.956 116.943  0.00  0.00    -0.047 C 
ATOM      6  C   LIG d   1      -7.004  76.574 117.296  0.00  0.00     0.091 C 
ENDROOT
BRANCH   1   7
ATOM      7  O   LIG d   1      -4.838  77.542 117.911  0.00  0.00    -0.368 OA
BRANCH   7   8
ATOM      8  C   LIG d   1      -3.612  77.543 117.139  0.00  0.00     0.119 C 
BRANCH   8   9
ATOM      9  C   LIG d   1      -3.017  76.123 117.213  0.00  0.00     0.028 C 
ATOM     10  C   LIG d   1      -2.519  75.623 115.847  0.00  0.00     0.006 C 
ENDBRANCH   8   9
BRANCH   8  11
ATOM     11  C   LIG d   1      -2.558  78.458 117.768  0.00  0.00     0.028 C 
ATOM     12  C   LIG d   1      -3.154  79.439 118.791  0.00  0.00     0.006 C 
ENDBRANCH   8  11
ENDBRANCH   7   8
ENDBRANCH   1   7
BRANCH   6  13
ATOM     13  N   LIG d   1      -6.474  75.494 116.423  0.00  0.00    -0.311 N 
ATOM     14  C   LIG d   1      -6.224  75.657 115.125  0.00  0.00     0.210 C 
ATOM     15  C   LIG d   1      -5.701  74.410 114.406  0.00  0.00     0.109 C 
ATOM     16  O   LIG d   1      -6.356  76.725 114.508  0.00  0.00    -0.276 OA
ATOM     17  H   LIG d   1      -6.308  74.604 116.849  0.00  0.00     0.149 HD
ENDBRANCH   6  13
BRANCH   5  18
ATOM     18  N   LIG d   1      -9.416  75.855 117.163  0.00  0.00     0.381 N 
ATOM     19  H   LIG d   1      -8.926  74.983 117.199  0.00  0.00    -0.090 HD
ATOM     20  H   LIG d   1     -10.059  75.824 116.392  0.00  0.00    -0.090 HD
ATOM     21  H   LIG d   1      -9.913  76.000 118.014  0.00  0.00    -0.090 HD
ENDBRANCH   5  18
BRANCH   3  22
ATOM     22  C   LIG d   1      -8.488  80.480 117.994  0.00  0.00     0.382 C 
ATOM     23  O   LIG d   1      -9.185  80.738 119.005  0.00  0.00    -0.241 OA
ATOM     24  O   LIG d   1      -8.285  81.368 117.145  0.00  0.00    -0.241 OA
ENDBRANCH   3  22
TORSDOF 7
ENDMDL
MODEL 7
REMARK VINA RESULT:      -4.4      2.592      4.913
REMARK  7 active torsions:
REMARK  status: ('A' for Active; 'I' for Inactive)
REMARK    1  A    between atoms: C_2  and  C_3 
REMARK    2  A    between atoms: C_3  and  O_6 
REMARK    3  A    between atoms: C_3  and  C_4 
REMARK    4  A    between atoms: C_7  and  O_6 
REMARK    5  A    between atoms: C_9  and  C_10 
REMARK    6  A    between atoms: N_15  and  C_14 
REMARK    7  A    between atoms: N_20  and  C_19 
REMARK       I    between atoms: C_22  and  N_20 
ROOT
ATOM      1  C   LIG d   1      -3.172  78.138 115.857  0.00  0.00     0.161 C 
ATOM      2  C   LIG d   1      -2.089  78.968 116.191  0.00  0.00     0.016 C 
ATOM      3  C   LIG d   1      -1.105  78.617 117.145  0.00  0.00     0.038 C 
ATOM      4  C   LIG d   1      -1.055  77.339 117.722  0.00  0.00     0.028 C 
ATOM      5  C   LIG d   1      -2.415  76.652 117.793  0.00  0.00    -0.047 C 
ATOM      6  C   LIG d   1      -3.072  76.695 116.394  0.00  0.00     0.091 C 
ENDROOT
BRANCH   1   7
ATOM      7  O   LIG d   1      -3.357  78.129 114.427  0.00  0.00    -0.368 OA
BRANCH   7   8
ATOM      8  C   LIG d   1      -2.159  78.293 113.629  0.00  0.00     0.119 C 
BRANCH   8   9
ATOM      9  C   LIG d   1      -2.540  79.126 112.389  0.00  0.00     0.028 C 
ATOM     10  C   LIG d   1      -2.134  78.439 111.074  0.00  0.00     0.006 C 
ENDBRANCH   8   9
BRANCH   8  11
ATOM     11  C   LIG d   1      -1.666  76.951 113.080  0.00  0.00     0.028 C 
ATOM     12  C   LIG d   1      -0.619  76.285 113.986  0.00  0.00     0.006 C 
ENDBRANCH   8  11
ENDBRANCH   7   8
ENDBRANCH   1   7
BRANCH   6  13
ATOM     13  N   LIG d   1      -4.442  76.119 116.394  0.00  0.00    -0.311 N 
ATOM     14  C   LIG d   1      -4.894  75.304 115.442  0.00  0.00     0.210 C 
ATOM     15  C   LIG d   1      -6.343  74.840 115.623  0.00  0.00     0.109 C 
ATOM     16  O   LIG d   1      -4.222  74.895 114.483  0.00  0.00    -0.276 OA
ATOM     17  H   LIG d   1      -5.044  76.373 117.152  0.00  0.00     0.149 HD
ENDBRANCH   6  13
BRANCH   5  18
ATOM     18  N   LIG d   1      -2.196  75.280 118.286  0.00  0.00     0.381 N 
ATOM     19  H   LIG d   1      -2.876  74.664 117.889  0.00  0.00    -0.090 HD
ATOM     20  H   LIG d   1      -2.308  75.272 119.285  0.00  0.00    -0.090 HD
ATOM     21  H   LIG d   1      -1.279  74.973 118.046  0.00  0.00    -0.090 HD
ENDBRANCH   5  18
BRANCH   3  22
ATOM     22  C   LIG d   1      -0.181  79.563 117.560  0.00  0.00     0.382 C 
ATOM     23  O   LIG d   1       0.302  80.373 116.731  0.00  0.00    -0.241 OA
ATOM     24  O   LIG d   1       0.209  79.590 118.742  0.00  0.00    -0.241 OA
ENDBRANCH   3  22
TORSDOF 7
ENDMDL
MODEL 8
REMARK VINA RESULT:      -4.4      3.215      4.577
REMARK  7 active torsions:
REMARK  status: ('A' for Active; 'I' for Inactive)
REMARK    1  A    between atoms: C_2  and  C_3 
REMARK    2  A    between atoms: C_3  and  O_6 
REMARK    3  A    between atoms: C_3  and  C_4 
REMARK    4  A    between atoms: C_7  and  O_6 
REMARK    5  A    between atoms: C_9  and  C_10 
REMARK    6  A    between atoms: N_15  and  C_14 
REMARK    7  A    between atoms: N_20  and  C_19 
REMARK       I    between atoms: C_22  and  N_20 
ROOT
ATOM      1  C   LIG d   1      -5.087  76.955 117.569  0.00  0.00     0.161 C 
ATOM      2  C   LIG d   1      -5.880  78.094 117.787  0.00  0.00     0.016 C 
ATOM      3  C   LIG d   1      -5.433  79.413 117.544  0.00  0.00     0.038 C 
ATOM      4  C   LIG d   1      -4.205  79.676 116.919  0.00  0.00     0.028 C 
ATOM      5  C   LIG d   1      -3.164  78.584 117.146  0.00  0.00    -0.047 C 
ATOM      6  C   LIG d   1      -3.785  77.216 116.783  0.00  0.00     0.091 C 
ENDROOT
BRANCH   1   7
ATOM      7  O   LIG d   1      -5.867  75.933 116.919  0.00  0.00    -0.368 OA
BRANCH   7   8
ATOM      8  C   LIG d   1      -6.941  76.397 116.064  0.00  0.00     0.119 C 
BRANCH   8   9
ATOM      9  C   LIG d   1      -8.212  75.617 116.452  0.00  0.00     0.028 C 
ATOM     10  C   LIG d   1      -9.187  76.463 117.289  0.00  0.00     0.006 C 
ENDBRANCH   8   9
BRANCH   8  11
ATOM     11  C   LIG d   1      -6.679  76.041 114.598  0.00  0.00     0.028 C 
ATOM     12  C   LIG d   1      -5.873  74.742 114.435  0.00  0.00     0.006 C 
ENDBRANCH   8  11
ENDBRANCH   7   8
ENDBRANCH   1   7
BRANCH   6  13
ATOM     13  N   LIG d   1      -2.861  76.084 117.055  0.00  0.00    -0.311 N 
ATOM     14  C   LIG d   1      -2.360  75.301 116.101  0.00  0.00     0.210 C 
ATOM     15  C   LIG d   1      -1.443  74.180 116.600  0.00  0.00     0.109 C 
ATOM     16  O   LIG d   1      -2.562  75.448 114.886  0.00  0.00    -0.276 OA
ATOM     17  H   LIG d   1      -2.619  75.913 118.011  0.00  0.00     0.149 HD
ENDBRANCH   6  13
BRANCH   5  18
ATOM     18  N   LIG d   1      -1.983  78.919 116.328  0.00  0.00     0.381 N 
ATOM     19  H   LIG d   1      -1.325  79.434 116.878  0.00  0.00    -0.090 HD
ATOM     20  H   LIG d   1      -2.273  79.497 115.559  0.00  0.00    -0.090 HD
ATOM     21  H   LIG d   1      -1.559  78.085 115.985  0.00  0.00    -0.090 HD
ENDBRANCH   5  18
BRANCH   3  22
ATOM     22  C   LIG d   1      -6.201  80.488 117.965  0.00  0.00     0.382 C 
ATOM     23  O   LIG d   1      -7.253  80.785 117.350  0.00  0.00    -0.241 OA
ATOM     24  O   LIG d   1      -5.832  81.191 118.925  0.00  0.00    -0.241 OA
ENDBRANCH   3  22
TORSDOF 7
ENDMDL
MODEL 9
REMARK VINA RESULT:      -4.3      3.550      5.475
REMARK  7 active torsions:
REMARK  status: ('A' for Active; 'I' for Inactive)
REMARK    1  A    between atoms: C_2  and  C_3 
REMARK    2  A    between atoms: C_3  and  O_6 
REMARK    3  A    between atoms: C_3  and  C_4 
REMARK    4  A    between atoms: C_7  and  O_6 
REMARK    5  A    between atoms: C_9  and  C_10 
REMARK    6  A    between atoms: N_15  and  C_14 
REMARK    7  A    between atoms: N_20  and  C_19 
REMARK       I    between atoms: C_22  and  N_20 
ROOT
ATOM      1  C   LIG d   1      -6.556  77.480 117.379  0.00  0.00     0.161 C 
ATOM      2  C   LIG d   1      -6.644  76.766 116.172  0.00  0.00     0.016 C 
ATOM      3  C   LIG d   1      -5.516  76.286 115.468  0.00  0.00     0.038 C 
ATOM      4  C   LIG d   1      -4.222  76.356 116.005  0.00  0.00     0.028 C 
ATOM      5  C   LIG d   1      -4.033  77.513 116.980  0.00  0.00    -0.047 C 
ATOM      6  C   LIG d   1      -5.160  77.469 118.036  0.00  0.00     0.091 C 
ENDROOT
BRANCH   1   7
ATOM      7  O   LIG d   1      -7.549  76.998 118.306  0.00  0.00    -0.368 OA
BRANCH   7   8
ATOM      8  C   LIG d   1      -8.511  77.975 118.775  0.00  0.00     0.119 C 
BRANCH   8   9
ATOM      9  C   LIG d   1      -9.910  77.341 118.656  0.00  0.00     0.028 C 
ATOM     10  C   LIG d   1     -10.060  76.481 117.390  0.00  0.00     0.006 C 
ENDBRANCH   8   9
BRANCH   8  11
ATOM     11  C   LIG d   1      -8.544  79.206 117.865  0.00  0.00     0.028 C 
ATOM     12  C   LIG d   1      -9.626  80.219 118.272  0.00  0.00     0.006 C 
ENDBRANCH   8  11
ENDBRANCH   7   8
ENDBRANCH   1   7
BRANCH   6  13
ATOM     13  N   LIG d   1      -5.098  78.616 118.979  0.00  0.00    -0.311 N 
ATOM     14  C   LIG d   1      -5.114  79.889 118.588  0.00  0.00     0.210 C 
ATOM     15  C   LIG d   1      -5.021  80.915 119.721  0.00  0.00     0.109 C 
ATOM     16  O   LIG d   1      -5.228  80.266 117.412  0.00  0.00    -0.276 OA
ATOM     17  H   LIG d   1      -5.035  78.401 119.955  0.00  0.00     0.149 HD
ENDBRANCH   6  13
BRANCH   5  18
ATOM     18  N   LIG d   1      -2.685  77.386 117.566  0.00  0.00     0.381 N 
ATOM     19  H   LIG d   1      -2.112  78.149 117.266  0.00  0.00    -0.090 HD
ATOM     20  H   LIG d   1      -2.269  76.531 117.241  0.00  0.00    -0.090 HD
ATOM     21  H   LIG d   1      -2.746  77.377 118.561  0.00  0.00    -0.090 HD
ENDBRANCH   5  18
BRANCH   3  22
ATOM     22  C   LIG d   1      -5.673  75.763 114.194  0.00  0.00     0.382 C 
ATOM     23  O   LIG d   1      -6.071  76.499 113.259  0.00  0.00    -0.241 OA
ATOM     24  O   LIG d   1      -5.465  74.554 113.977  0.00  0.00    -0.241 OA
ENDBRANCH   3  22
TORSDOF 7
ENDMDL
