MODEL 1
REMARK VINA RESULT:      -5.5      0.000      0.000
REMARK  7 active torsions:
REMARK  status: ('A' for Active; 'I' for Inactive)
REMARK    1  A    between atoms: C_2  and  C_3 
REMARK    2  A    between atoms: C_3  and  O_6 
REMARK    3  A    between atoms: C_3  and  C_4 
REMARK    4  A    between atoms: C_7  and  O_6 
REMARK    5  A    between atoms: C_9  and  C_10 
REMARK    6  A    between atoms: N_15  and  C_14 
REMARK    7  A    between atoms: N_20  and  C_19 
REMARK       I    between atoms: C_22  and  N_20 
ROOT
ATOM      1  C   LIG d   1      -3.286  77.670 114.348  0.00  0.00     0.161 C 
ATOM      2  C   LIG d   1      -3.288  77.822 112.952  0.00  0.00     0.016 C 
ATOM      3  C   LIG d   1      -2.215  77.418 112.124  0.00  0.00     0.038 C 
ATOM      4  C   LIG d   1      -1.125  76.691 112.625  0.00  0.00     0.028 C 
ATOM      5  C   LIG d   1      -0.844  76.960 114.100  0.00  0.00    -0.047 C 
ATOM      6  C   LIG d   1      -2.154  76.779 114.901  0.00  0.00     0.091 C 
ENDROOT
BRANCH   1   7
ATOM      7  O   LIG d   1      -4.569  77.180 114.788  0.00  0.00    -0.368 OA
BRANCH   7   8
ATOM      8  C   LIG d   1      -5.169  76.144 113.971  0.00  0.00     0.119 C 
BRANCH   8   9
ATOM      9  C   LIG d   1      -6.671  76.465 113.848  0.00  0.00     0.028 C 
ATOM     10  C   LIG d   1      -7.060  76.915 112.429  0.00  0.00     0.006 C 
ENDBRANCH   8   9
BRANCH   8  11
ATOM     11  C   LIG d   1      -5.102  74.780 114.664  0.00  0.00     0.028 C 
ATOM     12  C   LIG d   1      -5.270  74.876 116.188  0.00  0.00     0.006 C 
ENDBRANCH   8  11
ENDBRANCH   7   8
ENDBRANCH   1   7
BRANCH   6  13
ATOM     13  N   LIG d   1      -1.987  77.104 116.341  0.00  0.00    -0.311 N 
ATOM     14  C   LIG d   1      -1.813  76.182 117.286  0.00  0.00     0.210 C 
ATOM     15  C   LIG d   1      -1.682  76.731 118.710  0.00  0.00     0.109 C 
ATOM     16  O   LIG d   1      -1.723  74.963 117.076  0.00  0.00    -0.276 OA
ATOM     17  H   LIG d   1      -2.016  78.072 116.596  0.00  0.00     0.149 HD
ENDBRANCH   6  13
BRANCH   5  18
ATOM     18  N   LIG d   1       0.225  76.037 114.525  0.00  0.00     0.381 N 
ATOM     19  H   LIG d   1       0.924  76.541 115.034  0.00  0.00    -0.090 HD
ATOM     20  H   LIG d   1       0.656  75.640 113.708  0.00  0.00    -0.090 HD
ATOM     21  H   LIG d   1      -0.155  75.313 115.094  0.00  0.00    -0.090 HD
ENDBRANCH   5  18
BRANCH   3  22
ATOM     22  C   LIG d   1      -2.208  77.776 110.784  0.00  0.00     0.382 C 
ATOM     23  O   LIG d   1      -3.044  77.272 109.996  0.00  0.00    -0.241 OA
ATOM     24  O   LIG d   1      -1.349  78.564 110.346  0.00  0.00    -0.241 OA
ENDBRANCH   3  22
TORSDOF 7
ENDMDL
MODEL 2
REMARK VINA RESULT:      -5.2      1.908      2.293
REMARK  7 active torsions:
REMARK  status: ('A' for Active; 'I' for Inactive)
REMARK    1  A    between atoms: C_2  and  C_3 
REMARK    2  A    between atoms: C_3  and  O_6 
REMARK    3  A    between atoms: C_3  and  C_4 
REMARK    4  A    between atoms: C_7  and  O_6 
REMARK    5  A    between atoms: C_9  and  C_10 
REMARK    6  A    between atoms: N_15  and  C_14 
REMARK    7  A    between atoms: N_20  and  C_19 
REMARK       I    between atoms: C_22  and  N_20 
ROOT
ATOM      1  C   LIG d   1      -3.118  77.646 116.291  0.00  0.00     0.161 C 
ATOM      2  C   LIG d   1      -3.345  78.486 115.188  0.00  0.00     0.016 C 
ATOM      3  C   LIG d   1      -2.424  78.645 114.128  0.00  0.00     0.038 C 
ATOM      4  C   LIG d   1      -1.270  77.853 114.024  0.00  0.00     0.028 C 
ATOM      5  C   LIG d   1      -0.752  77.357 115.370  0.00  0.00    -0.047 C 
ATOM      6  C   LIG d   1      -1.915  76.691 116.140  0.00  0.00     0.091 C 
ENDROOT
BRANCH   1   7
ATOM      7  O   LIG d   1      -4.314  76.901 116.593  0.00  0.00    -0.368 OA
BRANCH   7   8
ATOM      8  C   LIG d   1      -5.164  76.575 115.466  0.00  0.00     0.119 C 
BRANCH   8   9
ATOM      9  C   LIG d   1      -6.625  76.750 115.921  0.00  0.00     0.028 C 
ATOM     10  C   LIG d   1      -6.749  77.646 117.166  0.00  0.00     0.006 C 
ENDBRANCH   8   9
BRANCH   8  11
ATOM     11  C   LIG d   1      -5.034  75.099 115.078  0.00  0.00     0.028 C 
ATOM     12  C   LIG d   1      -5.943  74.182 115.911  0.00  0.00     0.006 C 
ENDBRANCH   8  11
ENDBRANCH   7   8
ENDBRANCH   1   7
BRANCH   6  13
ATOM     13  N   LIG d   1      -1.515  76.252 117.502  0.00  0.00    -0.311 N 
ATOM     14  C   LIG d   1      -1.009  75.049 117.766  0.00  0.00     0.210 C 
ATOM     15  C   LIG d   1      -0.682  74.793 119.240  0.00  0.00     0.109 C 
ATOM     16  O   LIG d   1      -0.769  74.180 116.913  0.00  0.00    -0.276 OA
ATOM     17  H   LIG d   1      -1.646  76.906 118.249  0.00  0.00     0.149 HD
ENDBRANCH   6  13
BRANCH   5  18
ATOM     18  N   LIG d   1       0.368  76.435 115.104  0.00  0.00     0.381 N 
ATOM     19  H   LIG d   1       1.013  76.860 114.467  0.00  0.00    -0.090 HD
ATOM     20  H   LIG d   1       0.007  75.600 114.677  0.00  0.00    -0.090 HD
ATOM     21  H   LIG d   1       0.832  76.208 115.955  0.00  0.00    -0.090 HD
ENDBRANCH   5  18
BRANCH   3  22
ATOM     22  C   LIG d   1      -2.633  79.633 113.178  0.00  0.00     0.382 C 
ATOM     23  O   LIG d   1      -2.085  79.546 112.053  0.00  0.00    -0.241 OA
ATOM     24  O   LIG d   1      -3.327  80.631 113.448  0.00  0.00    -0.241 OA
ENDBRANCH   3  22
TORSDOF 7
ENDMDL
MODEL 3
REMARK VINA RESULT:      -5.0      1.630      1.948
REMARK  7 active torsions:
REMARK  status: ('A' for Active; 'I' for Inactive)
REMARK    1  A    between atoms: C_2  and  C_3 
REMARK    2  A    between atoms: C_3  and  O_6 
REMARK    3  A    between atoms: C_3  and  C_4 
REMARK    4  A    between atoms: C_7  and  O_6 
REMARK    5  A    between atoms: C_9  and  C_10 
REMARK    6  A    between atoms: N_15  and  C_14 
REMARK    7  A    between atoms: N_20  and  C_19 
REMARK       I    between atoms: C_22  and  N_20 
ROOT
ATOM      1  C   LIG d   1      -3.101  76.916 115.604  0.00  0.00     0.161 C 
ATOM      2  C   LIG d   1      -3.265  78.082 114.839  0.00  0.00     0.016 C 
ATOM      3  C   LIG d   1      -2.460  78.400 113.721  0.00  0.00     0.038 C 
ATOM      4  C   LIG d   1      -1.525  77.493 113.199  0.00  0.00     0.028 C 
ATOM      5  C   LIG d   1      -0.977  76.522 114.239  0.00  0.00    -0.047 C 
ATOM      6  C   LIG d   1      -2.160  75.862 114.983  0.00  0.00     0.091 C 
ENDROOT
BRANCH   1   7
ATOM      7  O   LIG d   1      -4.387  76.333 115.890  0.00  0.00    -0.368 OA
BRANCH   7   8
ATOM      8  C   LIG d   1      -4.983  75.551 114.825  0.00  0.00     0.119 C 
BRANCH   8   9
ATOM      9  C   LIG d   1      -6.223  76.319 114.326  0.00  0.00     0.028 C 
ATOM     10  C   LIG d   1      -6.125  76.686 112.836  0.00  0.00     0.006 C 
ENDBRANCH   8   9
BRANCH   8  11
ATOM     11  C   LIG d   1      -5.517  74.214 115.348  0.00  0.00     0.028 C 
ATOM     12  C   LIG d   1      -6.469  74.379 116.543  0.00  0.00     0.006 C 
ENDBRANCH   8  11
ENDBRANCH   7   8
ENDBRANCH   1   7
BRANCH   6  13
ATOM     13  N   LIG d   1      -1.711  74.961 116.076  0.00  0.00    -0.311 N 
ATOM     14  C   LIG d   1      -0.968  75.368 117.104  0.00  0.00     0.210 C 
ATOM     15  C   LIG d   1      -0.598  74.273 118.109  0.00  0.00     0.109 C 
ATOM     16  O   LIG d   1      -0.608  76.539 117.296  0.00  0.00    -0.276 OA
ATOM     17  H   LIG d   1      -1.984  74.000 116.016  0.00  0.00     0.149 HD
ENDBRANCH   6  13
BRANCH   5  18
ATOM     18  N   LIG d   1      -0.122  75.549 113.534  0.00  0.00     0.381 N 
ATOM     19  H   LIG d   1       0.599  76.031 113.035  0.00  0.00    -0.090 HD
ATOM     20  H   LIG d   1      -0.683  75.046 112.869  0.00  0.00    -0.090 HD
ATOM     21  H   LIG d   1       0.282  74.914 114.186  0.00  0.00    -0.090 HD
ENDBRANCH   5  18
BRANCH   3  22
ATOM     22  C   LIG d   1      -2.557  79.654 113.138  0.00  0.00     0.382 C 
ATOM     23  O   LIG d   1      -3.351  80.505 113.609  0.00  0.00    -0.241 OA
ATOM     24  O   LIG d   1      -1.894  79.931 112.121  0.00  0.00    -0.241 OA
ENDBRANCH   3  22
TORSDOF 7
ENDMDL
MODEL 4
REMARK VINA RESULT:      -4.8      2.096      4.262
REMARK  7 active torsions:
REMARK  status: ('A' for Active; 'I' for Inactive)
REMARK    1  A    between atoms: C_2  and  C_3 
REMARK    2  A    between atoms: C_3  and  O_6 
REMARK    3  A    between atoms: C_3  and  C_4 
REMARK    4  A    between atoms: C_7  and  O_6 
REMARK    5  A    between atoms: C_9  and  C_10 
REMARK    6  A    between atoms: N_15  and  C_14 
REMARK    7  A    between atoms: N_20  and  C_19 
REMARK       I    between atoms: C_22  and  N_20 
ROOT
ATOM      1  C   LIG d   1      -3.224  76.319 114.377  0.00  0.00     0.161 C 
ATOM      2  C   LIG d   1      -4.205  76.776 113.481  0.00  0.00     0.016 C 
ATOM      3  C   LIG d   1      -5.573  76.432 113.584  0.00  0.00     0.038 C 
ATOM      4  C   LIG d   1      -6.079  75.725 114.685  0.00  0.00     0.028 C 
ATOM      5  C   LIG d   1      -5.049  74.817 115.347  0.00  0.00    -0.047 C 
ATOM      6  C   LIG d   1      -3.775  75.638 115.647  0.00  0.00     0.091 C 
ENDROOT
BRANCH   1   7
ATOM      7  O   LIG d   1      -2.343  77.403 114.731  0.00  0.00    -0.368 OA
BRANCH   7   8
ATOM      8  C   LIG d   1      -1.039  77.397 114.101  0.00  0.00     0.119 C 
BRANCH   8   9
ATOM      9  C   LIG d   1      -1.121  78.306 112.859  0.00  0.00     0.028 C 
ATOM     10  C   LIG d   1      -1.990  79.552 113.101  0.00  0.00     0.006 C 
ENDBRANCH   8   9
BRANCH   8  11
ATOM     11  C   LIG d   1      -0.687  76.007 113.562  0.00  0.00     0.028 C 
ATOM     12  C   LIG d   1       0.395  75.302 114.395  0.00  0.00     0.006 C 
ENDBRANCH   8  11
ENDBRANCH   7   8
ENDBRANCH   1   7
BRANCH   6  13
ATOM     13  N   LIG d   1      -2.685  74.805 116.219  0.00  0.00    -0.311 N 
ATOM     14  C   LIG d   1      -1.947  75.179 117.262  0.00  0.00     0.210 C 
ATOM     15  C   LIG d   1      -0.863  74.180 117.679  0.00  0.00     0.109 C 
ATOM     16  O   LIG d   1      -2.107  76.230 117.902  0.00  0.00    -0.276 OA
ATOM     17  H   LIG d   1      -2.508  73.922 115.781  0.00  0.00     0.149 HD
ENDBRANCH   6  13
BRANCH   5  18
ATOM     18  N   LIG d   1      -5.670  74.248 116.558  0.00  0.00     0.381 N 
ATOM     19  H   LIG d   1      -6.496  73.742 116.310  0.00  0.00    -0.090 HD
ATOM     20  H   LIG d   1      -5.933  74.999 117.172  0.00  0.00    -0.090 HD
ATOM     21  H   LIG d   1      -5.027  73.642 117.019  0.00  0.00    -0.090 HD
ENDBRANCH   5  18
BRANCH   3  22
ATOM     22  C   LIG d   1      -6.443  76.763 112.556  0.00  0.00     0.382 C 
ATOM     23  O   LIG d   1      -7.654  76.977 112.805  0.00  0.00    -0.241 OA
ATOM     24  O   LIG d   1      -6.042  76.806 111.378  0.00  0.00    -0.241 OA
ENDBRANCH   3  22
TORSDOF 7
ENDMDL
MODEL 5
REMARK VINA RESULT:      -4.8      2.389      2.987
REMARK  7 active torsions:
REMARK  status: ('A' for Active; 'I' for Inactive)
REMARK    1  A    between atoms: C_2  and  C_3 
REMARK    2  A    between atoms: C_3  and  O_6 
REMARK    3  A    between atoms: C_3  and  C_4 
REMARK    4  A    between atoms: C_7  and  O_6 
REMARK    5  A    between atoms: C_9  and  C_10 
REMARK    6  A    between atoms: N_15  and  C_14 
REMARK    7  A    between atoms: N_20  and  C_19 
REMARK       I    between atoms: C_22  and  N_20 
ROOT
ATOM      1  C   LIG d   1      -3.156  77.794 114.736  0.00  0.00     0.161 C 
ATOM      2  C   LIG d   1      -3.266  79.115 114.270  0.00  0.00     0.016 C 
ATOM      3  C   LIG d   1      -2.557  79.606 113.150  0.00  0.00     0.038 C 
ATOM      4  C   LIG d   1      -1.801  78.763 112.323  0.00  0.00     0.028 C 
ATOM      5  C   LIG d   1      -1.258  77.534 113.045  0.00  0.00    -0.047 C 
ATOM      6  C   LIG d   1      -2.421  76.830 113.781  0.00  0.00     0.091 C 
ENDROOT
BRANCH   1   7
ATOM      7  O   LIG d   1      -4.463  77.280 115.059  0.00  0.00    -0.368 OA
BRANCH   7   8
ATOM      8  C   LIG d   1      -4.702  76.980 116.457  0.00  0.00     0.119 C 
BRANCH   8   9
ATOM      9  C   LIG d   1      -5.655  75.770 116.514  0.00  0.00     0.028 C 
ATOM     10  C   LIG d   1      -5.322  74.710 115.451  0.00  0.00     0.006 C 
ENDBRANCH   8   9
BRANCH   8  11
ATOM     11  C   LIG d   1      -5.453  78.121 117.150  0.00  0.00     0.028 C 
ATOM     12  C   LIG d   1      -6.946  77.817 117.349  0.00  0.00     0.006 C 
ENDBRANCH   8  11
ENDBRANCH   7   8
ENDBRANCH   1   7
BRANCH   6  13
ATOM     13  N   LIG d   1      -1.963  75.666 114.582  0.00  0.00    -0.311 N 
ATOM     14  C   LIG d   1      -1.056  75.755 115.553  0.00  0.00     0.210 C 
ATOM     15  C   LIG d   1      -0.711  74.430 116.240  0.00  0.00     0.109 C 
ATOM     16  O   LIG d   1      -0.527  76.811 115.932  0.00  0.00    -0.276 OA
ATOM     17  H   LIG d   1      -2.364  74.775 114.362  0.00  0.00     0.149 HD
ENDBRANCH   6  13
BRANCH   5  18
ATOM     18  N   LIG d   1      -0.608  76.675 112.037  0.00  0.00     0.381 N 
ATOM     19  H   LIG d   1      -0.246  75.852 112.475  0.00  0.00    -0.090 HD
ATOM     20  H   LIG d   1       0.159  77.178 111.627  0.00  0.00    -0.090 HD
ATOM     21  H   LIG d   1      -1.264  76.423 111.330  0.00  0.00    -0.090 HD
ENDBRANCH   5  18
BRANCH   3  22
ATOM     22  C   LIG d   1      -2.570  80.964 112.870  0.00  0.00     0.382 C 
ATOM     23  O   LIG d   1      -1.506  81.549 112.553  0.00  0.00    -0.241 OA
ATOM     24  O   LIG d   1      -3.623  81.621 112.975  0.00  0.00    -0.241 OA
ENDBRANCH   3  22
TORSDOF 7
ENDMDL
MODEL 6
REMARK VINA RESULT:      -4.7      1.301      1.682
REMARK  7 active torsions:
REMARK  status: ('A' for Active; 'I' for Inactive)
REMARK    1  A    between atoms: C_2  and  C_3 
REMARK    2  A    between atoms: C_3  and  O_6 
REMARK    3  A    between atoms: C_3  and  C_4 
REMARK    4  A    between atoms: C_7  and  O_6 
REMARK    5  A    between atoms: C_9  and  C_10 
REMARK    6  A    between atoms: N_15  and  C_14 
REMARK    7  A    between atoms: N_20  and  C_19 
REMARK       I    between atoms: C_22  and  N_20 
ROOT
ATOM      1  C   LIG d   1      -2.876  78.445 114.827  0.00  0.00     0.161 C 
ATOM      2  C   LIG d   1      -2.990  78.445 113.427  0.00  0.00     0.016 C 
ATOM      3  C   LIG d   1      -2.127  77.717 112.576  0.00  0.00     0.038 C 
ATOM      4  C   LIG d   1      -1.178  76.815 113.078  0.00  0.00     0.028 C 
ATOM      5  C   LIG d   1      -0.691  77.165 114.481  0.00  0.00    -0.047 C 
ATOM      6  C   LIG d   1      -1.917  77.379 115.398  0.00  0.00     0.091 C 
ENDROOT
BRANCH   1   7
ATOM      7  O   LIG d   1      -4.181  78.315 115.424  0.00  0.00    -0.368 OA
BRANCH   7   8
ATOM      8  C   LIG d   1      -4.525  77.000 115.925  0.00  0.00     0.119 C 
BRANCH   8   9
ATOM      9  C   LIG d   1      -5.447  76.334 114.885  0.00  0.00     0.028 C 
ATOM     10  C   LIG d   1      -4.878  75.005 114.362  0.00  0.00     0.006 C 
ENDBRANCH   8   9
BRANCH   8  11
ATOM     11  C   LIG d   1      -5.360  77.093 117.206  0.00  0.00     0.028 C 
ATOM     12  C   LIG d   1      -4.835  78.155 118.184  0.00  0.00     0.006 C 
ENDBRANCH   8  11
ENDBRANCH   7   8
ENDBRANCH   1   7
BRANCH   6  13
ATOM     13  N   LIG d   1      -1.532  77.807 116.768  0.00  0.00    -0.311 N 
ATOM     14  C   LIG d   1      -1.374  76.960 117.784  0.00  0.00     0.210 C 
ATOM     15  C   LIG d   1      -0.995  77.613 119.117  0.00  0.00     0.109 C 
ATOM     16  O   LIG d   1      -1.480  75.728 117.700  0.00  0.00    -0.276 OA
ATOM     17  H   LIG d   1      -1.395  78.788 116.917  0.00  0.00     0.149 HD
ENDBRANCH   6  13
BRANCH   5  18
ATOM     18  N   LIG d   1       0.186  76.070 114.934  0.00  0.00     0.381 N 
ATOM     19  H   LIG d   1      -0.324  75.453 115.535  0.00  0.00    -0.090 HD
ATOM     20  H   LIG d   1       0.949  76.461 115.459  0.00  0.00    -0.090 HD
ATOM     21  H   LIG d   1       0.537  75.566 114.150  0.00  0.00    -0.090 HD
ENDBRANCH   5  18
BRANCH   3  22
ATOM     22  C   LIG d   1      -2.181  77.921 111.205  0.00  0.00     0.382 C 
ATOM     23  O   LIG d   1      -3.003  77.277 110.509  0.00  0.00    -0.241 OA
ATOM     24  O   LIG d   1      -1.390  78.706 110.651  0.00  0.00    -0.241 OA
ENDBRANCH   3  22
TORSDOF 7
ENDMDL
MODEL 7
REMARK VINA RESULT:      -4.7      2.921      5.196
REMARK  7 active torsions:
REMARK  status: ('A' for Active; 'I' for Inactive)
REMARK    1  A    between atoms: C_2  and  C_3 
REMARK    2  A    between atoms: C_3  and  O_6 
REMARK    3  A    between atoms: C_3  and  C_4 
REMARK    4  A    between atoms: C_7  and  O_6 
REMARK    5  A    between atoms: C_9  and  C_10 
REMARK    6  A    between atoms: N_15  and  C_14 
REMARK    7  A    between atoms: N_20  and  C_19 
REMARK       I    between atoms: C_22  and  N_20 
ROOT
ATOM      1  C   LIG d   1      -2.124  79.128 114.428  0.00  0.00     0.161 C 
ATOM      2  C   LIG d   1      -3.063  78.089 114.532  0.00  0.00     0.016 C 
ATOM      3  C   LIG d   1      -3.441  77.269 113.443  0.00  0.00     0.038 C 
ATOM      4  C   LIG d   1      -2.788  77.337 112.203  0.00  0.00     0.028 C 
ATOM      5  C   LIG d   1      -2.187  78.707 111.908  0.00  0.00    -0.047 C 
ATOM      6  C   LIG d   1      -1.320  79.144 113.111  0.00  0.00     0.091 C 
ENDROOT
BRANCH   1   7
ATOM      7  O   LIG d   1      -1.231  79.094 115.560  0.00  0.00    -0.368 OA
BRANCH   7   8
ATOM      8  C   LIG d   1      -1.405  77.985 116.475  0.00  0.00     0.119 C 
BRANCH   8   9
ATOM      9  C   LIG d   1      -1.557  78.573 117.891  0.00  0.00     0.028 C 
ATOM     10  C   LIG d   1      -3.028  78.811 118.272  0.00  0.00     0.006 C 
ENDBRANCH   8   9
BRANCH   8  11
ATOM     11  C   LIG d   1      -0.150  77.109 116.533  0.00  0.00     0.028 C 
ATOM     12  C   LIG d   1      -0.109  76.053 115.417  0.00  0.00     0.006 C 
ENDBRANCH   8  11
ENDBRANCH   7   8
ENDBRANCH   1   7
BRANCH   6  13
ATOM     13  N   LIG d   1      -0.762  80.511 112.941  0.00  0.00    -0.311 N 
ATOM     14  C   LIG d   1      -1.517  81.592 112.755  0.00  0.00     0.210 C 
ATOM     15  C   LIG d   1      -0.739  82.901 112.582  0.00  0.00     0.109 C 
ATOM     16  O   LIG d   1      -2.757  81.597 112.749  0.00  0.00    -0.276 OA
ATOM     17  H   LIG d   1       0.235  80.603 112.964  0.00  0.00     0.149 HD
ENDBRANCH   6  13
BRANCH   5  18
ATOM     18  N   LIG d   1      -1.421  78.597 110.653  0.00  0.00     0.381 N 
ATOM     19  H   LIG d   1      -0.445  78.711 110.840  0.00  0.00    -0.090 HD
ATOM     20  H   LIG d   1      -1.710  79.331 110.030  0.00  0.00    -0.090 HD
ATOM     21  H   LIG d   1      -1.584  77.710 110.230  0.00  0.00    -0.090 HD
ENDBRANCH   5  18
BRANCH   3  22
ATOM     22  C   LIG d   1      -4.510  76.397 113.577  0.00  0.00     0.382 C 
ATOM     23  O   LIG d   1      -5.685  76.828 113.488  0.00  0.00    -0.241 OA
ATOM     24  O   LIG d   1      -4.315  75.193 113.831  0.00  0.00    -0.241 OA
ENDBRANCH   3  22
TORSDOF 7
ENDMDL
MODEL 8
REMARK VINA RESULT:      -4.6      2.039      2.589
REMARK  7 active torsions:
REMARK  status: ('A' for Active; 'I' for Inactive)
REMARK    1  A    between atoms: C_2  and  C_3 
REMARK    2  A    between atoms: C_3  and  O_6 
REMARK    3  A    between atoms: C_3  and  C_4 
REMARK    4  A    between atoms: C_7  and  O_6 
REMARK    5  A    between atoms: C_9  and  C_10 
REMARK    6  A    between atoms: N_15  and  C_14 
REMARK    7  A    between atoms: N_20  and  C_19 
REMARK       I    between atoms: C_22  and  N_20 
ROOT
ATOM      1  C   LIG d   1      -3.721  76.927 116.038  0.00  0.00     0.161 C 
ATOM      2  C   LIG d   1      -4.083  77.059 114.687  0.00  0.00     0.016 C 
ATOM      3  C   LIG d   1      -3.158  76.962 113.622  0.00  0.00     0.038 C 
ATOM      4  C   LIG d   1      -1.826  76.574 113.828  0.00  0.00     0.028 C 
ATOM      5  C   LIG d   1      -1.302  76.925 115.217  0.00  0.00    -0.047 C 
ATOM      6  C   LIG d   1      -2.293  76.393 116.277  0.00  0.00     0.091 C 
ENDROOT
BRANCH   1   7
ATOM      7  O   LIG d   1      -4.685  76.102 116.723  0.00  0.00    -0.368 OA
BRANCH   7   8
ATOM      8  C   LIG d   1      -6.038  76.618 116.782  0.00  0.00     0.119 C 
BRANCH   8   9
ATOM      9  C   LIG d   1      -6.141  77.505 118.037  0.00  0.00     0.028 C 
ATOM     10  C   LIG d   1      -6.471  78.968 117.697  0.00  0.00     0.006 C 
ENDBRANCH   8   9
BRANCH   8  11
ATOM     11  C   LIG d   1      -7.055  75.493 116.996  0.00  0.00     0.028 C 
ATOM     12  C   LIG d   1      -8.496  75.923 116.680  0.00  0.00     0.006 C 
ENDBRANCH   8  11
ENDBRANCH   7   8
ENDBRANCH   1   7
BRANCH   6  13
ATOM     13  N   LIG d   1      -1.899  76.767 117.660  0.00  0.00    -0.311 N 
ATOM     14  C   LIG d   1      -1.227  75.955 118.475  0.00  0.00     0.210 C 
ATOM     15  C   LIG d   1      -0.939  76.530 119.866  0.00  0.00     0.109 C 
ATOM     16  O   LIG d   1      -0.815  74.827 118.168  0.00  0.00    -0.276 OA
ATOM     17  H   LIG d   1      -2.166  77.677 117.981  0.00  0.00     0.149 HD
ENDBRANCH   6  13
BRANCH   5  18
ATOM     18  N   LIG d   1       0.048  76.343 115.344  0.00  0.00     0.381 N 
ATOM     19  H   LIG d   1      -0.022  75.355 115.486  0.00  0.00    -0.090 HD
ATOM     20  H   LIG d   1       0.502  76.746 116.144  0.00  0.00    -0.090 HD
ATOM     21  H   LIG d   1       0.579  76.530 114.522  0.00  0.00    -0.090 HD
ENDBRANCH   5  18
BRANCH   3  22
ATOM     22  C   LIG d   1      -3.555  77.295 112.335  0.00  0.00     0.382 C 
ATOM     23  O   LIG d   1      -2.695  77.463 111.437  0.00  0.00    -0.241 OA
ATOM     24  O   LIG d   1      -4.760  77.473 112.072  0.00  0.00    -0.241 OA
ENDBRANCH   3  22
TORSDOF 7
ENDMDL
MODEL 9
REMARK VINA RESULT:      -4.5      2.640      3.798
REMARK  7 active torsions:
REMARK  status: ('A' for Active; 'I' for Inactive)
REMARK    1  A    between atoms: C_2  and  C_3 
REMARK    2  A    between atoms: C_3  and  O_6 
REMARK    3  A    between atoms: C_3  and  C_4 
REMARK    4  A    between atoms: C_7  and  O_6 
REMARK    5  A    between atoms: C_9  and  C_10 
REMARK    6  A    between atoms: N_15  and  C_14 
REMARK    7  A    between atoms: N_20  and  C_19 
REMARK       I    between atoms: C_22  and  N_20 
ROOT
ATOM      1  C   LIG d   1      -3.601  77.855 115.948  0.00  0.00     0.161 C 
ATOM      2  C   LIG d   1      -2.934  76.997 115.058  0.00  0.00     0.016 C 
ATOM      3  C   LIG d   1      -1.948  76.068 115.464  0.00  0.00     0.038 C 
ATOM      4  C   LIG d   1      -1.668  75.828 116.817  0.00  0.00     0.028 C 
ATOM      5  C   LIG d   1      -1.954  77.025 117.717  0.00  0.00    -0.047 C 
ATOM      6  C   LIG d   1      -3.389  77.529 117.442  0.00  0.00     0.091 C 
ENDROOT
BRANCH   1   7
ATOM      7  O   LIG d   1      -5.008  77.884 115.637  0.00  0.00    -0.368 OA
BRANCH   7   8
ATOM      8  C   LIG d   1      -5.807  76.813 116.196  0.00  0.00     0.119 C 
BRANCH   8   9
ATOM      9  C   LIG d   1      -6.177  75.861 115.042  0.00  0.00     0.028 C 
ATOM     10  C   LIG d   1      -5.450  74.509 115.140  0.00  0.00     0.006 C 
ENDBRANCH   8   9
BRANCH   8  11
ATOM     11  C   LIG d   1      -7.142  77.336 116.734  0.00  0.00     0.028 C 
ATOM     12  C   LIG d   1      -8.261  76.284 116.676  0.00  0.00     0.006 C 
ENDBRANCH   8  11
ENDBRANCH   7   8
ENDBRANCH   1   7
BRANCH   6  13
ATOM     13  N   LIG d   1      -3.720  78.751 118.220  0.00  0.00    -0.311 N 
ATOM     14  C   LIG d   1      -4.578  78.761 119.239  0.00  0.00     0.210 C 
ATOM     15  C   LIG d   1      -4.790  80.131 119.892  0.00  0.00     0.109 C 
ATOM     16  O   LIG d   1      -5.157  77.760 119.686  0.00  0.00    -0.276 OA
ATOM     17  H   LIG d   1      -3.271  79.602 117.945  0.00  0.00     0.149 HD
ENDBRANCH   6  13
BRANCH   5  18
ATOM     18  N   LIG d   1      -1.751  76.593 119.113  0.00  0.00     0.381 N 
ATOM     19  H   LIG d   1      -1.717  77.392 119.714  0.00  0.00    -0.090 HD
ATOM     20  H   LIG d   1      -0.871  76.111 119.179  0.00  0.00    -0.090 HD
ATOM     21  H   LIG d   1      -2.491  75.988 119.394  0.00  0.00    -0.090 HD
ENDBRANCH   5  18
BRANCH   3  22
ATOM     22  C   LIG d   1      -1.201  75.397 114.508  0.00  0.00     0.382 C 
ATOM     23  O   LIG d   1      -0.935  74.181 114.660  0.00  0.00    -0.241 OA
ATOM     24  O   LIG d   1      -0.752  76.004 113.517  0.00  0.00    -0.241 OA
ENDBRANCH   3  22
TORSDOF 7
ENDMDL
