MODEL 1
REMARK VINA RESULT:      -4.7      0.000      0.000
REMARK  7 active torsions:
REMARK  status: ('A' for Active; 'I' for Inactive)
REMARK    1  A    between atoms: C_2  and  C_3 
REMARK    2  A    between atoms: C_3  and  O_6 
REMARK    3  A    between atoms: C_3  and  C_4 
REMARK    4  A    between atoms: C_7  and  O_6 
REMARK    5  A    between atoms: C_9  and  C_10 
REMARK    6  A    between atoms: N_15  and  C_14 
REMARK    7  A    between atoms: N_20  and  C_19 
REMARK       I    between atoms: C_22  and  N_20 
ROOT
ATOM      1  C   LIG d   1      -2.708  77.551 115.681  0.00  0.00     0.161 C 
ATOM      2  C   LIG d   1      -3.053  77.531 114.320  0.00  0.00     0.016 C 
ATOM      3  C   LIG d   1      -2.432  78.348 113.347  0.00  0.00     0.038 C 
ATOM      4  C   LIG d   1      -1.311  79.136 113.647  0.00  0.00     0.028 C 
ATOM      5  C   LIG d   1      -1.249  79.569 115.108  0.00  0.00    -0.047 C 
ATOM      6  C   LIG d   1      -1.412  78.323 116.008  0.00  0.00     0.091 C 
ENDROOT
BRANCH   1   7
ATOM      7  O   LIG d   1      -2.628  76.203 116.185  0.00  0.00    -0.368 OA
BRANCH   7   8
ATOM      8  C   LIG d   1      -2.740  75.147 115.200  0.00  0.00     0.119 C 
BRANCH   8   9
ATOM      9  C   LIG d   1      -3.944  74.270 115.596  0.00  0.00     0.028 C 
ATOM     10  C   LIG d   1      -5.030  74.237 114.507  0.00  0.00     0.006 C 
ENDBRANCH   8   9
BRANCH   8  11
ATOM     11  C   LIG d   1      -1.526  74.214 115.243  0.00  0.00     0.028 C 
ATOM     12  C   LIG d   1      -0.223  74.912 114.824  0.00  0.00     0.006 C 
ENDBRANCH   8  11
ENDBRANCH   7   8
ENDBRANCH   1   7
BRANCH   6  13
ATOM     13  N   LIG d   1      -1.448  78.669 117.453  0.00  0.00    -0.311 N 
ATOM     14  C   LIG d   1      -0.889  77.917 118.401  0.00  0.00     0.210 C 
ATOM     15  C   LIG d   1      -1.059  78.445 119.829  0.00  0.00     0.109 C 
ATOM     16  O   LIG d   1      -0.242  76.880 118.191  0.00  0.00    -0.276 OA
ATOM     17  H   LIG d   1      -1.925  79.510 117.710  0.00  0.00     0.149 HD
ENDBRANCH   6  13
BRANCH   5  18
ATOM     18  N   LIG d   1       0.036  80.265 115.312  0.00  0.00     0.381 N 
ATOM     19  H   LIG d   1       0.521  80.343 114.441  0.00  0.00    -0.090 HD
ATOM     20  H   LIG d   1       0.602  79.724 115.941  0.00  0.00    -0.090 HD
ATOM     21  H   LIG d   1      -0.124  81.171 115.694  0.00  0.00    -0.090 HD
ENDBRANCH   5  18
BRANCH   3  22
ATOM     22  C   LIG d   1      -2.957  78.411 112.065  0.00  0.00     0.382 C 
ATOM     23  O   LIG d   1      -4.175  78.178 111.875  0.00  0.00    -0.241 OA
ATOM     24  O   LIG d   1      -2.220  78.655 111.092  0.00  0.00    -0.241 OA
ENDBRANCH   3  22
TORSDOF 7
ENDMDL
MODEL 2
REMARK VINA RESULT:      -4.7      3.323      5.333
REMARK  7 active torsions:
REMARK  status: ('A' for Active; 'I' for Inactive)
REMARK    1  A    between atoms: C_2  and  C_3 
REMARK    2  A    between atoms: C_3  and  O_6 
REMARK    3  A    between atoms: C_3  and  C_4 
REMARK    4  A    between atoms: C_7  and  O_6 
REMARK    5  A    between atoms: C_9  and  C_10 
REMARK    6  A    between atoms: N_15  and  C_14 
REMARK    7  A    between atoms: N_20  and  C_19 
REMARK       I    between atoms: C_22  and  N_20 
ROOT
ATOM      1  C   LIG d   1      -3.993  77.995 116.655  0.00  0.00     0.161 C 
ATOM      2  C   LIG d   1      -3.338  79.126 117.170  0.00  0.00     0.016 C 
ATOM      3  C   LIG d   1      -2.118  79.621 116.655  0.00  0.00     0.038 C 
ATOM      4  C   LIG d   1      -1.542  79.102 115.486  0.00  0.00     0.028 C 
ATOM      5  C   LIG d   1      -1.902  77.643 115.229  0.00  0.00    -0.047 C 
ATOM      6  C   LIG d   1      -3.437  77.483 115.310  0.00  0.00     0.091 C 
ENDROOT
BRANCH   1   7
ATOM      7  O   LIG d   1      -5.406  78.255 116.547  0.00  0.00    -0.368 OA
BRANCH   7   8
ATOM      8  C   LIG d   1      -6.264  77.491 117.430  0.00  0.00     0.119 C 
BRANCH   8   9
ATOM      9  C   LIG d   1      -7.310  76.774 116.554  0.00  0.00     0.028 C 
ATOM     10  C   LIG d   1      -8.402  76.084 117.389  0.00  0.00     0.006 C 
ENDBRANCH   8   9
BRANCH   8  11
ATOM     11  C   LIG d   1      -7.070  78.408 118.355  0.00  0.00     0.028 C 
ATOM     12  C   LIG d   1      -6.883  79.898 118.027  0.00  0.00     0.006 C 
ENDBRANCH   8  11
ENDBRANCH   7   8
ENDBRANCH   1   7
BRANCH   6  13
ATOM     13  N   LIG d   1      -3.869  76.069 115.154  0.00  0.00    -0.311 N 
ATOM     14  C   LIG d   1      -4.815  75.681 114.300  0.00  0.00     0.210 C 
ATOM     15  C   LIG d   1      -5.121  74.180 114.312  0.00  0.00     0.109 C 
ATOM     16  O   LIG d   1      -5.407  76.433 113.511  0.00  0.00    -0.276 OA
ATOM     17  H   LIG d   1      -3.418  75.388 115.733  0.00  0.00     0.149 HD
ENDBRANCH   6  13
BRANCH   5  18
ATOM     18  N   LIG d   1      -1.350  77.273 113.912  0.00  0.00     0.381 N 
ATOM     19  H   LIG d   1      -1.985  77.548 113.189  0.00  0.00    -0.090 HD
ATOM     20  H   LIG d   1      -1.242  76.274 113.874  0.00  0.00    -0.090 HD
ATOM     21  H   LIG d   1      -0.468  77.715 113.775  0.00  0.00    -0.090 HD
ENDBRANCH   5  18
BRANCH   3  22
ATOM     22  C   LIG d   1      -1.439  80.620 117.336  0.00  0.00     0.382 C 
ATOM     23  O   LIG d   1      -1.979  81.188 118.316  0.00  0.00    -0.241 OA
ATOM     24  O   LIG d   1      -0.312  80.991 116.956  0.00  0.00    -0.241 OA
ENDBRANCH   3  22
TORSDOF 7
ENDMDL
MODEL 3
REMARK VINA RESULT:      -4.6      2.961      4.596
REMARK  7 active torsions:
REMARK  status: ('A' for Active; 'I' for Inactive)
REMARK    1  A    between atoms: C_2  and  C_3 
REMARK    2  A    between atoms: C_3  and  O_6 
REMARK    3  A    between atoms: C_3  and  C_4 
REMARK    4  A    between atoms: C_7  and  O_6 
REMARK    5  A    between atoms: C_9  and  C_10 
REMARK    6  A    between atoms: N_15  and  C_14 
REMARK    7  A    between atoms: N_20  and  C_19 
REMARK       I    between atoms: C_22  and  N_20 
ROOT
ATOM      1  C   LIG d   1      -2.685  79.087 116.247  0.00  0.00     0.161 C 
ATOM      2  C   LIG d   1      -2.888  79.990 115.191  0.00  0.00     0.016 C 
ATOM      3  C   LIG d   1      -2.477  79.738 113.862  0.00  0.00     0.038 C 
ATOM      4  C   LIG d   1      -1.966  78.492 113.467  0.00  0.00     0.028 C 
ATOM      5  C   LIG d   1      -1.279  77.734 114.598  0.00  0.00    -0.047 C 
ATOM      6  C   LIG d   1      -2.230  77.677 115.815  0.00  0.00     0.091 C 
ENDROOT
BRANCH   1   7
ATOM      7  O   LIG d   1      -3.876  79.003 117.054  0.00  0.00    -0.368 OA
BRANCH   7   8
ATOM      8  C   LIG d   1      -4.390  80.258 117.564  0.00  0.00     0.119 C 
BRANCH   8   9
ATOM      9  C   LIG d   1      -3.787  80.470 118.966  0.00  0.00     0.028 C 
ATOM     10  C   LIG d   1      -2.805  81.652 119.011  0.00  0.00     0.006 C 
ENDBRANCH   8   9
BRANCH   8  11
ATOM     11  C   LIG d   1      -5.905  80.194 117.779  0.00  0.00     0.028 C 
ATOM     12  C   LIG d   1      -6.531  81.576 118.024  0.00  0.00     0.006 C 
ENDBRANCH   8  11
ENDBRANCH   7   8
ENDBRANCH   1   7
BRANCH   6  13
ATOM     13  N   LIG d   1      -1.603  77.025 116.994  0.00  0.00    -0.311 N 
ATOM     14  C   LIG d   1      -1.731  75.729 117.270  0.00  0.00     0.210 C 
ATOM     15  C   LIG d   1      -1.020  75.265 118.545  0.00  0.00     0.109 C 
ATOM     16  O   LIG d   1      -2.338  74.912 116.561  0.00  0.00    -0.276 OA
ATOM     17  H   LIG d   1      -1.066  77.609 117.606  0.00  0.00     0.149 HD
ENDBRANCH   6  13
BRANCH   5  18
ATOM     18  N   LIG d   1      -0.917  76.399 114.084  0.00  0.00     0.381 N 
ATOM     19  H   LIG d   1      -1.147  76.337 113.112  0.00  0.00    -0.090 HD
ATOM     20  H   LIG d   1      -1.449  75.705 114.579  0.00  0.00    -0.090 HD
ATOM     21  H   LIG d   1       0.057  76.236 114.214  0.00  0.00    -0.090 HD
ENDBRANCH   5  18
BRANCH   3  22
ATOM     22  C   LIG d   1      -2.538  80.753 112.919  0.00  0.00     0.382 C 
ATOM     23  O   LIG d   1      -3.644  81.262 112.617  0.00  0.00    -0.241 OA
ATOM     24  O   LIG d   1      -1.507  81.135 112.334  0.00  0.00    -0.241 OA
ENDBRANCH   3  22
TORSDOF 7
ENDMDL
MODEL 4
REMARK VINA RESULT:      -4.4      1.879      2.515
REMARK  7 active torsions:
REMARK  status: ('A' for Active; 'I' for Inactive)
REMARK    1  A    between atoms: C_2  and  C_3 
REMARK    2  A    between atoms: C_3  and  O_6 
REMARK    3  A    between atoms: C_3  and  C_4 
REMARK    4  A    between atoms: C_7  and  O_6 
REMARK    5  A    between atoms: C_9  and  C_10 
REMARK    6  A    between atoms: N_15  and  C_14 
REMARK    7  A    between atoms: N_20  and  C_19 
REMARK       I    between atoms: C_22  and  N_20 
ROOT
ATOM      1  C   LIG d   1      -3.001  77.448 114.969  0.00  0.00     0.161 C 
ATOM      2  C   LIG d   1      -2.866  77.521 113.572  0.00  0.00     0.016 C 
ATOM      3  C   LIG d   1      -2.005  78.433 112.920  0.00  0.00     0.038 C 
ATOM      4  C   LIG d   1      -1.102  79.238 113.631  0.00  0.00     0.028 C 
ATOM      5  C   LIG d   1      -1.562  79.558 115.049  0.00  0.00    -0.047 C 
ATOM      6  C   LIG d   1      -1.942  78.241 115.763  0.00  0.00     0.091 C 
ENDROOT
BRANCH   1   7
ATOM      7  O   LIG d   1      -3.013  76.069 115.387  0.00  0.00    -0.368 OA
BRANCH   7   8
ATOM      8  C   LIG d   1      -4.202  75.625 116.087  0.00  0.00     0.119 C 
BRANCH   8   9
ATOM      9  C   LIG d   1      -4.518  74.197 115.603  0.00  0.00     0.028 C 
ATOM     10  C   LIG d   1      -5.161  74.181 114.205  0.00  0.00     0.006 C 
ENDBRANCH   8   9
BRANCH   8  11
ATOM     11  C   LIG d   1      -5.422  76.465 115.700  0.00  0.00     0.028 C 
ATOM     12  C   LIG d   1      -6.414  76.645 116.860  0.00  0.00     0.006 C 
ENDBRANCH   8  11
ENDBRANCH   7   8
ENDBRANCH   1   7
BRANCH   6  13
ATOM     13  N   LIG d   1      -2.484  78.472 117.128  0.00  0.00    -0.311 N 
ATOM     14  C   LIG d   1      -3.566  79.208 117.372  0.00  0.00     0.210 C 
ATOM     15  C   LIG d   1      -3.941  79.335 118.852  0.00  0.00     0.109 C 
ATOM     16  O   LIG d   1      -4.269  79.743 116.502  0.00  0.00    -0.276 OA
ATOM     17  H   LIG d   1      -1.992  78.049 117.891  0.00  0.00     0.149 HD
ENDBRANCH   6  13
BRANCH   5  18
ATOM     18  N   LIG d   1      -0.468  80.284 115.720  0.00  0.00     0.381 N 
ATOM     19  H   LIG d   1       0.374  80.197 115.186  0.00  0.00    -0.090 HD
ATOM     20  H   LIG d   1      -0.311  79.874 116.624  0.00  0.00    -0.090 HD
ATOM     21  H   LIG d   1      -0.708  81.246 115.820  0.00  0.00    -0.090 HD
ENDBRANCH   5  18
BRANCH   3  22
ATOM     22  C   LIG d   1      -2.071  78.576 111.543  0.00  0.00     0.382 C 
ATOM     23  O   LIG d   1      -2.864  77.868 110.876  0.00  0.00    -0.241 OA
ATOM     24  O   LIG d   1      -1.315  79.372 110.953  0.00  0.00    -0.241 OA
ENDBRANCH   3  22
TORSDOF 7
ENDMDL
MODEL 5
REMARK VINA RESULT:      -4.3      4.110      5.431
REMARK  7 active torsions:
REMARK  status: ('A' for Active; 'I' for Inactive)
REMARK    1  A    between atoms: C_2  and  C_3 
REMARK    2  A    between atoms: C_3  and  O_6 
REMARK    3  A    between atoms: C_3  and  C_4 
REMARK    4  A    between atoms: C_7  and  O_6 
REMARK    5  A    between atoms: C_9  and  C_10 
REMARK    6  A    between atoms: N_15  and  C_14 
REMARK    7  A    between atoms: N_20  and  C_19 
REMARK       I    between atoms: C_22  and  N_20 
ROOT
ATOM      1  C   LIG d   1      -5.442  77.150 117.103  0.00  0.00     0.161 C 
ATOM      2  C   LIG d   1      -6.714  76.565 117.219  0.00  0.00     0.016 C 
ATOM      3  C   LIG d   1      -7.853  77.263 117.681  0.00  0.00     0.038 C 
ATOM      4  C   LIG d   1      -7.830  78.645 117.918  0.00  0.00     0.028 C 
ATOM      5  C   LIG d   1      -6.450  79.172 118.298  0.00  0.00    -0.047 C 
ATOM      6  C   LIG d   1      -5.422  78.686 117.251  0.00  0.00     0.091 C 
ENDROOT
BRANCH   1   7
ATOM      7  O   LIG d   1      -4.835  76.759 115.856  0.00  0.00    -0.368 OA
BRANCH   7   8
ATOM      8  C   LIG d   1      -3.707  75.855 115.951  0.00  0.00     0.119 C 
BRANCH   8   9
ATOM      9  C   LIG d   1      -4.192  74.461 115.510  0.00  0.00     0.028 C 
ATOM     10  C   LIG d   1      -5.208  74.531 114.357  0.00  0.00     0.006 C 
ENDBRANCH   8   9
BRANCH   8  11
ATOM     11  C   LIG d   1      -3.251  75.685 117.404  0.00  0.00     0.028 C 
ATOM     12  C   LIG d   1      -2.576  74.328 117.661  0.00  0.00     0.006 C 
ENDBRANCH   8  11
ENDBRANCH   7   8
ENDBRANCH   1   7
BRANCH   6  13
ATOM     13  N   LIG d   1      -4.032  79.087 117.593  0.00  0.00    -0.311 N 
ATOM     14  C   LIG d   1      -3.164  79.558 116.700  0.00  0.00     0.210 C 
ATOM     15  C   LIG d   1      -1.777  79.892 117.260  0.00  0.00     0.109 C 
ATOM     16  O   LIG d   1      -3.420  79.762 115.504  0.00  0.00    -0.276 OA
ATOM     17  H   LIG d   1      -3.750  78.984 118.549  0.00  0.00     0.149 HD
ENDBRANCH   6  13
BRANCH   5  18
ATOM     18  N   LIG d   1      -6.541  80.642 118.381  0.00  0.00     0.381 N 
ATOM     19  H   LIG d   1      -5.911  80.981 119.080  0.00  0.00    -0.090 HD
ATOM     20  H   LIG d   1      -7.476  80.895 118.648  0.00  0.00    -0.090 HD
ATOM     21  H   LIG d   1      -6.319  81.047 117.499  0.00  0.00    -0.090 HD
ENDBRANCH   5  18
BRANCH   3  22
ATOM     22  C   LIG d   1      -9.023  76.568 117.950  0.00  0.00     0.382 C 
ATOM     23  O   LIG d   1     -10.059  77.191 118.283  0.00  0.00    -0.241 OA
ATOM     24  O   LIG d   1      -9.042  75.324 117.906  0.00  0.00    -0.241 OA
ENDBRANCH   3  22
TORSDOF 7
ENDMDL
MODEL 6
REMARK VINA RESULT:      -4.3      2.090      5.163
REMARK  7 active torsions:
REMARK  status: ('A' for Active; 'I' for Inactive)
REMARK    1  A    between atoms: C_2  and  C_3 
REMARK    2  A    between atoms: C_3  and  O_6 
REMARK    3  A    between atoms: C_3  and  C_4 
REMARK    4  A    between atoms: C_7  and  O_6 
REMARK    5  A    between atoms: C_9  and  C_10 
REMARK    6  A    between atoms: N_15  and  C_14 
REMARK    7  A    between atoms: N_20  and  C_19 
REMARK       I    between atoms: C_22  and  N_20 
ROOT
ATOM      1  C   LIG d   1      -2.925  77.639 115.583  0.00  0.00     0.161 C 
ATOM      2  C   LIG d   1      -2.822  77.702 116.983  0.00  0.00     0.016 C 
ATOM      3  C   LIG d   1      -1.901  78.536 117.658  0.00  0.00     0.038 C 
ATOM      4  C   LIG d   1      -1.120  79.482 116.978  0.00  0.00     0.028 C 
ATOM      5  C   LIG d   1      -0.829  79.099 115.531  0.00  0.00    -0.047 C 
ATOM      6  C   LIG d   1      -2.159  78.745 114.828  0.00  0.00     0.091 C 
ENDROOT
BRANCH   1   7
ATOM      7  O   LIG d   1      -4.313  77.637 115.195  0.00  0.00    -0.368 OA
BRANCH   7   8
ATOM      8  C   LIG d   1      -5.150  76.638 115.827  0.00  0.00     0.119 C 
BRANCH   8   9
ATOM      9  C   LIG d   1      -5.718  75.738 114.713  0.00  0.00     0.028 C 
ATOM     10  C   LIG d   1      -4.971  74.398 114.604  0.00  0.00     0.006 C 
ENDBRANCH   8   9
BRANCH   8  11
ATOM     11  C   LIG d   1      -6.372  77.276 116.496  0.00  0.00     0.028 C 
ATOM     12  C   LIG d   1      -7.453  76.248 116.866  0.00  0.00     0.006 C 
ENDBRANCH   8  11
ENDBRANCH   7   8
ENDBRANCH   1   7
BRANCH   6  13
ATOM     13  N   LIG d   1      -1.955  78.278 113.432  0.00  0.00    -0.311 N 
ATOM     14  C   LIG d   1      -2.498  78.876 112.372  0.00  0.00     0.210 C 
ATOM     15  C   LIG d   1      -2.177  78.220 111.025  0.00  0.00     0.109 C 
ATOM     16  O   LIG d   1      -3.189  79.905 112.417  0.00  0.00    -0.276 OA
ATOM     17  H   LIG d   1      -1.382  77.468 113.301  0.00  0.00     0.149 HD
ENDBRANCH   6  13
BRANCH   5  18
ATOM     18  N   LIG d   1      -0.126  80.234 114.903  0.00  0.00     0.381 N 
ATOM     19  H   LIG d   1      -0.664  81.070 115.016  0.00  0.00    -0.090 HD
ATOM     20  H   LIG d   1      -0.029  80.052 113.919  0.00  0.00    -0.090 HD
ATOM     21  H   LIG d   1       0.773  80.350 115.316  0.00  0.00    -0.090 HD
ENDBRANCH   5  18
BRANCH   3  22
ATOM     22  C   LIG d   1      -1.727  78.399 119.027  0.00  0.00     0.382 C 
ATOM     23  O   LIG d   1      -1.707  79.417 119.761  0.00  0.00    -0.241 OA
ATOM     24  O   LIG d   1      -1.544  77.275 119.532  0.00  0.00    -0.241 OA
ENDBRANCH   3  22
TORSDOF 7
ENDMDL
MODEL 7
REMARK VINA RESULT:      -4.2      3.834      5.720
REMARK  7 active torsions:
REMARK  status: ('A' for Active; 'I' for Inactive)
REMARK    1  A    between atoms: C_2  and  C_3 
REMARK    2  A    between atoms: C_3  and  O_6 
REMARK    3  A    between atoms: C_3  and  C_4 
REMARK    4  A    between atoms: C_7  and  O_6 
REMARK    5  A    between atoms: C_9  and  C_10 
REMARK    6  A    between atoms: N_15  and  C_14 
REMARK    7  A    between atoms: N_20  and  C_19 
REMARK       I    between atoms: C_22  and  N_20 
ROOT
ATOM      1  C   LIG d   1      -4.466  78.200 116.870  0.00  0.00     0.161 C 
ATOM      2  C   LIG d   1      -4.192  77.125 116.009  0.00  0.00     0.016 C 
ATOM      3  C   LIG d   1      -5.160  76.167 115.627  0.00  0.00     0.038 C 
ATOM      4  C   LIG d   1      -6.515  76.309 115.961  0.00  0.00     0.028 C 
ATOM      5  C   LIG d   1      -6.742  77.101 117.244  0.00  0.00    -0.047 C 
ATOM      6  C   LIG d   1      -5.965  78.434 117.156  0.00  0.00     0.091 C 
ENDROOT
BRANCH   1   7
ATOM      7  O   LIG d   1      -3.861  79.403 116.357  0.00  0.00    -0.368 OA
BRANCH   7   8
ATOM      8  C   LIG d   1      -2.519  79.266 115.828  0.00  0.00     0.119 C 
BRANCH   8   9
ATOM      9  C   LIG d   1      -1.592  80.153 116.683  0.00  0.00     0.028 C 
ATOM     10  C   LIG d   1      -2.225  80.535 118.031  0.00  0.00     0.006 C 
ENDBRANCH   8   9
BRANCH   8  11
ATOM     11  C   LIG d   1      -2.420  79.828 114.407  0.00  0.00     0.028 C 
ATOM     12  C   LIG d   1      -1.027  79.634 113.786  0.00  0.00     0.006 C 
ENDBRANCH   8  11
ENDBRANCH   7   8
ENDBRANCH   1   7
BRANCH   6  13
ATOM     13  N   LIG d   1      -6.065  79.232 118.405  0.00  0.00    -0.311 N 
ATOM     14  C   LIG d   1      -6.935  80.227 118.572  0.00  0.00     0.210 C 
ATOM     15  C   LIG d   1      -6.857  80.933 119.929  0.00  0.00     0.109 C 
ATOM     16  O   LIG d   1      -7.784  80.571 117.736  0.00  0.00    -0.276 OA
ATOM     17  H   LIG d   1      -5.433  79.000 119.147  0.00  0.00     0.149 HD
ENDBRANCH   6  13
BRANCH   5  18
ATOM     18  N   LIG d   1      -8.197  77.289 117.400  0.00  0.00     0.381 N 
ATOM     19  H   LIG d   1      -8.531  77.930 116.708  0.00  0.00    -0.090 HD
ATOM     20  H   LIG d   1      -8.379  77.680 118.307  0.00  0.00    -0.090 HD
ATOM     21  H   LIG d   1      -8.666  76.415 117.307  0.00  0.00    -0.090 HD
ENDBRANCH   5  18
BRANCH   3  22
ATOM     22  C   LIG d   1      -4.767  75.032 114.934  0.00  0.00     0.382 C 
ATOM     23  O   LIG d   1      -5.253  74.789 113.802  0.00  0.00    -0.241 OA
ATOM     24  O   LIG d   1      -3.967  74.226 115.444  0.00  0.00    -0.241 OA
ENDBRANCH   3  22
TORSDOF 7
ENDMDL
MODEL 8
REMARK VINA RESULT:      -4.2      4.924      6.628
REMARK  7 active torsions:
REMARK  status: ('A' for Active; 'I' for Inactive)
REMARK    1  A    between atoms: C_2  and  C_3 
REMARK    2  A    between atoms: C_3  and  O_6 
REMARK    3  A    between atoms: C_3  and  C_4 
REMARK    4  A    between atoms: C_7  and  O_6 
REMARK    5  A    between atoms: C_9  and  C_10 
REMARK    6  A    between atoms: N_15  and  C_14 
REMARK    7  A    between atoms: N_20  and  C_19 
REMARK       I    between atoms: C_22  and  N_20 
ROOT
ATOM      1  C   LIG d   1      -5.281  79.078 117.470  0.00  0.00     0.161 C 
ATOM      2  C   LIG d   1      -4.057  79.459 116.895  0.00  0.00     0.016 C 
ATOM      3  C   LIG d   1      -3.268  78.595 116.101  0.00  0.00     0.038 C 
ATOM      4  C   LIG d   1      -3.725  77.330 115.702  0.00  0.00     0.028 C 
ATOM      5  C   LIG d   1      -4.727  76.714 116.673  0.00  0.00    -0.047 C 
ATOM      6  C   LIG d   1      -5.850  77.740 116.953  0.00  0.00     0.091 C 
ENDROOT
BRANCH   1   7
ATOM      7  O   LIG d   1      -6.250  80.132 117.300  0.00  0.00    -0.368 OA
BRANCH   7   8
ATOM      8  C   LIG d   1      -6.486  80.972 118.457  0.00  0.00     0.119 C 
BRANCH   8   9
ATOM      9  C   LIG d   1      -7.604  80.312 119.287  0.00  0.00     0.028 C 
ATOM     10  C   LIG d   1      -8.915  80.166 118.496  0.00  0.00     0.006 C 
ENDBRANCH   8   9
BRANCH   8  11
ATOM     11  C   LIG d   1      -7.039  82.341 118.048  0.00  0.00     0.028 C 
ATOM     12  C   LIG d   1      -7.060  83.346 119.210  0.00  0.00     0.006 C 
ENDBRANCH   8  11
ENDBRANCH   7   8
ENDBRANCH   1   7
BRANCH   6  13
ATOM     13  N   LIG d   1      -6.828  77.249 117.959  0.00  0.00    -0.311 N 
ATOM     14  C   LIG d   1      -7.985  76.673 117.636  0.00  0.00     0.210 C 
ATOM     15  C   LIG d   1      -8.855  76.258 118.827  0.00  0.00     0.109 C 
ATOM     16  O   LIG d   1      -8.359  76.438 116.477  0.00  0.00    -0.276 OA
ATOM     17  H   LIG d   1      -6.590  77.371 118.924  0.00  0.00     0.149 HD
ENDBRANCH   6  13
BRANCH   5  18
ATOM     18  N   LIG d   1      -5.224  75.465 116.067  0.00  0.00     0.381 N 
ATOM     19  H   LIG d   1      -6.220  75.416 116.158  0.00  0.00    -0.090 HD
ATOM     20  H   LIG d   1      -4.825  74.684 116.558  0.00  0.00    -0.090 HD
ATOM     21  H   LIG d   1      -4.969  75.427 115.105  0.00  0.00    -0.090 HD
ENDBRANCH   5  18
BRANCH   3  22
ATOM     22  C   LIG d   1      -1.988  78.979 115.732  0.00  0.00     0.382 C 
ATOM     23  O   LIG d   1      -1.790  80.120 115.251  0.00  0.00    -0.241 OA
ATOM     24  O   LIG d   1      -1.035  78.182 115.834  0.00  0.00    -0.241 OA
ENDBRANCH   3  22
TORSDOF 7
ENDMDL
MODEL 9
REMARK VINA RESULT:      -4.2      1.323      2.072
REMARK  7 active torsions:
REMARK  status: ('A' for Active; 'I' for Inactive)
REMARK    1  A    between atoms: C_2  and  C_3 
REMARK    2  A    between atoms: C_3  and  O_6 
REMARK    3  A    between atoms: C_3  and  C_4 
REMARK    4  A    between atoms: C_7  and  O_6 
REMARK    5  A    between atoms: C_9  and  C_10 
REMARK    6  A    between atoms: N_15  and  C_14 
REMARK    7  A    between atoms: N_20  and  C_19 
REMARK       I    between atoms: C_22  and  N_20 
ROOT
ATOM      1  C   LIG d   1      -2.340  77.223 115.575  0.00  0.00     0.161 C 
ATOM      2  C   LIG d   1      -2.726  77.342 114.229  0.00  0.00     0.016 C 
ATOM      3  C   LIG d   1      -2.223  78.338 113.361  0.00  0.00     0.038 C 
ATOM      4  C   LIG d   1      -1.180  79.196 113.741  0.00  0.00     0.028 C 
ATOM      5  C   LIG d   1      -1.116  79.442 115.245  0.00  0.00    -0.047 C 
ATOM      6  C   LIG d   1      -1.122  78.080 115.977  0.00  0.00     0.091 C 
ENDROOT
BRANCH   1   7
ATOM      7  O   LIG d   1      -2.106  75.838 115.896  0.00  0.00    -0.368 OA
BRANCH   7   8
ATOM      8  C   LIG d   1      -3.199  75.140 116.542  0.00  0.00     0.119 C 
BRANCH   8   9
ATOM      9  C   LIG d   1      -2.591  74.242 117.637  0.00  0.00     0.028 C 
ATOM     10  C   LIG d   1      -2.083  75.050 118.843  0.00  0.00     0.006 C 
ENDBRANCH   8   9
BRANCH   8  11
ATOM     11  C   LIG d   1      -3.898  74.181 115.574  0.00  0.00     0.028 C 
ATOM     12  C   LIG d   1      -5.141  74.801 114.915  0.00  0.00     0.006 C 
ENDBRANCH   8  11
ENDBRANCH   7   8
ENDBRANCH   1   7
BRANCH   6  13
ATOM     13  N   LIG d   1      -1.146  78.231 117.455  0.00  0.00    -0.311 N 
ATOM     14  C   LIG d   1      -2.149  78.805 118.117  0.00  0.00     0.210 C 
ATOM     15  C   LIG d   1      -1.964  78.876 119.636  0.00  0.00     0.109 C 
ATOM     16  O   LIG d   1      -3.189  79.232 117.594  0.00  0.00    -0.276 OA
ATOM     17  H   LIG d   1      -0.355  77.884 117.962  0.00  0.00     0.149 HD
ENDBRANCH   6  13
BRANCH   5  18
ATOM     18  N   LIG d   1       0.095  80.239 115.515  0.00  0.00     0.381 N 
ATOM     19  H   LIG d   1      -0.157  81.193 115.680  0.00  0.00    -0.090 HD
ATOM     20  H   LIG d   1       0.693  80.205 114.708  0.00  0.00    -0.090 HD
ATOM     21  H   LIG d   1       0.574  79.873 116.308  0.00  0.00    -0.090 HD
ENDBRANCH   5  18
BRANCH   3  22
ATOM     22  C   LIG d   1      -2.793  78.510 112.109  0.00  0.00     0.382 C 
ATOM     23  O   LIG d   1      -3.993  78.196 111.918  0.00  0.00    -0.241 OA
ATOM     24  O   LIG d   1      -2.111  78.933 111.156  0.00  0.00    -0.241 OA
ENDBRANCH   3  22
TORSDOF 7
ENDMDL
