MODEL 1
REMARK VINA RESULT:      -5.0      0.000      0.000
REMARK  7 active torsions:
REMARK  status: ('A' for Active; 'I' for Inactive)
REMARK    1  A    between atoms: C_2  and  C_3 
REMARK    2  A    between atoms: C_3  and  O_6 
REMARK    3  A    between atoms: C_3  and  C_4 
REMARK    4  A    between atoms: C_7  and  O_6 
REMARK    5  A    between atoms: C_9  and  C_10 
REMARK    6  A    between atoms: N_15  and  C_14 
REMARK    7  A    between atoms: N_20  and  C_19 
REMARK       I    between atoms: C_22  and  N_20 
ROOT
ATOM      1  C   LIG d   1      -2.937  79.348 115.967  0.00  0.00     0.161 C 
ATOM      2  C   LIG d   1      -2.885  80.561 115.260  0.00  0.00     0.016 C 
ATOM      3  C   LIG d   1      -2.400  80.669 113.936  0.00  0.00     0.038 C 
ATOM      4  C   LIG d   1      -2.072  79.539 113.172  0.00  0.00     0.028 C 
ATOM      5  C   LIG d   1      -1.631  78.346 114.013  0.00  0.00    -0.047 C 
ATOM      6  C   LIG d   1      -2.687  78.089 115.112  0.00  0.00     0.091 C 
ENDROOT
BRANCH   1   7
ATOM      7  O   LIG d   1      -4.195  79.241 116.662  0.00  0.00    -0.368 OA
BRANCH   7   8
ATOM      8  C   LIG d   1      -4.685  80.454 117.285  0.00  0.00     0.119 C 
BRANCH   8   9
ATOM      9  C   LIG d   1      -3.927  80.630 118.615  0.00  0.00     0.028 C 
ATOM     10  C   LIG d   1      -3.354  82.048 118.780  0.00  0.00     0.006 C 
ENDBRANCH   8   9
BRANCH   8  11
ATOM     11  C   LIG d   1      -6.161  80.324 117.673  0.00  0.00     0.028 C 
ATOM     12  C   LIG d   1      -6.913  81.662 117.612  0.00  0.00     0.006 C 
ENDBRANCH   8  11
ENDBRANCH   7   8
ENDBRANCH   1   7
BRANCH   6  13
ATOM     13  N   LIG d   1      -2.291  76.991 116.032  0.00  0.00    -0.311 N 
ATOM     14  C   LIG d   1      -2.671  75.725 115.868  0.00  0.00     0.210 C 
ATOM     15  C   LIG d   1      -2.168  74.755 116.943  0.00  0.00     0.109 C 
ATOM     16  O   LIG d   1      -3.349  75.307 114.918  0.00  0.00    -0.276 OA
ATOM     17  H   LIG d   1      -1.715  77.236 116.813  0.00  0.00     0.149 HD
ENDBRANCH   6  13
BRANCH   5  18
ATOM     18  N   LIG d   1      -1.453  77.200 113.102  0.00  0.00     0.381 N 
ATOM     19  H   LIG d   1      -2.234  77.137 112.480  0.00  0.00    -0.090 HD
ATOM     20  H   LIG d   1      -1.413  76.356 113.645  0.00  0.00    -0.090 HD
ATOM     21  H   LIG d   1      -0.611  77.307 112.579  0.00  0.00    -0.090 HD
ENDBRANCH   5  18
BRANCH   3  22
ATOM     22  C   LIG d   1      -2.202  81.922 113.377  0.00  0.00     0.382 C 
ATOM     23  O   LIG d   1      -2.147  82.936 114.115  0.00  0.00    -0.241 OA
ATOM     24  O   LIG d   1      -2.121  82.058 112.142  0.00  0.00    -0.241 OA
ENDBRANCH   3  22
TORSDOF 7
ENDMDL
MODEL 2
REMARK VINA RESULT:      -4.9      0.949      1.445
REMARK  7 active torsions:
REMARK  status: ('A' for Active; 'I' for Inactive)
REMARK    1  A    between atoms: C_2  and  C_3 
REMARK    2  A    between atoms: C_3  and  O_6 
REMARK    3  A    between atoms: C_3  and  C_4 
REMARK    4  A    between atoms: C_7  and  O_6 
REMARK    5  A    between atoms: C_9  and  C_10 
REMARK    6  A    between atoms: N_15  and  C_14 
REMARK    7  A    between atoms: N_20  and  C_19 
REMARK       I    between atoms: C_22  and  N_20 
ROOT
ATOM      1  C   LIG d   1      -2.866  79.573 115.793  0.00  0.00     0.161 C 
ATOM      2  C   LIG d   1      -2.718  80.777 115.085  0.00  0.00     0.016 C 
ATOM      3  C   LIG d   1      -2.216  80.847 113.765  0.00  0.00     0.038 C 
ATOM      4  C   LIG d   1      -1.967  79.695 113.004  0.00  0.00     0.028 C 
ATOM      5  C   LIG d   1      -1.623  78.473 113.849  0.00  0.00    -0.047 C 
ATOM      6  C   LIG d   1      -2.705  78.297 114.940  0.00  0.00     0.091 C 
ENDROOT
BRANCH   1   7
ATOM      7  O   LIG d   1      -4.134  79.561 116.477  0.00  0.00    -0.368 OA
BRANCH   7   8
ATOM      8  C   LIG d   1      -4.077  79.511 117.924  0.00  0.00     0.119 C 
BRANCH   8   9
ATOM      9  C   LIG d   1      -5.055  78.414 118.388  0.00  0.00     0.028 C 
ATOM     10  C   LIG d   1      -5.796  77.753 117.214  0.00  0.00     0.006 C 
ENDBRANCH   8   9
BRANCH   8  11
ATOM     11  C   LIG d   1      -4.599  80.809 118.547  0.00  0.00     0.028 C 
ATOM     12  C   LIG d   1      -5.525  81.593 117.604  0.00  0.00     0.006 C 
ENDBRANCH   8  11
ENDBRANCH   7   8
ENDBRANCH   1   7
BRANCH   6  13
ATOM     13  N   LIG d   1      -2.400  77.174 115.864  0.00  0.00    -0.311 N 
ATOM     14  C   LIG d   1      -2.879  75.941 115.703  0.00  0.00     0.210 C 
ATOM     15  C   LIG d   1      -2.458  74.938 116.781  0.00  0.00     0.109 C 
ATOM     16  O   LIG d   1      -3.587  75.576 114.752  0.00  0.00    -0.276 OA
ATOM     17  H   LIG d   1      -1.807  77.374 116.645  0.00  0.00     0.149 HD
ENDBRANCH   6  13
BRANCH   5  18
ATOM     18  N   LIG d   1      -1.525  77.316 112.940  0.00  0.00     0.381 N 
ATOM     19  H   LIG d   1      -2.300  76.701 113.089  0.00  0.00    -0.090 HD
ATOM     20  H   LIG d   1      -0.680  76.812 113.145  0.00  0.00    -0.090 HD
ATOM     21  H   LIG d   1      -1.514  77.626 111.993  0.00  0.00    -0.090 HD
ENDBRANCH   5  18
BRANCH   3  22
ATOM     22  C   LIG d   1      -1.919  82.081 113.207  0.00  0.00     0.382 C 
ATOM     23  O   LIG d   1      -1.781  83.086 113.946  0.00  0.00    -0.241 OA
ATOM     24  O   LIG d   1      -1.832  82.212 111.971  0.00  0.00    -0.241 OA
ENDBRANCH   3  22
TORSDOF 7
ENDMDL
MODEL 3
REMARK VINA RESULT:      -4.8      1.009      1.857
REMARK  7 active torsions:
REMARK  status: ('A' for Active; 'I' for Inactive)
REMARK    1  A    between atoms: C_2  and  C_3 
REMARK    2  A    between atoms: C_3  and  O_6 
REMARK    3  A    between atoms: C_3  and  C_4 
REMARK    4  A    between atoms: C_7  and  O_6 
REMARK    5  A    between atoms: C_9  and  C_10 
REMARK    6  A    between atoms: N_15  and  C_14 
REMARK    7  A    between atoms: N_20  and  C_19 
REMARK       I    between atoms: C_22  and  N_20 
ROOT
ATOM      1  C   LIG d   1      -2.709  80.172 115.385  0.00  0.00     0.161 C 
ATOM      2  C   LIG d   1      -2.322  81.318 114.671  0.00  0.00     0.016 C 
ATOM      3  C   LIG d   1      -1.726  81.273 113.389  0.00  0.00     0.038 C 
ATOM      4  C   LIG d   1      -1.614  80.076 112.666  0.00  0.00     0.028 C 
ATOM      5  C   LIG d   1      -1.529  78.838 113.552  0.00  0.00    -0.047 C 
ATOM      6  C   LIG d   1      -2.696  78.865 114.565  0.00  0.00     0.091 C 
ENDROOT
BRANCH   1   7
ATOM      7  O   LIG d   1      -4.006  80.380 115.977  0.00  0.00    -0.368 OA
BRANCH   7   8
ATOM      8  C   LIG d   1      -4.041  80.465 117.422  0.00  0.00     0.119 C 
BRANCH   8   9
ATOM      9  C   LIG d   1      -5.328  79.763 117.897  0.00  0.00     0.028 C 
ATOM     10  C   LIG d   1      -6.576  80.643 117.719  0.00  0.00     0.006 C 
ENDBRANCH   8   9
BRANCH   8  11
ATOM     11  C   LIG d   1      -4.174  81.917 117.892  0.00  0.00     0.028 C 
ATOM     12  C   LIG d   1      -2.846  82.505 118.395  0.00  0.00     0.006 C 
ENDBRANCH   8  11
ENDBRANCH   7   8
ENDBRANCH   1   7
BRANCH   6  13
ATOM     13  N   LIG d   1      -2.639  77.732 115.525  0.00  0.00    -0.311 N 
ATOM     14  C   LIG d   1      -3.241  76.562 115.315  0.00  0.00     0.210 C 
ATOM     15  C   LIG d   1      -3.072  75.538 116.442  0.00  0.00     0.109 C 
ATOM     16  O   LIG d   1      -3.871  76.265 114.289  0.00  0.00    -0.276 OA
ATOM     17  H   LIG d   1      -2.123  77.876 116.371  0.00  0.00     0.149 HD
ENDBRANCH   6  13
BRANCH   5  18
ATOM     18  N   LIG d   1      -1.555  77.656 112.670  0.00  0.00     0.381 N 
ATOM     19  H   LIG d   1      -1.701  76.830 113.215  0.00  0.00    -0.090 HD
ATOM     20  H   LIG d   1      -0.667  77.576 112.207  0.00  0.00    -0.090 HD
ATOM     21  H   LIG d   1      -2.282  77.750 111.995  0.00  0.00    -0.090 HD
ENDBRANCH   5  18
BRANCH   3  22
ATOM     22  C   LIG d   1      -1.198  82.429 112.836  0.00  0.00     0.382 C 
ATOM     23  O   LIG d   1      -1.423  82.708 111.633  0.00  0.00    -0.241 OA
ATOM     24  O   LIG d   1      -0.464  83.175 113.511  0.00  0.00    -0.241 OA
ENDBRANCH   3  22
TORSDOF 7
ENDMDL
MODEL 4
REMARK VINA RESULT:      -4.5      1.540      1.811
REMARK  7 active torsions:
REMARK  status: ('A' for Active; 'I' for Inactive)
REMARK    1  A    between atoms: C_2  and  C_3 
REMARK    2  A    between atoms: C_3  and  O_6 
REMARK    3  A    between atoms: C_3  and  C_4 
REMARK    4  A    between atoms: C_7  and  O_6 
REMARK    5  A    between atoms: C_9  and  C_10 
REMARK    6  A    between atoms: N_15  and  C_14 
REMARK    7  A    between atoms: N_20  and  C_19 
REMARK       I    between atoms: C_22  and  N_20 
ROOT
ATOM      1  C   LIG d   1      -1.638  80.006 115.389  0.00  0.00     0.161 C 
ATOM      2  C   LIG d   1      -1.333  81.206 114.725  0.00  0.00     0.016 C 
ATOM      3  C   LIG d   1      -1.537  81.402 113.340  0.00  0.00     0.038 C 
ATOM      4  C   LIG d   1      -2.205  80.457 112.547  0.00  0.00     0.028 C 
ATOM      5  C   LIG d   1      -2.076  79.030 113.068  0.00  0.00    -0.047 C 
ATOM      6  C   LIG d   1      -2.471  79.003 114.563  0.00  0.00     0.091 C 
ENDROOT
BRANCH   1   7
ATOM      7  O   LIG d   1      -2.296  80.293 116.639  0.00  0.00    -0.368 OA
BRANCH   7   8
ATOM      8  C   LIG d   1      -3.708  80.604 116.559  0.00  0.00     0.119 C 
BRANCH   8   9
ATOM      9  C   LIG d   1      -3.898  82.037 117.095  0.00  0.00     0.028 C 
ATOM     10  C   LIG d   1      -2.784  82.450 118.071  0.00  0.00     0.006 C 
ENDBRANCH   8   9
BRANCH   8  11
ATOM     11  C   LIG d   1      -4.529  79.710 117.493  0.00  0.00     0.028 C 
ATOM     12  C   LIG d   1      -3.653  78.810 118.379  0.00  0.00     0.006 C 
ENDBRANCH   8  11
ENDBRANCH   7   8
ENDBRANCH   1   7
BRANCH   6  13
ATOM     13  N   LIG d   1      -2.292  77.660 115.173  0.00  0.00    -0.311 N 
ATOM     14  C   LIG d   1      -3.273  76.765 115.276  0.00  0.00     0.210 C 
ATOM     15  C   LIG d   1      -2.880  75.450 115.956  0.00  0.00     0.109 C 
ATOM     16  O   LIG d   1      -4.423  76.923 114.840  0.00  0.00    -0.276 OA
ATOM     17  H   LIG d   1      -1.381  77.436 115.524  0.00  0.00     0.149 HD
ENDBRANCH   6  13
BRANCH   5  18
ATOM     18  N   LIG d   1      -2.931  78.170 112.229  0.00  0.00     0.381 N 
ATOM     19  H   LIG d   1      -2.625  78.213 111.278  0.00  0.00    -0.090 HD
ATOM     20  H   LIG d   1      -3.876  78.510 112.272  0.00  0.00    -0.090 HD
ATOM     21  H   LIG d   1      -2.894  77.229 112.555  0.00  0.00    -0.090 HD
ENDBRANCH   5  18
BRANCH   3  22
ATOM     22  C   LIG d   1      -1.033  82.539 112.725  0.00  0.00     0.382 C 
ATOM     23  O   LIG d   1      -0.285  83.318 113.364  0.00  0.00    -0.241 OA
ATOM     24  O   LIG d   1      -1.354  82.819 111.555  0.00  0.00    -0.241 OA
ENDBRANCH   3  22
TORSDOF 7
ENDMDL
MODEL 5
REMARK VINA RESULT:      -4.4      1.689      1.966
REMARK  7 active torsions:
REMARK  status: ('A' for Active; 'I' for Inactive)
REMARK    1  A    between atoms: C_2  and  C_3 
REMARK    2  A    between atoms: C_3  and  O_6 
REMARK    3  A    between atoms: C_3  and  C_4 
REMARK    4  A    between atoms: C_7  and  O_6 
REMARK    5  A    between atoms: C_9  and  C_10 
REMARK    6  A    between atoms: N_15  and  C_14 
REMARK    7  A    between atoms: N_20  and  C_19 
REMARK       I    between atoms: C_22  and  N_20 
ROOT
ATOM      1  C   LIG d   1      -2.074  80.019 116.304  0.00  0.00     0.161 C 
ATOM      2  C   LIG d   1      -2.471  80.794 115.202  0.00  0.00     0.016 C 
ATOM      3  C   LIG d   1      -2.427  80.329 113.867  0.00  0.00     0.038 C 
ATOM      4  C   LIG d   1      -2.122  78.996 113.556  0.00  0.00     0.028 C 
ATOM      5  C   LIG d   1      -1.228  78.321 114.591  0.00  0.00    -0.047 C 
ATOM      6  C   LIG d   1      -1.844  78.525 115.994  0.00  0.00     0.091 C 
ENDROOT
BRANCH   1   7
ATOM      7  O   LIG d   1      -3.027  80.168 117.375  0.00  0.00    -0.368 OA
BRANCH   7   8
ATOM      8  C   LIG d   1      -4.374  79.715 117.097  0.00  0.00     0.119 C 
BRANCH   8   9
ATOM      9  C   LIG d   1      -5.337  80.844 117.510  0.00  0.00     0.028 C 
ATOM     10  C   LIG d   1      -4.618  81.991 118.241  0.00  0.00     0.006 C 
ENDBRANCH   8   9
BRANCH   8  11
ATOM     11  C   LIG d   1      -4.752  78.518 117.975  0.00  0.00     0.028 C 
ATOM     12  C   LIG d   1      -5.276  77.324 117.163  0.00  0.00     0.006 C 
ENDBRANCH   8  11
ENDBRANCH   7   8
ENDBRANCH   1   7
BRANCH   6  13
ATOM     13  N   LIG d   1      -0.989  77.968 117.075  0.00  0.00    -0.311 N 
ATOM     14  C   LIG d   1      -1.174  76.762 117.609  0.00  0.00     0.210 C 
ATOM     15  C   LIG d   1      -0.192  76.391 118.724  0.00  0.00     0.109 C 
ATOM     16  O   LIG d   1      -2.038  75.952 117.242  0.00  0.00    -0.276 OA
ATOM     17  H   LIG d   1      -0.244  78.547 117.411  0.00  0.00     0.149 HD
ENDBRANCH   6  13
BRANCH   5  18
ATOM     18  N   LIG d   1      -1.104  76.901 114.215  0.00  0.00     0.381 N 
ATOM     19  H   LIG d   1      -1.855  76.377 114.617  0.00  0.00    -0.090 HD
ATOM     20  H   LIG d   1      -0.239  76.542 114.579  0.00  0.00    -0.090 HD
ATOM     21  H   LIG d   1      -1.119  76.808 113.223  0.00  0.00    -0.090 HD
ENDBRANCH   5  18
BRANCH   3  22
ATOM     22  C   LIG d   1      -2.651  81.215 112.823  0.00  0.00     0.382 C 
ATOM     23  O   LIG d   1      -3.822  81.551 112.527  0.00  0.00    -0.241 OA
ATOM     24  O   LIG d   1      -1.699  81.646 112.146  0.00  0.00    -0.241 OA
ENDBRANCH   3  22
TORSDOF 7
ENDMDL
MODEL 6
REMARK VINA RESULT:      -4.3      2.326      5.664
REMARK  7 active torsions:
REMARK  status: ('A' for Active; 'I' for Inactive)
REMARK    1  A    between atoms: C_2  and  C_3 
REMARK    2  A    between atoms: C_3  and  O_6 
REMARK    3  A    between atoms: C_3  and  C_4 
REMARK    4  A    between atoms: C_7  and  O_6 
REMARK    5  A    between atoms: C_9  and  C_10 
REMARK    6  A    between atoms: N_15  and  C_14 
REMARK    7  A    between atoms: N_20  and  C_19 
REMARK       I    between atoms: C_22  and  N_20 
ROOT
ATOM      1  C   LIG d   1      -2.642  78.549 115.943  0.00  0.00     0.161 C 
ATOM      2  C   LIG d   1      -2.069  77.315 115.593  0.00  0.00     0.016 C 
ATOM      3  C   LIG d   1      -2.311  76.116 116.302  0.00  0.00     0.038 C 
ATOM      4  C   LIG d   1      -3.268  76.039 117.325  0.00  0.00     0.028 C 
ATOM      5  C   LIG d   1      -3.497  77.366 118.040  0.00  0.00    -0.047 C 
ATOM      6  C   LIG d   1      -3.775  78.463 116.987  0.00  0.00     0.091 C 
ENDROOT
BRANCH   1   7
ATOM      7  O   LIG d   1      -3.103  79.227 114.758  0.00  0.00    -0.368 OA
BRANCH   7   8
ATOM      8  C   LIG d   1      -2.103  79.970 114.019  0.00  0.00     0.119 C 
BRANCH   8   9
ATOM      9  C   LIG d   1      -2.634  81.406 113.837  0.00  0.00     0.028 C 
ATOM     10  C   LIG d   1      -2.570  82.224 115.138  0.00  0.00     0.006 C 
ENDBRANCH   8   9
BRANCH   8  11
ATOM     11  C   LIG d   1      -1.933  79.418 112.601  0.00  0.00     0.028 C 
ATOM     12  C   LIG d   1      -3.102  78.520 112.167  0.00  0.00     0.006 C 
ENDBRANCH   8  11
ENDBRANCH   7   8
ENDBRANCH   1   7
BRANCH   6  13
ATOM     13  N   LIG d   1      -3.927  79.809 117.598  0.00  0.00    -0.311 N 
ATOM     14  C   LIG d   1      -5.044  80.530 117.515  0.00  0.00     0.210 C 
ATOM     15  C   LIG d   1      -4.982  81.900 118.198  0.00  0.00     0.109 C 
ATOM     16  O   LIG d   1      -6.091  80.151 116.969  0.00  0.00    -0.276 OA
ATOM     17  H   LIG d   1      -3.136  80.180 118.087  0.00  0.00     0.149 HD
ENDBRANCH   6  13
BRANCH   5  18
ATOM     18  N   LIG d   1      -4.614  77.176 118.985  0.00  0.00     0.381 N 
ATOM     19  H   LIG d   1      -5.307  77.882 118.837  0.00  0.00    -0.090 HD
ATOM     20  H   LIG d   1      -4.266  77.267 119.923  0.00  0.00    -0.090 HD
ATOM     21  H   LIG d   1      -5.018  76.274 118.859  0.00  0.00    -0.090 HD
ENDBRANCH   5  18
BRANCH   3  22
ATOM     22  C   LIG d   1      -1.562  74.985 116.015  0.00  0.00     0.382 C 
ATOM     23  O   LIG d   1      -1.263  74.182 116.932  0.00  0.00    -0.241 OA
ATOM     24  O   LIG d   1      -1.144  74.780 114.860  0.00  0.00    -0.241 OA
ENDBRANCH   3  22
TORSDOF 7
ENDMDL
MODEL 7
REMARK VINA RESULT:      -4.2      1.736      2.603
REMARK  7 active torsions:
REMARK  status: ('A' for Active; 'I' for Inactive)
REMARK    1  A    between atoms: C_2  and  C_3 
REMARK    2  A    between atoms: C_3  and  O_6 
REMARK    3  A    between atoms: C_3  and  C_4 
REMARK    4  A    between atoms: C_7  and  O_6 
REMARK    5  A    between atoms: C_9  and  C_10 
REMARK    6  A    between atoms: N_15  and  C_14 
REMARK    7  A    between atoms: N_20  and  C_19 
REMARK       I    between atoms: C_22  and  N_20 
ROOT
ATOM      1  C   LIG d   1      -1.974  79.614 116.332  0.00  0.00     0.161 C 
ATOM      2  C   LIG d   1      -2.398  80.943 116.171  0.00  0.00     0.016 C 
ATOM      3  C   LIG d   1      -2.556  81.562 114.910  0.00  0.00     0.038 C 
ATOM      4  C   LIG d   1      -2.445  80.842 113.711  0.00  0.00     0.028 C 
ATOM      5  C   LIG d   1      -1.527  79.629 113.816  0.00  0.00    -0.047 C 
ATOM      6  C   LIG d   1      -1.955  78.779 115.034  0.00  0.00     0.091 C 
ENDROOT
BRANCH   1   7
ATOM      7  O   LIG d   1      -2.778  78.962 117.335  0.00  0.00    -0.368 OA
BRANCH   7   8
ATOM      8  C   LIG d   1      -4.071  78.475 116.898  0.00  0.00     0.119 C 
BRANCH   8   9
ATOM      9  C   LIG d   1      -5.148  79.288 117.641  0.00  0.00     0.028 C 
ATOM     10  C   LIG d   1      -6.556  78.693 117.468  0.00  0.00     0.006 C 
ENDBRANCH   8   9
BRANCH   8  11
ATOM     11  C   LIG d   1      -4.292  77.021 117.327  0.00  0.00     0.028 C 
ATOM     12  C   LIG d   1      -3.132  76.465 118.168  0.00  0.00     0.006 C 
ENDBRANCH   8  11
ENDBRANCH   7   8
ENDBRANCH   1   7
BRANCH   6  13
ATOM     13  N   LIG d   1      -1.056  77.618 115.260  0.00  0.00    -0.311 N 
ATOM     14  C   LIG d   1      -1.354  76.376 114.883  0.00  0.00     0.210 C 
ATOM     15  C   LIG d   1      -0.297  75.323 115.229  0.00  0.00     0.109 C 
ATOM     16  O   LIG d   1      -2.380  76.051 114.266  0.00  0.00    -0.276 OA
ATOM     17  H   LIG d   1      -0.188  77.796 115.726  0.00  0.00     0.149 HD
ENDBRANCH   6  13
BRANCH   5  18
ATOM     18  N   LIG d   1      -1.611  78.895 112.540  0.00  0.00     0.381 N 
ATOM     19  H   LIG d   1      -1.904  79.514 111.811  0.00  0.00    -0.090 HD
ATOM     20  H   LIG d   1      -2.297  78.166 112.629  0.00  0.00    -0.090 HD
ATOM     21  H   LIG d   1      -0.724  78.500 112.314  0.00  0.00    -0.090 HD
ENDBRANCH   5  18
BRANCH   3  22
ATOM     22  C   LIG d   1      -2.790  82.927 114.839  0.00  0.00     0.382 C 
ATOM     23  O   LIG d   1      -1.872  83.703 114.479  0.00  0.00    -0.241 OA
ATOM     24  O   LIG d   1      -3.895  83.397 115.172  0.00  0.00    -0.241 OA
ENDBRANCH   3  22
TORSDOF 7
ENDMDL
MODEL 8
REMARK VINA RESULT:      -4.2      2.604      5.228
REMARK  7 active torsions:
REMARK  status: ('A' for Active; 'I' for Inactive)
REMARK    1  A    between atoms: C_2  and  C_3 
REMARK    2  A    between atoms: C_3  and  O_6 
REMARK    3  A    between atoms: C_3  and  C_4 
REMARK    4  A    between atoms: C_7  and  O_6 
REMARK    5  A    between atoms: C_9  and  C_10 
REMARK    6  A    between atoms: N_15  and  C_14 
REMARK    7  A    between atoms: N_20  and  C_19 
REMARK       I    between atoms: C_22  and  N_20 
ROOT
ATOM      1  C   LIG d   1      -2.978  78.228 116.221  0.00  0.00     0.161 C 
ATOM      2  C   LIG d   1      -3.897  77.215 115.901  0.00  0.00     0.016 C 
ATOM      3  C   LIG d   1      -4.032  76.670 114.603  0.00  0.00     0.038 C 
ATOM      4  C   LIG d   1      -3.147  76.997 113.565  0.00  0.00     0.028 C 
ATOM      5  C   LIG d   1      -2.530  78.384 113.711  0.00  0.00    -0.047 C 
ATOM      6  C   LIG d   1      -1.929  78.519 115.128  0.00  0.00     0.091 C 
ENDROOT
BRANCH   1   7
ATOM      7  O   LIG d   1      -2.328  77.921 117.471  0.00  0.00    -0.368 OA
BRANCH   7   8
ATOM      8  C   LIG d   1      -2.593  76.607 118.021  0.00  0.00     0.119 C 
BRANCH   8   9
ATOM      9  C   LIG d   1      -2.976  76.794 119.502  0.00  0.00     0.028 C 
ATOM     10  C   LIG d   1      -4.498  76.772 119.722  0.00  0.00     0.006 C 
ENDBRANCH   8   9
BRANCH   8  11
ATOM     11  C   LIG d   1      -1.329  75.743 118.035  0.00  0.00     0.028 C 
ATOM     12  C   LIG d   1      -1.188  74.872 116.776  0.00  0.00     0.006 C 
ENDBRANCH   8  11
ENDBRANCH   7   8
ENDBRANCH   1   7
BRANCH   6  13
ATOM     13  N   LIG d   1      -1.378  79.876 115.383  0.00  0.00    -0.311 N 
ATOM     14  C   LIG d   1      -2.096  80.992 115.268  0.00  0.00     0.210 C 
ATOM     15  C   LIG d   1      -1.330  82.287 115.557  0.00  0.00     0.109 C 
ATOM     16  O   LIG d   1      -3.303  81.031 114.986  0.00  0.00    -0.276 OA
ATOM     17  H   LIG d   1      -0.414  79.935 115.648  0.00  0.00     0.149 HD
ENDBRANCH   6  13
BRANCH   5  18
ATOM     18  N   LIG d   1      -1.527  78.540 112.640  0.00  0.00     0.381 N 
ATOM     19  H   LIG d   1      -1.845  79.215 111.974  0.00  0.00    -0.090 HD
ATOM     20  H   LIG d   1      -1.416  77.660 112.168  0.00  0.00    -0.090 HD
ATOM     21  H   LIG d   1      -0.657  78.830 113.028  0.00  0.00    -0.090 HD
ENDBRANCH   5  18
BRANCH   3  22
ATOM     22  C   LIG d   1      -5.088  75.815 114.324  0.00  0.00     0.382 C 
ATOM     23  O   LIG d   1      -6.237  76.280 114.133  0.00  0.00    -0.241 OA
ATOM     24  O   LIG d   1      -4.914  74.582 114.304  0.00  0.00    -0.241 OA
ENDBRANCH   3  22
TORSDOF 7
ENDMDL
MODEL 9
REMARK VINA RESULT:      -4.1      2.254      4.833
REMARK  7 active torsions:
REMARK  status: ('A' for Active; 'I' for Inactive)
REMARK    1  A    between atoms: C_2  and  C_3 
REMARK    2  A    between atoms: C_3  and  O_6 
REMARK    3  A    between atoms: C_3  and  C_4 
REMARK    4  A    between atoms: C_7  and  O_6 
REMARK    5  A    between atoms: C_9  and  C_10 
REMARK    6  A    between atoms: N_15  and  C_14 
REMARK    7  A    between atoms: N_20  and  C_19 
REMARK       I    between atoms: C_22  and  N_20 
ROOT
ATOM      1  C   LIG d   1      -2.804  78.621 115.698  0.00  0.00     0.161 C 
ATOM      2  C   LIG d   1      -2.476  79.432 114.598  0.00  0.00     0.016 C 
ATOM      3  C   LIG d   1      -2.651  80.835 114.587  0.00  0.00     0.038 C 
ATOM      4  C   LIG d   1      -3.026  81.545 115.737  0.00  0.00     0.028 C 
ATOM      5  C   LIG d   1      -3.850  80.718 116.718  0.00  0.00    -0.047 C 
ATOM      6  C   LIG d   1      -3.109  79.390 117.000  0.00  0.00     0.091 C 
ENDROOT
BRANCH   1   7
ATOM      7  O   LIG d   1      -1.758  77.655 115.921  0.00  0.00    -0.368 OA
BRANCH   7   8
ATOM      8  C   LIG d   1      -1.972  76.340 115.350  0.00  0.00     0.119 C 
BRANCH   8   9
ATOM      9  C   LIG d   1      -2.054  75.337 116.517  0.00  0.00     0.028 C 
ATOM     10  C   LIG d   1      -3.504  74.992 116.895  0.00  0.00     0.006 C 
ENDBRANCH   8   9
BRANCH   8  11
ATOM     11  C   LIG d   1      -0.770  75.893 114.514  0.00  0.00     0.028 C 
ATOM     12  C   LIG d   1      -0.362  74.437 114.788  0.00  0.00     0.006 C 
ENDBRANCH   8  11
ENDBRANCH   7   8
ENDBRANCH   1   7
BRANCH   6  13
ATOM     13  N   LIG d   1      -3.887  78.485 117.886  0.00  0.00    -0.311 N 
ATOM     14  C   LIG d   1      -3.703  78.412 119.203  0.00  0.00     0.210 C 
ATOM     15  C   LIG d   1      -4.596  77.398 119.925  0.00  0.00     0.109 C 
ATOM     16  O   LIG d   1      -2.908  79.113 119.846  0.00  0.00    -0.276 OA
ATOM     17  H   LIG d   1      -4.575  77.902 117.451  0.00  0.00     0.149 HD
ENDBRANCH   6  13
BRANCH   5  18
ATOM     18  N   LIG d   1      -4.054  81.535 117.929  0.00  0.00     0.381 N 
ATOM     19  H   LIG d   1      -4.280  82.474 117.669  0.00  0.00    -0.090 HD
ATOM     20  H   LIG d   1      -3.200  81.551 118.458  0.00  0.00    -0.090 HD
ATOM     21  H   LIG d   1      -4.788  81.149 118.481  0.00  0.00    -0.090 HD
ENDBRANCH   5  18
BRANCH   3  22
ATOM     22  C   LIG d   1      -2.488  81.538 113.402  0.00  0.00     0.382 C 
ATOM     23  O   LIG d   1      -1.446  82.210 113.211  0.00  0.00    -0.241 OA
ATOM     24  O   LIG d   1      -3.389  81.543 112.542  0.00  0.00    -0.241 OA
ENDBRANCH   3  22
TORSDOF 7
ENDMDL
