MODEL 1
REMARK VINA RESULT:      -4.8      0.000      0.000
REMARK  7 active torsions:
REMARK  status: ('A' for Active; 'I' for Inactive)
REMARK    1  A    between atoms: C_2  and  C_3 
REMARK    2  A    between atoms: C_3  and  O_6 
REMARK    3  A    between atoms: C_3  and  C_4 
REMARK    4  A    between atoms: C_7  and  O_6 
REMARK    5  A    between atoms: C_9  and  C_10 
REMARK    6  A    between atoms: N_15  and  C_14 
REMARK    7  A    between atoms: N_20  and  C_19 
REMARK       I    between atoms: C_22  and  N_20 
ROOT
ATOM      1  C   LIG d   1      -2.540  78.946 115.904  0.00  0.00     0.161 C 
ATOM      2  C   LIG d   1      -2.897  80.221 115.435  0.00  0.00     0.016 C 
ATOM      3  C   LIG d   1      -2.886  80.578 114.067  0.00  0.00     0.038 C 
ATOM      4  C   LIG d   1      -2.662  79.633 113.056  0.00  0.00     0.028 C 
ATOM      5  C   LIG d   1      -1.805  78.455 113.507  0.00  0.00    -0.047 C 
ATOM      6  C   LIG d   1      -2.400  77.870 114.807  0.00  0.00     0.091 C 
ENDROOT
BRANCH   1   7
ATOM      7  O   LIG d   1      -3.477  78.516 116.911  0.00  0.00    -0.368 OA
BRANCH   7   8
ATOM      8  C   LIG d   1      -4.879  78.610 116.559  0.00  0.00     0.119 C 
BRANCH   8   9
ATOM      9  C   LIG d   1      -5.588  79.387 117.686  0.00  0.00     0.028 C 
ATOM     10  C   LIG d   1      -6.153  80.734 117.204  0.00  0.00     0.006 C 
ENDBRANCH   8   9
BRANCH   8  11
ATOM     11  C   LIG d   1      -5.542  77.230 116.539  0.00  0.00     0.028 C 
ATOM     12  C   LIG d   1      -5.035  76.308 117.660  0.00  0.00     0.006 C 
ENDBRANCH   8  11
ENDBRANCH   7   8
ENDBRANCH   1   7
BRANCH   6  13
ATOM     13  N   LIG d   1      -1.573  76.766 115.363  0.00  0.00    -0.311 N 
ATOM     14  C   LIG d   1      -1.989  75.503 115.434  0.00  0.00     0.210 C 
ATOM     15  C   LIG d   1      -0.988  74.527 116.060  0.00  0.00     0.109 C 
ATOM     16  O   LIG d   1      -3.079  75.092 115.009  0.00  0.00    -0.276 OA
ATOM     17  H   LIG d   1      -0.662  77.006 115.702  0.00  0.00     0.149 HD
ENDBRANCH   6  13
BRANCH   5  18
ATOM     18  N   LIG d   1      -1.766  77.482 112.399  0.00  0.00     0.381 N 
ATOM     19  H   LIG d   1      -0.821  77.349 112.098  0.00  0.00    -0.090 HD
ATOM     20  H   LIG d   1      -2.295  77.847 111.627  0.00  0.00    -0.090 HD
ATOM     21  H   LIG d   1      -2.153  76.613 112.695  0.00  0.00    -0.090 HD
ENDBRANCH   5  18
BRANCH   3  22
ATOM     22  C   LIG d   1      -3.063  81.904 113.702  0.00  0.00     0.382 C 
ATOM     23  O   LIG d   1      -2.445  82.370 112.715  0.00  0.00    -0.241 OA
ATOM     24  O   LIG d   1      -3.799  82.652 114.373  0.00  0.00    -0.241 OA
ENDBRANCH   3  22
TORSDOF 7
ENDMDL
MODEL 2
REMARK VINA RESULT:      -4.8      1.780      2.570
REMARK  7 active torsions:
REMARK  status: ('A' for Active; 'I' for Inactive)
REMARK    1  A    between atoms: C_2  and  C_3 
REMARK    2  A    between atoms: C_3  and  O_6 
REMARK    3  A    between atoms: C_3  and  C_4 
REMARK    4  A    between atoms: C_7  and  O_6 
REMARK    5  A    between atoms: C_9  and  C_10 
REMARK    6  A    between atoms: N_15  and  C_14 
REMARK    7  A    between atoms: N_20  and  C_19 
REMARK       I    between atoms: C_22  and  N_20 
ROOT
ATOM      1  C   LIG d   1      -3.048  80.446 115.086  0.00  0.00     0.161 C 
ATOM      2  C   LIG d   1      -2.689  81.685 114.527  0.00  0.00     0.016 C 
ATOM      3  C   LIG d   1      -1.980  81.813 113.310  0.00  0.00     0.038 C 
ATOM      4  C   LIG d   1      -1.713  80.709 112.487  0.00  0.00     0.028 C 
ATOM      5  C   LIG d   1      -1.611  79.394 113.253  0.00  0.00    -0.047 C 
ATOM      6  C   LIG d   1      -2.862  79.236 114.147  0.00  0.00     0.091 C 
ENDROOT
BRANCH   1   7
ATOM      7  O   LIG d   1      -4.404  80.503 115.568  0.00  0.00    -0.368 OA
BRANCH   7   8
ATOM      8  C   LIG d   1      -4.569  80.509 117.008  0.00  0.00     0.119 C 
BRANCH   8   9
ATOM      9  C   LIG d   1      -5.955  79.911 117.317  0.00  0.00     0.028 C 
ATOM     10  C   LIG d   1      -7.058  80.982 117.367  0.00  0.00     0.006 C 
ENDBRANCH   8   9
BRANCH   8  11
ATOM     11  C   LIG d   1      -4.611  81.938 117.558  0.00  0.00     0.028 C 
ATOM     12  C   LIG d   1      -3.534  82.198 118.623  0.00  0.00     0.006 C 
ENDBRANCH   8  11
ENDBRANCH   7   8
ENDBRANCH   1   7
BRANCH   6  13
ATOM     13  N   LIG d   1      -2.803  78.016 114.994  0.00  0.00    -0.311 N 
ATOM     14  C   LIG d   1      -3.355  76.854 114.646  0.00  0.00     0.210 C 
ATOM     15  C   LIG d   1      -3.195  75.729 115.673  0.00  0.00     0.109 C 
ATOM     16  O   LIG d   1      -3.934  76.641 113.570  0.00  0.00    -0.276 OA
ATOM     17  H   LIG d   1      -2.325  78.091 115.870  0.00  0.00     0.149 HD
ENDBRANCH   6  13
BRANCH   5  18
ATOM     18  N   LIG d   1      -1.469  78.311 112.262  0.00  0.00     0.381 N 
ATOM     19  H   LIG d   1      -1.314  78.701 111.353  0.00  0.00    -0.090 HD
ATOM     20  H   LIG d   1      -2.321  77.780 112.235  0.00  0.00    -0.090 HD
ATOM     21  H   LIG d   1      -0.707  77.719 112.511  0.00  0.00    -0.090 HD
ENDBRANCH   5  18
BRANCH   3  22
ATOM     22  C   LIG d   1      -1.496  83.054 112.925  0.00  0.00     0.382 C 
ATOM     23  O   LIG d   1      -1.394  83.977 113.768  0.00  0.00    -0.241 OA
ATOM     24  O   LIG d   1      -1.202  83.275 111.735  0.00  0.00    -0.241 OA
ENDBRANCH   3  22
TORSDOF 7
ENDMDL
MODEL 3
REMARK VINA RESULT:      -4.7      2.476      5.292
REMARK  7 active torsions:
REMARK  status: ('A' for Active; 'I' for Inactive)
REMARK    1  A    between atoms: C_2  and  C_3 
REMARK    2  A    between atoms: C_3  and  O_6 
REMARK    3  A    between atoms: C_3  and  C_4 
REMARK    4  A    between atoms: C_7  and  O_6 
REMARK    5  A    between atoms: C_9  and  C_10 
REMARK    6  A    between atoms: N_15  and  C_14 
REMARK    7  A    between atoms: N_20  and  C_19 
REMARK       I    between atoms: C_22  and  N_20 
ROOT
ATOM      1  C   LIG d   1      -2.643  80.548 114.557  0.00  0.00     0.161 C 
ATOM      2  C   LIG d   1      -3.071  79.247 114.870  0.00  0.00     0.016 C 
ATOM      3  C   LIG d   1      -2.779  78.119 114.069  0.00  0.00     0.038 C 
ATOM      4  C   LIG d   1      -1.906  78.193 112.974  0.00  0.00     0.028 C 
ATOM      5  C   LIG d   1      -1.858  79.574 112.329  0.00  0.00    -0.047 C 
ATOM      6  C   LIG d   1      -1.596  80.631 113.427  0.00  0.00     0.091 C 
ENDROOT
BRANCH   1   7
ATOM      7  O   LIG d   1      -2.150  81.198 115.745  0.00  0.00    -0.368 OA
BRANCH   7   8
ATOM      8  C   LIG d   1      -2.884  82.368 116.183  0.00  0.00     0.119 C 
BRANCH   8   9
ATOM      9  C   LIG d   1      -1.856  83.397 116.691  0.00  0.00     0.028 C 
ATOM     10  C   LIG d   1      -1.466  83.161 118.160  0.00  0.00     0.006 C 
ENDBRANCH   8   9
BRANCH   8  11
ATOM     11  C   LIG d   1      -3.771  82.051 117.390  0.00  0.00     0.028 C 
ATOM     12  C   LIG d   1      -5.223  81.734 116.997  0.00  0.00     0.006 C 
ENDBRANCH   8  11
ENDBRANCH   7   8
ENDBRANCH   1   7
BRANCH   6  13
ATOM     13  N   LIG d   1      -1.618  82.018 112.894  0.00  0.00    -0.311 N 
ATOM     14  C   LIG d   1      -0.643  82.900 113.106  0.00  0.00     0.210 C 
ATOM     15  C   LIG d   1      -0.873  84.281 112.485  0.00  0.00     0.109 C 
ATOM     16  O   LIG d   1       0.406  82.660 113.723  0.00  0.00    -0.276 OA
ATOM     17  H   LIG d   1      -2.418  82.288 112.356  0.00  0.00     0.149 HD
ENDBRANCH   6  13
BRANCH   5  18
ATOM     18  N   LIG d   1      -0.810  79.546 111.292  0.00  0.00     0.381 N 
ATOM     19  H   LIG d   1      -0.194  78.774 111.454  0.00  0.00    -0.090 HD
ATOM     20  H   LIG d   1      -0.274  80.394 111.348  0.00  0.00    -0.090 HD
ATOM     21  H   LIG d   1      -1.224  79.465 110.390  0.00  0.00    -0.090 HD
ENDBRANCH   5  18
BRANCH   3  22
ATOM     22  C   LIG d   1      -3.397  76.907 114.338  0.00  0.00     0.382 C 
ATOM     23  O   LIG d   1      -4.270  76.460 113.556  0.00  0.00    -0.241 OA
ATOM     24  O   LIG d   1      -3.123  76.275 115.377  0.00  0.00    -0.241 OA
ENDBRANCH   3  22
TORSDOF 7
ENDMDL
MODEL 4
REMARK VINA RESULT:      -4.7      3.451      5.880
REMARK  7 active torsions:
REMARK  status: ('A' for Active; 'I' for Inactive)
REMARK    1  A    between atoms: C_2  and  C_3 
REMARK    2  A    between atoms: C_3  and  O_6 
REMARK    3  A    between atoms: C_3  and  C_4 
REMARK    4  A    between atoms: C_7  and  O_6 
REMARK    5  A    between atoms: C_9  and  C_10 
REMARK    6  A    between atoms: N_15  and  C_14 
REMARK    7  A    between atoms: N_20  and  C_19 
REMARK       I    between atoms: C_22  and  N_20 
ROOT
ATOM      1  C   LIG d   1      -6.045  78.559 117.283  0.00  0.00     0.161 C 
ATOM      2  C   LIG d   1      -7.387  78.465 117.686  0.00  0.00     0.016 C 
ATOM      3  C   LIG d   1      -8.188  79.589 117.995  0.00  0.00     0.038 C 
ATOM      4  C   LIG d   1      -7.742  80.900 117.773  0.00  0.00     0.028 C 
ATOM      5  C   LIG d   1      -6.225  81.045 117.847  0.00  0.00    -0.047 C 
ATOM      6  C   LIG d   1      -5.575  79.986 116.929  0.00  0.00     0.091 C 
ENDROOT
BRANCH   1   7
ATOM      7  O   LIG d   1      -5.802  77.663 116.180  0.00  0.00    -0.368 OA
BRANCH   7   8
ATOM      8  C   LIG d   1      -5.678  76.259 116.515  0.00  0.00     0.119 C 
BRANCH   8   9
ATOM      9  C   LIG d   1      -4.238  75.827 116.174  0.00  0.00     0.028 C 
ATOM     10  C   LIG d   1      -3.696  76.532 114.919  0.00  0.00     0.006 C 
ENDBRANCH   8   9
BRANCH   8  11
ATOM     11  C   LIG d   1      -6.581  75.394 115.632  0.00  0.00     0.028 C 
ATOM     12  C   LIG d   1      -7.990  75.211 116.220  0.00  0.00     0.006 C 
ENDBRANCH   8  11
ENDBRANCH   7   8
ENDBRANCH   1   7
BRANCH   6  13
ATOM     13  N   LIG d   1      -4.091  80.003 117.007  0.00  0.00    -0.311 N 
ATOM     14  C   LIG d   1      -3.302  80.163 115.945  0.00  0.00     0.210 C 
ATOM     15  C   LIG d   1      -1.800  80.130 116.244  0.00  0.00     0.109 C 
ATOM     16  O   LIG d   1      -3.705  80.363 114.789  0.00  0.00    -0.276 OA
ATOM     17  H   LIG d   1      -3.680  79.879 117.912  0.00  0.00     0.149 HD
ENDBRANCH   6  13
BRANCH   5  18
ATOM     18  N   LIG d   1      -5.890  82.429 117.462  0.00  0.00     0.381 N 
ATOM     19  H   LIG d   1      -5.992  82.539 116.473  0.00  0.00    -0.090 HD
ATOM     20  H   LIG d   1      -4.932  82.610 117.703  0.00  0.00    -0.090 HD
ATOM     21  H   LIG d   1      -6.487  83.069 117.938  0.00  0.00    -0.090 HD
ENDBRANCH   5  18
BRANCH   3  22
ATOM     22  C   LIG d   1      -9.437  79.406 118.568  0.00  0.00     0.382 C 
ATOM     23  O   LIG d   1     -10.060  78.332 118.386  0.00  0.00    -0.241 OA
ATOM     24  O   LIG d   1      -9.968  80.318 119.230  0.00  0.00    -0.241 OA
ENDBRANCH   3  22
TORSDOF 7
ENDMDL
MODEL 5
REMARK VINA RESULT:      -4.7      2.707      3.855
REMARK  7 active torsions:
REMARK  status: ('A' for Active; 'I' for Inactive)
REMARK    1  A    between atoms: C_2  and  C_3 
REMARK    2  A    between atoms: C_3  and  O_6 
REMARK    3  A    between atoms: C_3  and  C_4 
REMARK    4  A    between atoms: C_7  and  O_6 
REMARK    5  A    between atoms: C_9  and  C_10 
REMARK    6  A    between atoms: N_15  and  C_14 
REMARK    7  A    between atoms: N_20  and  C_19 
REMARK       I    between atoms: C_22  and  N_20 
ROOT
ATOM      1  C   LIG d   1      -5.203  77.735 116.661  0.00  0.00     0.161 C 
ATOM      2  C   LIG d   1      -5.960  78.899 116.880  0.00  0.00     0.016 C 
ATOM      3  C   LIG d   1      -5.408  80.200 116.864  0.00  0.00     0.038 C 
ATOM      4  C   LIG d   1      -4.081  80.439 116.477  0.00  0.00     0.028 C 
ATOM      5  C   LIG d   1      -3.152  79.258 116.740  0.00  0.00    -0.047 C 
ATOM      6  C   LIG d   1      -3.776  77.983 116.128  0.00  0.00     0.091 C 
ENDROOT
BRANCH   1   7
ATOM      7  O   LIG d   1      -5.918  76.844 115.783  0.00  0.00    -0.368 OA
BRANCH   7   8
ATOM      8  C   LIG d   1      -6.432  75.631 116.387  0.00  0.00     0.119 C 
BRANCH   8   9
ATOM      9  C   LIG d   1      -5.854  74.441 115.598  0.00  0.00     0.028 C 
ATOM     10  C   LIG d   1      -5.486  74.818 114.153  0.00  0.00     0.006 C 
ENDBRANCH   8   9
BRANCH   8  11
ATOM     11  C   LIG d   1      -7.951  75.527 116.223  0.00  0.00     0.028 C 
ATOM     12  C   LIG d   1      -8.550  74.323 116.966  0.00  0.00     0.006 C 
ENDBRANCH   8  11
ENDBRANCH   7   8
ENDBRANCH   1   7
BRANCH   6  13
ATOM     13  N   LIG d   1      -2.972  76.766 116.413  0.00  0.00    -0.311 N 
ATOM     14  C   LIG d   1      -2.342  76.066 115.470  0.00  0.00     0.210 C 
ATOM     15  C   LIG d   1      -1.586  74.834 115.977  0.00  0.00     0.109 C 
ATOM     16  O   LIG d   1      -2.311  76.367 114.268  0.00  0.00    -0.276 OA
ATOM     17  H   LIG d   1      -2.918  76.468 117.367  0.00  0.00     0.149 HD
ENDBRANCH   6  13
BRANCH   5  18
ATOM     18  N   LIG d   1      -1.835  79.590 116.164  0.00  0.00     0.381 N 
ATOM     19  H   LIG d   1      -1.939  79.834 115.199  0.00  0.00    -0.090 HD
ATOM     20  H   LIG d   1      -1.241  78.782 116.224  0.00  0.00    -0.090 HD
ATOM     21  H   LIG d   1      -1.427  80.349 116.664  0.00  0.00    -0.090 HD
ENDBRANCH   5  18
BRANCH   3  22
ATOM     22  C   LIG d   1      -6.177  81.278 117.277  0.00  0.00     0.382 C 
ATOM     23  O   LIG d   1      -5.797  81.986 118.241  0.00  0.00    -0.241 OA
ATOM     24  O   LIG d   1      -7.268  81.523 116.728  0.00  0.00    -0.241 OA
ENDBRANCH   3  22
TORSDOF 7
ENDMDL
MODEL 6
REMARK VINA RESULT:      -4.4      1.390      2.339
REMARK  7 active torsions:
REMARK  status: ('A' for Active; 'I' for Inactive)
REMARK    1  A    between atoms: C_2  and  C_3 
REMARK    2  A    between atoms: C_3  and  O_6 
REMARK    3  A    between atoms: C_3  and  C_4 
REMARK    4  A    between atoms: C_7  and  O_6 
REMARK    5  A    between atoms: C_9  and  C_10 
REMARK    6  A    between atoms: N_15  and  C_14 
REMARK    7  A    between atoms: N_20  and  C_19 
REMARK       I    between atoms: C_22  and  N_20 
ROOT
ATOM      1  C   LIG d   1      -2.594  78.969 115.981  0.00  0.00     0.161 C 
ATOM      2  C   LIG d   1      -2.945  80.241 115.502  0.00  0.00     0.016 C 
ATOM      3  C   LIG d   1      -2.895  80.599 114.135  0.00  0.00     0.038 C 
ATOM      4  C   LIG d   1      -2.632  79.655 113.131  0.00  0.00     0.028 C 
ATOM      5  C   LIG d   1      -1.780  78.484 113.608  0.00  0.00    -0.047 C 
ATOM      6  C   LIG d   1      -2.412  77.894 114.890  0.00  0.00     0.091 C 
ENDROOT
BRANCH   1   7
ATOM      7  O   LIG d   1      -3.559  78.532 116.959  0.00  0.00    -0.368 OA
BRANCH   7   8
ATOM      8  C   LIG d   1      -3.049  78.290 118.294  0.00  0.00     0.119 C 
BRANCH   8   9
ATOM      9  C   LIG d   1      -3.424  76.846 118.678  0.00  0.00     0.028 C 
ATOM     10  C   LIG d   1      -2.269  76.106 119.374  0.00  0.00     0.006 C 
ENDBRANCH   8   9
BRANCH   8  11
ATOM     11  C   LIG d   1      -3.749  79.179 119.326  0.00  0.00     0.028 C 
ATOM     12  C   LIG d   1      -3.006  80.501 119.577  0.00  0.00     0.006 C 
ENDBRANCH   8  11
ENDBRANCH   7   8
ENDBRANCH   1   7
BRANCH   6  13
ATOM     13  N   LIG d   1      -1.595  76.797 115.471  0.00  0.00    -0.311 N 
ATOM     14  C   LIG d   1      -1.974  75.520 115.470  0.00  0.00     0.210 C 
ATOM     15  C   LIG d   1      -0.992  74.553 116.138  0.00  0.00     0.109 C 
ATOM     16  O   LIG d   1      -3.016  75.092 114.950  0.00  0.00    -0.276 OA
ATOM     17  H   LIG d   1      -0.719  77.050 115.886  0.00  0.00     0.149 HD
ENDBRANCH   6  13
BRANCH   5  18
ATOM     18  N   LIG d   1      -1.699  77.511 112.502  0.00  0.00     0.381 N 
ATOM     19  H   LIG d   1      -2.620  77.275 112.191  0.00  0.00    -0.090 HD
ATOM     20  H   LIG d   1      -1.256  76.674 112.837  0.00  0.00    -0.090 HD
ATOM     21  H   LIG d   1      -1.174  77.895 111.748  0.00  0.00    -0.090 HD
ENDBRANCH   5  18
BRANCH   3  22
ATOM     22  C   LIG d   1      -3.070  81.923 113.764  0.00  0.00     0.382 C 
ATOM     23  O   LIG d   1      -3.858  82.656 114.409  0.00  0.00    -0.241 OA
ATOM     24  O   LIG d   1      -2.484  82.383 112.765  0.00  0.00    -0.241 OA
ENDBRANCH   3  22
TORSDOF 7
ENDMDL
MODEL 7
REMARK VINA RESULT:      -4.2      2.839      6.088
REMARK  7 active torsions:
REMARK  status: ('A' for Active; 'I' for Inactive)
REMARK    1  A    between atoms: C_2  and  C_3 
REMARK    2  A    between atoms: C_3  and  O_6 
REMARK    3  A    between atoms: C_3  and  C_4 
REMARK    4  A    between atoms: C_7  and  O_6 
REMARK    5  A    between atoms: C_9  and  C_10 
REMARK    6  A    between atoms: N_15  and  C_14 
REMARK    7  A    between atoms: N_20  and  C_19 
REMARK       I    between atoms: C_22  and  N_20 
ROOT
ATOM      1  C   LIG d   1      -4.392  79.206 116.539  0.00  0.00     0.161 C 
ATOM      2  C   LIG d   1      -3.921  77.995 116.005  0.00  0.00     0.016 C 
ATOM      3  C   LIG d   1      -4.626  76.774 116.104  0.00  0.00     0.038 C 
ATOM      4  C   LIG d   1      -5.931  76.711 116.616  0.00  0.00     0.028 C 
ATOM      5  C   LIG d   1      -6.241  77.814 117.622  0.00  0.00    -0.047 C 
ATOM      6  C   LIG d   1      -5.864  79.179 117.003  0.00  0.00     0.091 C 
ENDROOT
BRANCH   1   7
ATOM      7  O   LIG d   1      -4.185  80.272 115.591  0.00  0.00    -0.368 OA
BRANCH   7   8
ATOM      8  C   LIG d   1      -2.980  81.057 115.768  0.00  0.00     0.119 C 
BRANCH   8   9
ATOM      9  C   LIG d   1      -3.382  82.368 116.472  0.00  0.00     0.028 C 
ATOM     10  C   LIG d   1      -2.957  82.394 117.950  0.00  0.00     0.006 C 
ENDBRANCH   8   9
BRANCH   8  11
ATOM     11  C   LIG d   1      -2.391  81.485 114.421  0.00  0.00     0.028 C 
ATOM     12  C   LIG d   1      -2.824  80.571 113.264  0.00  0.00     0.006 C 
ENDBRANCH   8  11
ENDBRANCH   7   8
ENDBRANCH   1   7
BRANCH   6  13
ATOM     13  N   LIG d   1      -6.056  80.305 117.953  0.00  0.00    -0.311 N 
ATOM     14  C   LIG d   1      -6.775  81.390 117.668  0.00  0.00     0.210 C 
ATOM     15  C   LIG d   1      -6.829  82.441 118.782  0.00  0.00     0.109 C 
ATOM     16  O   LIG d   1      -7.399  81.567 116.611  0.00  0.00    -0.276 OA
ATOM     17  H   LIG d   1      -5.610  80.230 118.846  0.00  0.00     0.149 HD
ENDBRANCH   6  13
BRANCH   5  18
ATOM     18  N   LIG d   1      -7.671  77.712 117.969  0.00  0.00     0.381 N 
ATOM     19  H   LIG d   1      -7.778  77.194 118.818  0.00  0.00    -0.090 HD
ATOM     20  H   LIG d   1      -8.149  77.218 117.236  0.00  0.00    -0.090 HD
ATOM     21  H   LIG d   1      -8.062  78.622 118.076  0.00  0.00    -0.090 HD
ENDBRANCH   5  18
BRANCH   3  22
ATOM     22  C   LIG d   1      -4.010  75.591 115.725  0.00  0.00     0.382 C 
ATOM     23  O   LIG d   1      -4.145  75.162 114.553  0.00  0.00    -0.241 OA
ATOM     24  O   LIG d   1      -3.358  74.925 116.551  0.00  0.00    -0.241 OA
ENDBRANCH   3  22
TORSDOF 7
ENDMDL
MODEL 8
REMARK VINA RESULT:      -4.1      2.515      5.772
REMARK  7 active torsions:
REMARK  status: ('A' for Active; 'I' for Inactive)
REMARK    1  A    between atoms: C_2  and  C_3 
REMARK    2  A    between atoms: C_3  and  O_6 
REMARK    3  A    between atoms: C_3  and  C_4 
REMARK    4  A    between atoms: C_7  and  O_6 
REMARK    5  A    between atoms: C_9  and  C_10 
REMARK    6  A    between atoms: N_15  and  C_14 
REMARK    7  A    between atoms: N_20  and  C_19 
REMARK       I    between atoms: C_22  and  N_20 
ROOT
ATOM      1  C   LIG d   1      -3.501  79.791 115.788  0.00  0.00     0.161 C 
ATOM      2  C   LIG d   1      -2.901  78.725 115.097  0.00  0.00     0.016 C 
ATOM      3  C   LIG d   1      -3.237  77.369 115.315  0.00  0.00     0.038 C 
ATOM      4  C   LIG d   1      -4.312  76.995 116.136  0.00  0.00     0.028 C 
ATOM      5  C   LIG d   1      -4.613  78.005 117.238  0.00  0.00    -0.047 C 
ATOM      6  C   LIG d   1      -4.752  79.409 116.607  0.00  0.00     0.091 C 
ENDROOT
BRANCH   1   7
ATOM      7  O   LIG d   1      -3.810  80.857 114.869  0.00  0.00    -0.368 OA
BRANCH   7   8
ATOM      8  C   LIG d   1      -3.013  82.060 114.997  0.00  0.00     0.119 C 
BRANCH   8   9
ATOM      9  C   LIG d   1      -2.169  82.196 113.714  0.00  0.00     0.028 C 
ATOM     10  C   LIG d   1      -0.705  81.779 113.929  0.00  0.00     0.006 C 
ENDBRANCH   8   9
BRANCH   8  11
ATOM     11  C   LIG d   1      -2.000  81.939 116.138  0.00  0.00     0.028 C 
ATOM     12  C   LIG d   1      -2.245  82.957 117.263  0.00  0.00     0.006 C 
ENDBRANCH   8  11
ENDBRANCH   7   8
ENDBRANCH   1   7
BRANCH   6  13
ATOM     13  N   LIG d   1      -4.964  80.470 117.626  0.00  0.00    -0.311 N 
ATOM     14  C   LIG d   1      -5.940  81.374 117.551  0.00  0.00     0.210 C 
ATOM     15  C   LIG d   1      -5.968  82.391 118.696  0.00  0.00     0.109 C 
ATOM     16  O   LIG d   1      -6.803  81.410 116.661  0.00  0.00    -0.276 OA
ATOM     17  H   LIG d   1      -4.327  80.495 118.398  0.00  0.00     0.149 HD
ENDBRANCH   6  13
BRANCH   5  18
ATOM     18  N   LIG d   1      -5.837  77.558 117.929  0.00  0.00     0.381 N 
ATOM     19  H   LIG d   1      -6.394  77.005 117.309  0.00  0.00    -0.090 HD
ATOM     20  H   LIG d   1      -6.372  78.365 118.198  0.00  0.00    -0.090 HD
ATOM     21  H   LIG d   1      -5.598  77.025 118.736  0.00  0.00    -0.090 HD
ENDBRANCH   5  18
BRANCH   3  22
ATOM     22  C   LIG d   1      -2.469  76.369 114.738  0.00  0.00     0.382 C 
ATOM     23  O   LIG d   1      -1.755  76.625 113.739  0.00  0.00    -0.241 OA
ATOM     24  O   LIG d   1      -2.516  75.205 115.177  0.00  0.00    -0.241 OA
ENDBRANCH   3  22
TORSDOF 7
ENDMDL
MODEL 9
REMARK VINA RESULT:      -4.1      2.286      3.162
REMARK  7 active torsions:
REMARK  status: ('A' for Active; 'I' for Inactive)
REMARK    1  A    between atoms: C_2  and  C_3 
REMARK    2  A    between atoms: C_3  and  O_6 
REMARK    3  A    between atoms: C_3  and  C_4 
REMARK    4  A    between atoms: C_7  and  O_6 
REMARK    5  A    between atoms: C_9  and  C_10 
REMARK    6  A    between atoms: N_15  and  C_14 
REMARK    7  A    between atoms: N_20  and  C_19 
REMARK       I    between atoms: C_22  and  N_20 
ROOT
ATOM      1  C   LIG d   1      -4.342  77.231 117.169  0.00  0.00     0.161 C 
ATOM      2  C   LIG d   1      -5.056  78.436 117.281  0.00  0.00     0.016 C 
ATOM      3  C   LIG d   1      -4.634  79.649 116.689  0.00  0.00     0.038 C 
ATOM      4  C   LIG d   1      -3.538  79.705 115.814  0.00  0.00     0.028 C 
ATOM      5  C   LIG d   1      -2.497  78.622 116.077  0.00  0.00    -0.047 C 
ATOM      6  C   LIG d   1      -3.204  77.248 116.127  0.00  0.00     0.091 C 
ENDROOT
BRANCH   1   7
ATOM      7  O   LIG d   1      -5.252  76.146 116.900  0.00  0.00    -0.368 OA
BRANCH   7   8
ATOM      8  C   LIG d   1      -6.340  76.439 115.990  0.00  0.00     0.119 C 
BRANCH   8   9
ATOM      9  C   LIG d   1      -7.594  75.715 116.519  0.00  0.00     0.028 C 
ATOM     10  C   LIG d   1      -8.300  76.504 117.635  0.00  0.00     0.006 C 
ENDBRANCH   8   9
BRANCH   8  11
ATOM     11  C   LIG d   1      -6.082  75.841 114.603  0.00  0.00     0.028 C 
ATOM     12  C   LIG d   1      -5.316  74.510 114.661  0.00  0.00     0.006 C 
ENDBRANCH   8  11
ENDBRANCH   7   8
ENDBRANCH   1   7
BRANCH   6  13
ATOM     13  N   LIG d   1      -2.270  76.142 116.463  0.00  0.00    -0.311 N 
ATOM     14  C   LIG d   1      -1.595  75.449 115.548  0.00  0.00     0.210 C 
ATOM     15  C   LIG d   1      -0.701  74.337 116.107  0.00  0.00     0.109 C 
ATOM     16  O   LIG d   1      -1.627  75.670 114.328  0.00  0.00    -0.276 OA
ATOM     17  H   LIG d   1      -2.160  75.916 117.432  0.00  0.00     0.149 HD
ENDBRANCH   6  13
BRANCH   5  18
ATOM     18  N   LIG d   1      -1.483  78.711 115.010  0.00  0.00     0.381 N 
ATOM     19  H   LIG d   1      -1.864  78.369 114.150  0.00  0.00    -0.090 HD
ATOM     20  H   LIG d   1      -0.698  78.134 115.258  0.00  0.00    -0.090 HD
ATOM     21  H   LIG d   1      -1.188  79.656 114.898  0.00  0.00    -0.090 HD
ENDBRANCH   5  18
BRANCH   3  22
ATOM     22  C   LIG d   1      -5.287  80.831 117.004  0.00  0.00     0.382 C 
ATOM     23  O   LIG d   1      -4.722  81.685 117.728  0.00  0.00    -0.241 OA
ATOM     24  O   LIG d   1      -6.450  81.034 116.609  0.00  0.00    -0.241 OA
ENDBRANCH   3  22
TORSDOF 7
ENDMDL
