MODEL 1
REMARK VINA RESULT:      -4.8      0.000      0.000
REMARK  7 active torsions:
REMARK  status: ('A' for Active; 'I' for Inactive)
REMARK    1  A    between atoms: C_2  and  C_3 
REMARK    2  A    between atoms: C_3  and  O_6 
REMARK    3  A    between atoms: C_3  and  C_4 
REMARK    4  A    between atoms: C_7  and  O_6 
REMARK    5  A    between atoms: C_9  and  C_10 
REMARK    6  A    between atoms: N_15  and  C_14 
REMARK    7  A    between atoms: N_20  and  C_19 
REMARK       I    between atoms: C_22  and  N_20 
ROOT
ATOM      1  C   LIG d   1      -5.804  76.872 116.819  0.00  0.00     0.161 C 
ATOM      2  C   LIG d   1      -7.164  76.683 117.114  0.00  0.00     0.016 C 
ATOM      3  C   LIG d   1      -7.979  77.680 117.699  0.00  0.00     0.038 C 
ATOM      4  C   LIG d   1      -7.523  78.993 117.889  0.00  0.00     0.028 C 
ATOM      5  C   LIG d   1      -6.012  79.089 118.073  0.00  0.00    -0.047 C 
ATOM      6  C   LIG d   1      -5.317  78.333 116.917  0.00  0.00     0.091 C 
ENDROOT
BRANCH   1   7
ATOM      7  O   LIG d   1      -5.508  76.331 115.516  0.00  0.00    -0.368 OA
BRANCH   7   8
ATOM      8  C   LIG d   1      -5.357  74.892 115.442  0.00  0.00     0.119 C 
BRANCH   8   9
ATOM      9  C   LIG d   1      -4.008  74.534 116.095  0.00  0.00     0.028 C 
ATOM     10  C   LIG d   1      -2.813  75.145 115.345  0.00  0.00     0.006 C 
ENDBRANCH   8   9
BRANCH   8  11
ATOM     11  C   LIG d   1      -5.244  74.418 113.990  0.00  0.00     0.028 C 
ATOM     12  C   LIG d   1      -5.671  75.492 112.977  0.00  0.00     0.006 C 
ENDBRANCH   8  11
ENDBRANCH   7   8
ENDBRANCH   1   7
BRANCH   6  13
ATOM     13  N   LIG d   1      -3.839  78.305 117.065  0.00  0.00    -0.311 N 
ATOM     14  C   LIG d   1      -3.001  78.811 116.161  0.00  0.00     0.210 C 
ATOM     15  C   LIG d   1      -1.515  78.660 116.501  0.00  0.00     0.109 C 
ATOM     16  O   LIG d   1      -3.349  79.400 115.127  0.00  0.00    -0.276 OA
ATOM     17  H   LIG d   1      -3.471  77.874 117.891  0.00  0.00     0.149 HD
ENDBRANCH   6  13
BRANCH   5  18
ATOM     18  N   LIG d   1      -5.658  80.520 118.122  0.00  0.00     0.381 N 
ATOM     19  H   LIG d   1      -5.557  80.811 119.074  0.00  0.00    -0.090 HD
ATOM     20  H   LIG d   1      -6.402  81.053 117.707  0.00  0.00    -0.090 HD
ATOM     21  H   LIG d   1      -4.809  80.679 117.627  0.00  0.00    -0.090 HD
ENDBRANCH   5  18
BRANCH   3  22
ATOM     22  C   LIG d   1      -9.254  77.356 118.136  0.00  0.00     0.382 C 
ATOM     23  O   LIG d   1      -9.619  76.157 118.170  0.00  0.00    -0.241 OA
ATOM     24  O   LIG d   1     -10.059  78.252 118.454  0.00  0.00    -0.241 OA
ENDBRANCH   3  22
TORSDOF 7
ENDMDL
MODEL 2
REMARK VINA RESULT:      -4.5      0.588      1.657
REMARK  7 active torsions:
REMARK  status: ('A' for Active; 'I' for Inactive)
REMARK    1  A    between atoms: C_2  and  C_3 
REMARK    2  A    between atoms: C_3  and  O_6 
REMARK    3  A    between atoms: C_3  and  C_4 
REMARK    4  A    between atoms: C_7  and  O_6 
REMARK    5  A    between atoms: C_9  and  C_10 
REMARK    6  A    between atoms: N_15  and  C_14 
REMARK    7  A    between atoms: N_20  and  C_19 
REMARK       I    between atoms: C_22  and  N_20 
ROOT
ATOM      1  C   LIG d   1      -5.694  77.081 116.774  0.00  0.00     0.161 C 
ATOM      2  C   LIG d   1      -7.043  76.770 117.017  0.00  0.00     0.016 C 
ATOM      3  C   LIG d   1      -7.927  77.629 117.710  0.00  0.00     0.038 C 
ATOM      4  C   LIG d   1      -7.558  78.932 118.077  0.00  0.00     0.028 C 
ATOM      5  C   LIG d   1      -6.059  79.098 118.300  0.00  0.00    -0.047 C 
ATOM      6  C   LIG d   1      -5.304  78.544 117.070  0.00  0.00     0.091 C 
ENDROOT
BRANCH   1   7
ATOM      7  O   LIG d   1      -5.350  76.734 115.418  0.00  0.00    -0.368 OA
BRANCH   7   8
ATOM      8  C   LIG d   1      -4.304  75.745 115.260  0.00  0.00     0.119 C 
BRANCH   8   9
ATOM      9  C   LIG d   1      -4.777  74.738 114.193  0.00  0.00     0.028 C 
ATOM     10  C   LIG d   1      -5.920  75.294 113.328  0.00  0.00     0.006 C 
ENDBRANCH   8   9
BRANCH   8  11
ATOM     11  C   LIG d   1      -4.116  74.923 116.538  0.00  0.00     0.028 C 
ATOM     12  C   LIG d   1      -2.653  74.875 117.006  0.00  0.00     0.006 C 
ENDBRANCH   8  11
ENDBRANCH   7   8
ENDBRANCH   1   7
BRANCH   6  13
ATOM     13  N   LIG d   1      -3.829  78.591 117.242  0.00  0.00    -0.311 N 
ATOM     14  C   LIG d   1      -2.999  79.083 116.323  0.00  0.00     0.210 C 
ATOM     15  C   LIG d   1      -1.514  79.017 116.693  0.00  0.00     0.109 C 
ATOM     16  O   LIG d   1      -3.354  79.597 115.252  0.00  0.00    -0.276 OA
ATOM     17  H   LIG d   1      -3.457  78.223 118.095  0.00  0.00     0.149 HD
ENDBRANCH   6  13
BRANCH   5  18
ATOM     18  N   LIG d   1      -5.800  80.530 118.541  0.00  0.00     0.381 N 
ATOM     19  H   LIG d   1      -6.447  81.084 118.017  0.00  0.00    -0.090 HD
ATOM     20  H   LIG d   1      -4.870  80.749 118.228  0.00  0.00    -0.090 HD
ATOM     21  H   LIG d   1      -5.888  80.734 119.512  0.00  0.00    -0.090 HD
ENDBRANCH   5  18
BRANCH   3  22
ATOM     22  C   LIG d   1      -9.183  77.172 118.077  0.00  0.00     0.382 C 
ATOM     23  O   LIG d   1      -9.457  75.951 117.986  0.00  0.00    -0.241 OA
ATOM     24  O   LIG d   1     -10.060  77.970 118.457  0.00  0.00    -0.241 OA
ENDBRANCH   3  22
TORSDOF 7
ENDMDL
MODEL 3
REMARK VINA RESULT:      -4.5      4.857      7.796
REMARK  7 active torsions:
REMARK  status: ('A' for Active; 'I' for Inactive)
REMARK    1  A    between atoms: C_2  and  C_3 
REMARK    2  A    between atoms: C_3  and  O_6 
REMARK    3  A    between atoms: C_3  and  C_4 
REMARK    4  A    between atoms: C_7  and  O_6 
REMARK    5  A    between atoms: C_9  and  C_10 
REMARK    6  A    between atoms: N_15  and  C_14 
REMARK    7  A    between atoms: N_20  and  C_19 
REMARK       I    between atoms: C_22  and  N_20 
ROOT
ATOM      1  C   LIG d   1      -0.649  80.376 114.965  0.00  0.00     0.161 C 
ATOM      2  C   LIG d   1      -0.819  81.644 114.385  0.00  0.00     0.016 C 
ATOM      3  C   LIG d   1      -1.447  81.851 113.135  0.00  0.00     0.038 C 
ATOM      4  C   LIG d   1      -2.088  80.810 112.446  0.00  0.00     0.028 C 
ATOM      5  C   LIG d   1      -1.504  79.434 112.748  0.00  0.00    -0.047 C 
ATOM      6  C   LIG d   1      -1.440  79.241 114.281  0.00  0.00     0.091 C 
ENDROOT
BRANCH   1   7
ATOM      7  O   LIG d   1      -0.970  80.434 116.369  0.00  0.00    -0.368 OA
BRANCH   7   8
ATOM      8  C   LIG d   1      -1.891  81.478 116.770  0.00  0.00     0.119 C 
BRANCH   8   9
ATOM      9  C   LIG d   1      -1.350  82.097 118.073  0.00  0.00     0.028 C 
ATOM     10  C   LIG d   1      -0.899  83.556 117.887  0.00  0.00     0.006 C 
ENDBRANCH   8   9
BRANCH   8  11
ATOM     11  C   LIG d   1      -3.263  80.901 117.133  0.00  0.00     0.028 C 
ATOM     12  C   LIG d   1      -4.332  81.987 117.330  0.00  0.00     0.006 C 
ENDBRANCH   8  11
ENDBRANCH   7   8
ENDBRANCH   1   7
BRANCH   6  13
ATOM     13  N   LIG d   1      -0.803  77.955 114.664  0.00  0.00    -0.311 N 
ATOM     14  C   LIG d   1      -1.485  76.826 114.852  0.00  0.00     0.210 C 
ATOM     15  C   LIG d   1      -0.636  75.619 115.263  0.00  0.00     0.109 C 
ATOM     16  O   LIG d   1      -2.708  76.703 114.686  0.00  0.00    -0.276 OA
ATOM     17  H   LIG d   1       0.190  77.957 114.789  0.00  0.00     0.149 HD
ENDBRANCH   6  13
BRANCH   5  18
ATOM     18  N   LIG d   1      -2.351  78.432 112.074  0.00  0.00     0.381 N 
ATOM     19  H   LIG d   1      -2.161  78.434 111.092  0.00  0.00    -0.090 HD
ATOM     20  H   LIG d   1      -3.316  78.679 112.209  0.00  0.00    -0.090 HD
ATOM     21  H   LIG d   1      -2.176  77.528 112.453  0.00  0.00    -0.090 HD
ENDBRANCH   5  18
BRANCH   3  22
ATOM     22  C   LIG d   1      -1.404  83.104 112.543  0.00  0.00     0.382 C 
ATOM     23  O   LIG d   1      -1.455  83.209 111.294  0.00  0.00    -0.241 OA
ATOM     24  O   LIG d   1      -1.270  84.128 113.239  0.00  0.00    -0.241 OA
ENDBRANCH   3  22
TORSDOF 7
ENDMDL
MODEL 4
REMARK VINA RESULT:      -4.5      4.758      7.148
REMARK  7 active torsions:
REMARK  status: ('A' for Active; 'I' for Inactive)
REMARK    1  A    between atoms: C_2  and  C_3 
REMARK    2  A    between atoms: C_3  and  O_6 
REMARK    3  A    between atoms: C_3  and  C_4 
REMARK    4  A    between atoms: C_7  and  O_6 
REMARK    5  A    between atoms: C_9  and  C_10 
REMARK    6  A    between atoms: N_15  and  C_14 
REMARK    7  A    between atoms: N_20  and  C_19 
REMARK       I    between atoms: C_22  and  N_20 
ROOT
ATOM      1  C   LIG d   1      -0.702  79.661 115.022  0.00  0.00     0.161 C 
ATOM      2  C   LIG d   1      -0.956  80.978 114.602  0.00  0.00     0.016 C 
ATOM      3  C   LIG d   1      -1.706  81.295 113.446  0.00  0.00     0.038 C 
ATOM      4  C   LIG d   1      -2.385  80.313 112.710  0.00  0.00     0.028 C 
ATOM      5  C   LIG d   1      -1.743  78.933 112.804  0.00  0.00    -0.047 C 
ATOM      6  C   LIG d   1      -1.528  78.580 114.294  0.00  0.00     0.091 C 
ENDROOT
BRANCH   1   7
ATOM      7  O   LIG d   1      -0.888  79.559 116.447  0.00  0.00    -0.368 OA
BRANCH   7   8
ATOM      8  C   LIG d   1      -2.256  79.414 116.903  0.00  0.00     0.119 C 
BRANCH   8   9
ATOM      9  C   LIG d   1      -2.579  80.632 117.790  0.00  0.00     0.028 C 
ATOM     10  C   LIG d   1      -3.597  81.581 117.135  0.00  0.00     0.006 C 
ENDBRANCH   8   9
BRANCH   8  11
ATOM     11  C   LIG d   1      -2.412  78.194 117.816  0.00  0.00     0.028 C 
ATOM     12  C   LIG d   1      -1.076  77.496 118.112  0.00  0.00     0.006 C 
ENDBRANCH   8  11
ENDBRANCH   7   8
ENDBRANCH   1   7
BRANCH   6  13
ATOM     13  N   LIG d   1      -0.828  77.282 114.474  0.00  0.00    -0.311 N 
ATOM     14  C   LIG d   1      -1.462  76.119 114.611  0.00  0.00     0.210 C 
ATOM     15  C   LIG d   1      -0.550  74.903 114.805  0.00  0.00     0.109 C 
ATOM     16  O   LIG d   1      -2.693  75.974 114.559  0.00  0.00    -0.276 OA
ATOM     17  H   LIG d   1       0.173  77.303 114.497  0.00  0.00     0.149 HD
ENDBRANCH   6  13
BRANCH   5  18
ATOM     18  N   LIG d   1      -2.627  77.981 112.106  0.00  0.00     0.381 N 
ATOM     19  H   LIG d   1      -2.207  77.073 112.096  0.00  0.00    -0.090 HD
ATOM     20  H   LIG d   1      -2.746  78.284 111.156  0.00  0.00    -0.090 HD
ATOM     21  H   LIG d   1      -3.512  77.940 112.562  0.00  0.00    -0.090 HD
ENDBRANCH   5  18
BRANCH   3  22
ATOM     22  C   LIG d   1      -1.748  82.605 112.993  0.00  0.00     0.382 C 
ATOM     23  O   LIG d   1      -1.710  82.844 111.761  0.00  0.00    -0.241 OA
ATOM     24  O   LIG d   1      -1.780  83.552 113.801  0.00  0.00    -0.241 OA
ENDBRANCH   3  22
TORSDOF 7
ENDMDL
MODEL 5
REMARK VINA RESULT:      -4.5      3.727      7.571
REMARK  7 active torsions:
REMARK  status: ('A' for Active; 'I' for Inactive)
REMARK    1  A    between atoms: C_2  and  C_3 
REMARK    2  A    between atoms: C_3  and  O_6 
REMARK    3  A    between atoms: C_3  and  C_4 
REMARK    4  A    between atoms: C_7  and  O_6 
REMARK    5  A    between atoms: C_9  and  C_10 
REMARK    6  A    between atoms: N_15  and  C_14 
REMARK    7  A    between atoms: N_20  and  C_19 
REMARK       I    between atoms: C_22  and  N_20 
ROOT
ATOM      1  C   LIG d   1      -2.410  80.721 115.242  0.00  0.00     0.161 C 
ATOM      2  C   LIG d   1      -2.081  81.838 114.456  0.00  0.00     0.016 C 
ATOM      3  C   LIG d   1      -1.643  81.743 113.115  0.00  0.00     0.038 C 
ATOM      4  C   LIG d   1      -1.648  80.526 112.417  0.00  0.00     0.028 C 
ATOM      5  C   LIG d   1      -1.490  79.309 113.321  0.00  0.00    -0.047 C 
ATOM      6  C   LIG d   1      -2.528  79.394 114.464  0.00  0.00     0.091 C 
ENDROOT
BRANCH   1   7
ATOM      7  O   LIG d   1      -3.622  80.981 115.977  0.00  0.00    -0.368 OA
BRANCH   7   8
ATOM      8  C   LIG d   1      -3.549  82.027 116.977  0.00  0.00     0.119 C 
BRANCH   8   9
ATOM      9  C   LIG d   1      -2.427  81.647 117.963  0.00  0.00     0.028 C 
ATOM     10  C   LIG d   1      -1.816  82.876 118.657  0.00  0.00     0.006 C 
ENDBRANCH   8   9
BRANCH   8  11
ATOM     11  C   LIG d   1      -4.827  82.082 117.820  0.00  0.00     0.028 C 
ATOM     12  C   LIG d   1      -5.591  80.748 117.832  0.00  0.00     0.006 C 
ENDBRANCH   8  11
ENDBRANCH   7   8
ENDBRANCH   1   7
BRANCH   6  13
ATOM     13  N   LIG d   1      -2.387  78.284 115.442  0.00  0.00    -0.311 N 
ATOM     14  C   LIG d   1      -3.067  77.142 115.358  0.00  0.00     0.210 C 
ATOM     15  C   LIG d   1      -2.787  76.139 116.482  0.00  0.00     0.109 C 
ATOM     16  O   LIG d   1      -3.851  76.851 114.443  0.00  0.00    -0.276 OA
ATOM     17  H   LIG d   1      -1.748  78.423 116.200  0.00  0.00     0.149 HD
ENDBRANCH   6  13
BRANCH   5  18
ATOM     18  N   LIG d   1      -1.652  78.106 112.482  0.00  0.00     0.381 N 
ATOM     19  H   LIG d   1      -0.945  78.090 111.774  0.00  0.00    -0.090 HD
ATOM     20  H   LIG d   1      -2.549  78.142 112.032  0.00  0.00    -0.090 HD
ATOM     21  H   LIG d   1      -1.587  77.287 113.045  0.00  0.00    -0.090 HD
ENDBRANCH   5  18
BRANCH   3  22
ATOM     22  C   LIG d   1      -1.154  82.870 112.471  0.00  0.00     0.382 C 
ATOM     23  O   LIG d   1      -0.383  83.653 113.075  0.00  0.00    -0.241 OA
ATOM     24  O   LIG d   1      -1.510  83.136 111.307  0.00  0.00    -0.241 OA
ENDBRANCH   3  22
TORSDOF 7
ENDMDL
MODEL 6
REMARK VINA RESULT:      -4.4      4.679      7.469
REMARK  7 active torsions:
REMARK  status: ('A' for Active; 'I' for Inactive)
REMARK    1  A    between atoms: C_2  and  C_3 
REMARK    2  A    between atoms: C_3  and  O_6 
REMARK    3  A    between atoms: C_3  and  C_4 
REMARK    4  A    between atoms: C_7  and  O_6 
REMARK    5  A    between atoms: C_9  and  C_10 
REMARK    6  A    between atoms: N_15  and  C_14 
REMARK    7  A    between atoms: N_20  and  C_19 
REMARK       I    between atoms: C_22  and  N_20 
ROOT
ATOM      1  C   LIG d   1      -2.297  80.595 114.435  0.00  0.00     0.161 C 
ATOM      2  C   LIG d   1      -2.624  79.295 114.855  0.00  0.00     0.016 C 
ATOM      3  C   LIG d   1      -2.450  78.149 114.046  0.00  0.00     0.038 C 
ATOM      4  C   LIG d   1      -1.791  78.208 112.809  0.00  0.00     0.028 C 
ATOM      5  C   LIG d   1      -1.899  79.569 112.129  0.00  0.00    -0.047 C 
ATOM      6  C   LIG d   1      -1.474  80.666 113.132  0.00  0.00     0.091 C 
ENDROOT
BRANCH   1   7
ATOM      7  O   LIG d   1      -1.616  81.295 115.496  0.00  0.00    -0.368 OA
BRANCH   7   8
ATOM      8  C   LIG d   1      -2.449  82.100 116.365  0.00  0.00     0.119 C 
BRANCH   8   9
ATOM      9  C   LIG d   1      -2.490  83.524 115.777  0.00  0.00     0.028 C 
ATOM     10  C   LIG d   1      -1.161  84.275 115.963  0.00  0.00     0.006 C 
ENDBRANCH   8   9
BRANCH   8  11
ATOM     11  C   LIG d   1      -1.821  82.253 117.754  0.00  0.00     0.028 C 
ATOM     12  C   LIG d   1      -2.869  82.416 118.866  0.00  0.00     0.006 C 
ENDBRANCH   8  11
ENDBRANCH   7   8
ENDBRANCH   1   7
BRANCH   6  13
ATOM     13  N   LIG d   1      -1.631  82.035 112.574  0.00  0.00    -0.311 N 
ATOM     14  C   LIG d   1      -0.668  82.669 111.907  0.00  0.00     0.210 C 
ATOM     15  C   LIG d   1      -1.031  84.081 111.435  0.00  0.00     0.109 C 
ATOM     16  O   LIG d   1       0.440  82.184 111.633  0.00  0.00    -0.276 OA
ATOM     17  H   LIG d   1      -2.510  82.490 112.724  0.00  0.00     0.149 HD
ENDBRANCH   6  13
BRANCH   5  18
ATOM     18  N   LIG d   1      -1.055  79.532 110.920  0.00  0.00     0.381 N 
ATOM     19  H   LIG d   1      -0.635  80.428 110.772  0.00  0.00    -0.090 HD
ATOM     20  H   LIG d   1      -1.633  79.319 110.126  0.00  0.00    -0.090 HD
ATOM     21  H   LIG d   1      -0.347  78.837 111.020  0.00  0.00    -0.090 HD
ENDBRANCH   5  18
BRANCH   3  22
ATOM     22  C   LIG d   1      -2.974  76.932 114.456  0.00  0.00     0.382 C 
ATOM     23  O   LIG d   1      -2.265  75.898 114.411  0.00  0.00    -0.241 OA
ATOM     24  O   LIG d   1      -4.159  76.848 114.828  0.00  0.00    -0.241 OA
ENDBRANCH   3  22
TORSDOF 7
ENDMDL
MODEL 7
REMARK VINA RESULT:      -4.2      3.586      6.401
REMARK  7 active torsions:
REMARK  status: ('A' for Active; 'I' for Inactive)
REMARK    1  A    between atoms: C_2  and  C_3 
REMARK    2  A    between atoms: C_3  and  O_6 
REMARK    3  A    between atoms: C_3  and  C_4 
REMARK    4  A    between atoms: C_7  and  O_6 
REMARK    5  A    between atoms: C_9  and  C_10 
REMARK    6  A    between atoms: N_15  and  C_14 
REMARK    7  A    between atoms: N_20  and  C_19 
REMARK       I    between atoms: C_22  and  N_20 
ROOT
ATOM      1  C   LIG d   1      -2.422  79.887 115.670  0.00  0.00     0.161 C 
ATOM      2  C   LIG d   1      -2.703  81.256 115.812  0.00  0.00     0.016 C 
ATOM      3  C   LIG d   1      -2.006  82.270 115.115  0.00  0.00     0.038 C 
ATOM      4  C   LIG d   1      -1.076  81.972 114.108  0.00  0.00     0.028 C 
ATOM      5  C   LIG d   1      -0.400  80.617 114.290  0.00  0.00    -0.047 C 
ATOM      6  C   LIG d   1      -1.486  79.537 114.494  0.00  0.00     0.091 C 
ENDROOT
BRANCH   1   7
ATOM      7  O   LIG d   1      -3.653  79.143 115.570  0.00  0.00    -0.368 OA
BRANCH   7   8
ATOM      8  C   LIG d   1      -4.032  78.378 116.740  0.00  0.00     0.119 C 
BRANCH   8   9
ATOM      9  C   LIG d   1      -4.431  76.968 116.262  0.00  0.00     0.028 C 
ATOM     10  C   LIG d   1      -3.986  75.869 117.241  0.00  0.00     0.006 C 
ENDBRANCH   8   9
BRANCH   8  11
ATOM     11  C   LIG d   1      -5.290  78.954 117.398  0.00  0.00     0.028 C 
ATOM     12  C   LIG d   1      -5.057  79.381 118.856  0.00  0.00     0.006 C 
ENDBRANCH   8  11
ENDBRANCH   7   8
ENDBRANCH   1   7
BRANCH   6  13
ATOM     13  N   LIG d   1      -0.908  78.195 114.763  0.00  0.00    -0.311 N 
ATOM     14  C   LIG d   1      -1.361  77.075 114.201  0.00  0.00     0.210 C 
ATOM     15  C   LIG d   1      -0.635  75.797 114.632  0.00  0.00     0.109 C 
ATOM     16  O   LIG d   1      -2.273  77.024 113.363  0.00  0.00    -0.276 OA
ATOM     17  H   LIG d   1      -0.144  78.148 115.408  0.00  0.00     0.149 HD
ENDBRANCH   6  13
BRANCH   5  18
ATOM     18  N   LIG d   1       0.440  80.375 113.101  0.00  0.00     0.381 N 
ATOM     19  H   LIG d   1      -0.021  79.735 112.486  0.00  0.00    -0.090 HD
ATOM     20  H   LIG d   1       1.307  79.962 113.395  0.00  0.00    -0.090 HD
ATOM     21  H   LIG d   1       0.616  81.234 112.628  0.00  0.00    -0.090 HD
ENDBRANCH   5  18
BRANCH   3  22
ATOM     22  C   LIG d   1      -2.209  83.599 115.452  0.00  0.00     0.382 C 
ATOM     23  O   LIG d   1      -3.210  84.213 115.008  0.00  0.00    -0.241 OA
ATOM     24  O   LIG d   1      -1.381  84.206 116.158  0.00  0.00    -0.241 OA
ENDBRANCH   3  22
TORSDOF 7
ENDMDL
MODEL 8
REMARK VINA RESULT:      -4.2      4.394      7.489
REMARK  7 active torsions:
REMARK  status: ('A' for Active; 'I' for Inactive)
REMARK    1  A    between atoms: C_2  and  C_3 
REMARK    2  A    between atoms: C_3  and  O_6 
REMARK    3  A    between atoms: C_3  and  C_4 
REMARK    4  A    between atoms: C_7  and  O_6 
REMARK    5  A    between atoms: C_9  and  C_10 
REMARK    6  A    between atoms: N_15  and  C_14 
REMARK    7  A    between atoms: N_20  and  C_19 
REMARK       I    between atoms: C_22  and  N_20 
ROOT
ATOM      1  C   LIG d   1      -2.916  81.536 114.209  0.00  0.00     0.161 C 
ATOM      2  C   LIG d   1      -2.229  81.788 113.011  0.00  0.00     0.016 C 
ATOM      3  C   LIG d   1      -1.220  82.771 112.884  0.00  0.00     0.038 C 
ATOM      4  C   LIG d   1      -0.721  83.468 113.995  0.00  0.00     0.028 C 
ATOM      5  C   LIG d   1      -1.732  83.605 115.128  0.00  0.00    -0.047 C 
ATOM      6  C   LIG d   1      -2.309  82.209 115.458  0.00  0.00     0.091 C 
ENDROOT
BRANCH   1   7
ATOM      7  O   LIG d   1      -3.034  80.114 114.415  0.00  0.00    -0.368 OA
BRANCH   7   8
ATOM      8  C   LIG d   1      -1.867  79.450 114.959  0.00  0.00     0.119 C 
BRANCH   8   9
ATOM      9  C   LIG d   1      -1.466  78.337 113.971  0.00  0.00     0.028 C 
ATOM     10  C   LIG d   1      -2.550  78.071 112.914  0.00  0.00     0.006 C 
ENDBRANCH   8   9
BRANCH   8  11
ATOM     11  C   LIG d   1      -2.196  78.730 116.270  0.00  0.00     0.028 C 
ATOM     12  C   LIG d   1      -3.708  78.604 116.517  0.00  0.00     0.006 C 
ENDBRANCH   8  11
ENDBRANCH   7   8
ENDBRANCH   1   7
BRANCH   6  13
ATOM     13  N   LIG d   1      -3.368  82.265 116.499  0.00  0.00    -0.311 N 
ATOM     14  C   LIG d   1      -3.133  82.068 117.795  0.00  0.00     0.210 C 
ATOM     15  C   LIG d   1      -4.369  82.150 118.696  0.00  0.00     0.109 C 
ATOM     16  O   LIG d   1      -2.013  81.866 118.288  0.00  0.00    -0.276 OA
ATOM     17  H   LIG d   1      -4.302  82.455 116.190  0.00  0.00     0.149 HD
ENDBRANCH   6  13
BRANCH   5  18
ATOM     18  N   LIG d   1      -1.039  84.229 116.271  0.00  0.00     0.381 N 
ATOM     19  H   LIG d   1      -1.684  84.369 117.023  0.00  0.00    -0.090 HD
ATOM     20  H   LIG d   1      -0.686  85.126 115.987  0.00  0.00    -0.090 HD
ATOM     21  H   LIG d   1      -0.288  83.648 116.572  0.00  0.00    -0.090 HD
ENDBRANCH   5  18
BRANCH   3  22
ATOM     22  C   LIG d   1      -0.727  83.092 111.629  0.00  0.00     0.382 C 
ATOM     23  O   LIG d   1       0.440  82.758 111.310  0.00  0.00    -0.241 OA
ATOM     24  O   LIG d   1      -1.417  83.750 110.828  0.00  0.00    -0.241 OA
ENDBRANCH   3  22
TORSDOF 7
ENDMDL
MODEL 9
REMARK VINA RESULT:      -4.1      3.344      5.175
REMARK  7 active torsions:
REMARK  status: ('A' for Active; 'I' for Inactive)
REMARK    1  A    between atoms: C_2  and  C_3 
REMARK    2  A    between atoms: C_3  and  O_6 
REMARK    3  A    between atoms: C_3  and  C_4 
REMARK    4  A    between atoms: C_7  and  O_6 
REMARK    5  A    between atoms: C_9  and  C_10 
REMARK    6  A    between atoms: N_15  and  C_14 
REMARK    7  A    between atoms: N_20  and  C_19 
REMARK       I    between atoms: C_22  and  N_20 
ROOT
ATOM      1  C   LIG d   1      -2.619  76.329 115.218  0.00  0.00     0.161 C 
ATOM      2  C   LIG d   1      -2.571  75.557 116.391  0.00  0.00     0.016 C 
ATOM      3  C   LIG d   1      -1.719  75.850 117.480  0.00  0.00     0.038 C 
ATOM      4  C   LIG d   1      -0.961  77.029 117.533  0.00  0.00     0.028 C 
ATOM      5  C   LIG d   1      -0.597  77.577 116.157  0.00  0.00    -0.047 C 
ATOM      6  C   LIG d   1      -1.881  77.682 115.303  0.00  0.00     0.091 C 
ENDROOT
BRANCH   1   7
ATOM      7  O   LIG d   1      -3.991  76.531 114.822  0.00  0.00    -0.368 OA
BRANCH   7   8
ATOM      8  C   LIG d   1      -4.926  75.498 115.216  0.00  0.00     0.119 C 
BRANCH   8   9
ATOM      9  C   LIG d   1      -5.281  74.688 113.953  0.00  0.00     0.028 C 
ATOM     10  C   LIG d   1      -5.769  75.583 112.801  0.00  0.00     0.006 C 
ENDBRANCH   8   9
BRANCH   8  11
ATOM     11  C   LIG d   1      -6.250  76.099 115.698  0.00  0.00     0.028 C 
ATOM     12  C   LIG d   1      -6.837  75.355 116.908  0.00  0.00     0.006 C 
ENDBRANCH   8  11
ENDBRANCH   7   8
ENDBRANCH   1   7
BRANCH   6  13
ATOM     13  N   LIG d   1      -1.603  78.130 113.914  0.00  0.00    -0.311 N 
ATOM     14  C   LIG d   1      -2.191  79.186 113.353  0.00  0.00     0.210 C 
ATOM     15  C   LIG d   1      -1.776  79.463 111.904  0.00  0.00     0.109 C 
ATOM     16  O   LIG d   1      -2.992  79.938 113.928  0.00  0.00    -0.276 OA
ATOM     17  H   LIG d   1      -0.942  77.595 113.385  0.00  0.00     0.149 HD
ENDBRANCH   6  13
BRANCH   5  18
ATOM     18  N   LIG d   1       0.071  78.877 116.357  0.00  0.00     0.381 N 
ATOM     19  H   LIG d   1       0.824  78.975 115.705  0.00  0.00    -0.090 HD
ATOM     20  H   LIG d   1       0.453  78.906 117.286  0.00  0.00    -0.090 HD
ATOM     21  H   LIG d   1      -0.582  79.619 116.236  0.00  0.00    -0.090 HD
ENDBRANCH   5  18
BRANCH   3  22
ATOM     22  C   LIG d   1      -1.588  74.936 118.515  0.00  0.00     0.382 C 
ATOM     23  O   LIG d   1      -2.447  74.898 119.429  0.00  0.00    -0.241 OA
ATOM     24  O   LIG d   1      -0.600  74.180 118.570  0.00  0.00    -0.241 OA
ENDBRANCH   3  22
TORSDOF 7
ENDMDL
