MODEL 1
REMARK VINA RESULT:      -5.3      0.000      0.000
REMARK  7 active torsions:
REMARK  status: ('A' for Active; 'I' for Inactive)
REMARK    1  A    between atoms: C_2  and  C_3 
REMARK    2  A    between atoms: C_3  and  O_6 
REMARK    3  A    between atoms: C_3  and  C_4 
REMARK    4  A    between atoms: C_7  and  O_6 
REMARK    5  A    between atoms: C_9  and  C_10 
REMARK    6  A    between atoms: N_15  and  C_14 
REMARK    7  A    between atoms: N_20  and  C_19 
REMARK       I    between atoms: C_22  and  N_20 
ROOT
ATOM      1  C   LIG d   1      -2.968  78.594 115.371  0.00  0.00     0.161 C 
ATOM      2  C   LIG d   1      -3.261  79.789 114.693  0.00  0.00     0.016 C 
ATOM      3  C   LIG d   1      -2.950  80.008 113.331  0.00  0.00     0.038 C 
ATOM      4  C   LIG d   1      -2.458  78.984 112.509  0.00  0.00     0.028 C 
ATOM      5  C   LIG d   1      -1.678  77.917 113.271  0.00  0.00    -0.047 C 
ATOM      6  C   LIG d   1      -2.533  77.426 114.462  0.00  0.00     0.091 C 
ENDROOT
BRANCH   1   7
ATOM      7  O   LIG d   1      -4.093  78.205 116.183  0.00  0.00    -0.368 OA
BRANCH   7   8
ATOM      8  C   LIG d   1      -4.188  78.834 117.485  0.00  0.00     0.119 C 
BRANCH   8   9
ATOM      9  C   LIG d   1      -4.186  77.713 118.542  0.00  0.00     0.028 C 
ATOM     10  C   LIG d   1      -5.007  76.489 118.101  0.00  0.00     0.006 C 
ENDBRANCH   8   9
BRANCH   8  11
ATOM     11  C   LIG d   1      -5.528  79.554 117.659  0.00  0.00     0.028 C 
ATOM     12  C   LIG d   1      -5.385  81.084 117.681  0.00  0.00     0.006 C 
ENDBRANCH   8  11
ENDBRANCH   7   8
ENDBRANCH   1   7
BRANCH   6  13
ATOM     13  N   LIG d   1      -1.811  76.441 115.309  0.00  0.00    -0.311 N 
ATOM     14  C   LIG d   1      -2.338  75.280 115.696  0.00  0.00     0.210 C 
ATOM     15  C   LIG d   1      -1.431  74.422 116.583  0.00  0.00     0.109 C 
ATOM     16  O   LIG d   1      -3.458  74.866 115.361  0.00  0.00    -0.276 OA
ATOM     17  H   LIG d   1      -0.884  76.683 115.601  0.00  0.00     0.149 HD
ENDBRANCH   6  13
BRANCH   5  18
ATOM     18  N   LIG d   1      -1.343  76.843 112.317  0.00  0.00     0.381 N 
ATOM     19  H   LIG d   1      -1.845  76.980 111.463  0.00  0.00    -0.090 HD
ATOM     20  H   LIG d   1      -1.623  75.961 112.709  0.00  0.00    -0.090 HD
ATOM     21  H   LIG d   1      -0.363  76.839 112.138  0.00  0.00    -0.090 HD
ENDBRANCH   5  18
BRANCH   3  22
ATOM     22  C   LIG d   1      -3.094  81.276 112.789  0.00  0.00     0.382 C 
ATOM     23  O   LIG d   1      -2.173  81.769 112.094  0.00  0.00    -0.241 OA
ATOM     24  O   LIG d   1      -4.114  81.951 113.023  0.00  0.00    -0.241 OA
ENDBRANCH   3  22
TORSDOF 7
ENDMDL
MODEL 2
REMARK VINA RESULT:      -5.2      0.852      1.606
REMARK  7 active torsions:
REMARK  status: ('A' for Active; 'I' for Inactive)
REMARK    1  A    between atoms: C_2  and  C_3 
REMARK    2  A    between atoms: C_3  and  O_6 
REMARK    3  A    between atoms: C_3  and  C_4 
REMARK    4  A    between atoms: C_7  and  O_6 
REMARK    5  A    between atoms: C_9  and  C_10 
REMARK    6  A    between atoms: N_15  and  C_14 
REMARK    7  A    between atoms: N_20  and  C_19 
REMARK       I    between atoms: C_22  and  N_20 
ROOT
ATOM      1  C   LIG d   1      -3.120  78.694 115.591  0.00  0.00     0.161 C 
ATOM      2  C   LIG d   1      -3.316  79.859 114.832  0.00  0.00     0.016 C 
ATOM      3  C   LIG d   1      -2.892  79.993 113.489  0.00  0.00     0.038 C 
ATOM      4  C   LIG d   1      -2.374  78.911 112.764  0.00  0.00     0.028 C 
ATOM      5  C   LIG d   1      -1.694  77.864 113.640  0.00  0.00    -0.047 C 
ATOM      6  C   LIG d   1      -2.656  77.465 114.782  0.00  0.00     0.091 C 
ENDROOT
BRANCH   1   7
ATOM      7  O   LIG d   1      -4.318  78.385 116.330  0.00  0.00    -0.368 OA
BRANCH   7   8
ATOM      8  C   LIG d   1      -4.827  79.435 117.189  0.00  0.00     0.119 C 
BRANCH   8   9
ATOM      9  C   LIG d   1      -3.911  79.505 118.426  0.00  0.00     0.028 C 
ATOM     10  C   LIG d   1      -3.534  80.950 118.796  0.00  0.00     0.006 C 
ENDBRANCH   8   9
BRANCH   8  11
ATOM     11  C   LIG d   1      -6.216  79.088 117.732  0.00  0.00     0.028 C 
ATOM     12  C   LIG d   1      -6.686  77.686 117.312  0.00  0.00     0.006 C 
ENDBRANCH   8  11
ENDBRANCH   7   8
ENDBRANCH   1   7
BRANCH   6  13
ATOM     13  N   LIG d   1      -2.038  76.506 115.735  0.00  0.00    -0.311 N 
ATOM     14  C   LIG d   1      -2.519  75.285 115.962  0.00  0.00     0.210 C 
ATOM     15  C   LIG d   1      -1.741  74.466 116.998  0.00  0.00     0.109 C 
ATOM     16  O   LIG d   1      -3.496  74.790 115.380  0.00  0.00    -0.276 OA
ATOM     17  H   LIG d   1      -1.223  76.814 116.228  0.00  0.00     0.149 HD
ENDBRANCH   6  13
BRANCH   5  18
ATOM     18  N   LIG d   1      -1.324  76.729 112.773  0.00  0.00     0.381 N 
ATOM     19  H   LIG d   1      -1.374  75.876 113.293  0.00  0.00    -0.090 HD
ATOM     20  H   LIG d   1      -0.377  76.854 112.462  0.00  0.00    -0.090 HD
ATOM     21  H   LIG d   1      -1.936  76.686 111.988  0.00  0.00    -0.090 HD
ENDBRANCH   5  18
BRANCH   3  22
ATOM     22  C   LIG d   1      -2.948  81.234 112.872  0.00  0.00     0.382 C 
ATOM     23  O   LIG d   1      -3.995  81.922 112.943  0.00  0.00    -0.241 OA
ATOM     24  O   LIG d   1      -1.981  81.653 112.208  0.00  0.00    -0.241 OA
ENDBRANCH   3  22
TORSDOF 7
ENDMDL
MODEL 3
REMARK VINA RESULT:      -5.1      1.075      1.906
REMARK  7 active torsions:
REMARK  status: ('A' for Active; 'I' for Inactive)
REMARK    1  A    between atoms: C_2  and  C_3 
REMARK    2  A    between atoms: C_3  and  O_6 
REMARK    3  A    between atoms: C_3  and  C_4 
REMARK    4  A    between atoms: C_7  and  O_6 
REMARK    5  A    between atoms: C_9  and  C_10 
REMARK    6  A    between atoms: N_15  and  C_14 
REMARK    7  A    between atoms: N_20  and  C_19 
REMARK       I    between atoms: C_22  and  N_20 
ROOT
ATOM      1  C   LIG d   1      -2.689  78.619 115.358  0.00  0.00     0.161 C 
ATOM      2  C   LIG d   1      -3.047  79.819 114.722  0.00  0.00     0.016 C 
ATOM      3  C   LIG d   1      -2.884  80.043 113.335  0.00  0.00     0.038 C 
ATOM      4  C   LIG d   1      -2.489  79.020 112.460  0.00  0.00     0.028 C 
ATOM      5  C   LIG d   1      -1.637  77.946 113.129  0.00  0.00    -0.047 C 
ATOM      6  C   LIG d   1      -2.360  77.453 114.403  0.00  0.00     0.091 C 
ENDROOT
BRANCH   1   7
ATOM      7  O   LIG d   1      -3.722  78.231 116.286  0.00  0.00    -0.368 OA
BRANCH   7   8
ATOM      8  C   LIG d   1      -3.412  78.398 117.691  0.00  0.00     0.119 C 
BRANCH   8   9
ATOM      9  C   LIG d   1      -4.126  79.676 118.173  0.00  0.00     0.028 C 
ATOM     10  C   LIG d   1      -3.138  80.767 118.620  0.00  0.00     0.006 C 
ENDBRANCH   8   9
BRANCH   8  11
ATOM     11  C   LIG d   1      -1.919  78.663 117.905  0.00  0.00     0.028 C 
ATOM     12  C   LIG d   1      -1.214  77.521 118.655  0.00  0.00     0.006 C 
ENDBRANCH   8  11
ENDBRANCH   7   8
ENDBRANCH   1   7
BRANCH   6  13
ATOM     13  N   LIG d   1      -1.556  76.461 115.164  0.00  0.00    -0.311 N 
ATOM     14  C   LIG d   1      -2.061  75.334 115.661  0.00  0.00     0.210 C 
ATOM     15  C   LIG d   1      -1.063  74.462 116.429  0.00  0.00     0.109 C 
ATOM     16  O   LIG d   1      -3.233  74.958 115.511  0.00  0.00    -0.276 OA
ATOM     17  H   LIG d   1      -0.587  76.672 115.305  0.00  0.00     0.149 HD
ENDBRANCH   6  13
BRANCH   5  18
ATOM     18  N   LIG d   1      -1.412  76.875 112.140  0.00  0.00     0.381 N 
ATOM     19  H   LIG d   1      -0.652  76.295 112.436  0.00  0.00    -0.090 HD
ATOM     20  H   LIG d   1      -1.166  77.292 111.260  0.00  0.00    -0.090 HD
ATOM     21  H   LIG d   1      -2.238  76.327 112.038  0.00  0.00    -0.090 HD
ENDBRANCH   5  18
BRANCH   3  22
ATOM     22  C   LIG d   1      -3.079  81.314 112.817  0.00  0.00     0.382 C 
ATOM     23  O   LIG d   1      -2.211  81.826 112.070  0.00  0.00    -0.241 OA
ATOM     24  O   LIG d   1      -4.092  81.972 113.122  0.00  0.00    -0.241 OA
ENDBRANCH   3  22
TORSDOF 7
ENDMDL
MODEL 4
REMARK VINA RESULT:      -4.8      3.655      6.054
REMARK  7 active torsions:
REMARK  status: ('A' for Active; 'I' for Inactive)
REMARK    1  A    between atoms: C_2  and  C_3 
REMARK    2  A    between atoms: C_3  and  O_6 
REMARK    3  A    between atoms: C_3  and  C_4 
REMARK    4  A    between atoms: C_7  and  O_6 
REMARK    5  A    between atoms: C_9  and  C_10 
REMARK    6  A    between atoms: N_15  and  C_14 
REMARK    7  A    between atoms: N_20  and  C_19 
REMARK       I    between atoms: C_22  and  N_20 
ROOT
ATOM      1  C   LIG d   1      -6.878  77.281 117.689  0.00  0.00     0.161 C 
ATOM      2  C   LIG d   1      -7.992  77.979 118.183  0.00  0.00     0.016 C 
ATOM      3  C   LIG d   1      -8.016  79.381 118.362  0.00  0.00     0.038 C 
ATOM      4  C   LIG d   1      -6.971  80.203 117.913  0.00  0.00     0.028 C 
ATOM      5  C   LIG d   1      -5.620  79.497 117.871  0.00  0.00    -0.047 C 
ATOM      6  C   LIG d   1      -5.770  78.172 117.090  0.00  0.00     0.091 C 
ENDROOT
BRANCH   1   7
ATOM      7  O   LIG d   1      -7.305  76.297 116.726  0.00  0.00    -0.368 OA
BRANCH   7   8
ATOM      8  C   LIG d   1      -7.096  74.912 117.094  0.00  0.00     0.119 C 
BRANCH   8   9
ATOM      9  C   LIG d   1      -6.423  74.211 115.898  0.00  0.00     0.028 C 
ATOM     10  C   LIG d   1      -6.342  75.117 114.657  0.00  0.00     0.006 C 
ENDBRANCH   8   9
BRANCH   8  11
ATOM     11  C   LIG d   1      -8.427  74.182 117.294  0.00  0.00     0.028 C 
ATOM     12  C   LIG d   1      -9.621  74.945 116.699  0.00  0.00     0.006 C 
ENDBRANCH   8  11
ENDBRANCH   7   8
ENDBRANCH   1   7
BRANCH   6  13
ATOM     13  N   LIG d   1      -4.513  77.379 117.074  0.00  0.00    -0.311 N 
ATOM     14  C   LIG d   1      -3.638  77.412 116.070  0.00  0.00     0.210 C 
ATOM     15  C   LIG d   1      -2.419  76.501 116.246  0.00  0.00     0.109 C 
ATOM     16  O   LIG d   1      -3.740  78.133 115.067  0.00  0.00    -0.276 OA
ATOM     17  H   LIG d   1      -4.336  76.789 117.864  0.00  0.00     0.149 HD
ENDBRANCH   6  13
BRANCH   5  18
ATOM     18  N   LIG d   1      -4.652  80.425 117.257  0.00  0.00     0.381 N 
ATOM     19  H   LIG d   1      -4.193  80.957 117.969  0.00  0.00    -0.090 HD
ATOM     20  H   LIG d   1      -5.147  81.062 116.657  0.00  0.00    -0.090 HD
ATOM     21  H   LIG d   1      -3.979  79.915 116.728  0.00  0.00    -0.090 HD
ENDBRANCH   5  18
BRANCH   3  22
ATOM     22  C   LIG d   1      -9.076  79.971 119.032  0.00  0.00     0.382 C 
ATOM     23  O   LIG d   1      -9.039  81.193 119.313  0.00  0.00    -0.241 OA
ATOM     24  O   LIG d   1     -10.050  79.286 119.399  0.00  0.00    -0.241 OA
ENDBRANCH   3  22
TORSDOF 7
ENDMDL
MODEL 5
REMARK VINA RESULT:      -4.8      2.791      5.295
REMARK  7 active torsions:
REMARK  status: ('A' for Active; 'I' for Inactive)
REMARK    1  A    between atoms: C_2  and  C_3 
REMARK    2  A    between atoms: C_3  and  O_6 
REMARK    3  A    between atoms: C_3  and  C_4 
REMARK    4  A    between atoms: C_7  and  O_6 
REMARK    5  A    between atoms: C_9  and  C_10 
REMARK    6  A    between atoms: N_15  and  C_14 
REMARK    7  A    between atoms: N_20  and  C_19 
REMARK       I    between atoms: C_22  and  N_20 
ROOT
ATOM      1  C   LIG d   1      -2.367  79.721 114.484  0.00  0.00     0.161 C 
ATOM      2  C   LIG d   1      -2.907  78.502 114.926  0.00  0.00     0.016 C 
ATOM      3  C   LIG d   1      -3.073  77.375 114.088  0.00  0.00     0.038 C 
ATOM      4  C   LIG d   1      -2.568  77.344 112.780  0.00  0.00     0.028 C 
ATOM      5  C   LIG d   1      -2.470  78.722 112.135  0.00  0.00    -0.047 C 
ATOM      6  C   LIG d   1      -1.709  79.670 113.090  0.00  0.00     0.091 C 
ENDROOT
BRANCH   1   7
ATOM      7  O   LIG d   1      -1.434  80.225 115.460  0.00  0.00    -0.368 OA
BRANCH   7   8
ATOM      8  C   LIG d   1      -1.337  79.475 116.696  0.00  0.00     0.119 C 
BRANCH   8   9
ATOM      9  C   LIG d   1      -1.582  80.460 117.856  0.00  0.00     0.028 C 
ATOM     10  C   LIG d   1      -0.385  81.394 118.096  0.00  0.00     0.006 C 
ENDBRANCH   8   9
BRANCH   8  11
ATOM     11  C   LIG d   1       0.081  78.939 116.912  0.00  0.00     0.028 C 
ATOM     12  C   LIG d   1       0.161  77.408 116.809  0.00  0.00     0.006 C 
ENDBRANCH   8  11
ENDBRANCH   7   8
ENDBRANCH   1   7
BRANCH   6  13
ATOM     13  N   LIG d   1      -1.642  81.062 112.572  0.00  0.00    -0.311 N 
ATOM     14  C   LIG d   1      -0.583  81.556 111.934  0.00  0.00     0.210 C 
ATOM     15  C   LIG d   1      -0.713  83.020 111.502  0.00  0.00     0.109 C 
ATOM     16  O   LIG d   1       0.440  80.911 111.656  0.00  0.00    -0.276 OA
ATOM     17  H   LIG d   1      -2.441  81.645 112.727  0.00  0.00     0.149 HD
ENDBRANCH   6  13
BRANCH   5  18
ATOM     18  N   LIG d   1      -1.802  78.557 110.830  0.00  0.00     0.381 N 
ATOM     19  H   LIG d   1      -0.989  79.139 110.790  0.00  0.00    -0.090 HD
ATOM     20  H   LIG d   1      -2.433  78.847 110.103  0.00  0.00    -0.090 HD
ATOM     21  H   LIG d   1      -1.545  77.604 110.697  0.00  0.00    -0.090 HD
ENDBRANCH   5  18
BRANCH   3  22
ATOM     22  C   LIG d   1      -3.787  76.278 114.545  0.00  0.00     0.382 C 
ATOM     23  O   LIG d   1      -4.991  76.135 114.223  0.00  0.00    -0.241 OA
ATOM     24  O   LIG d   1      -3.255  75.453 115.312  0.00  0.00    -0.241 OA
ENDBRANCH   3  22
TORSDOF 7
ENDMDL
MODEL 6
REMARK VINA RESULT:      -4.8      3.328      4.817
REMARK  7 active torsions:
REMARK  status: ('A' for Active; 'I' for Inactive)
REMARK    1  A    between atoms: C_2  and  C_3 
REMARK    2  A    between atoms: C_3  and  O_6 
REMARK    3  A    between atoms: C_3  and  C_4 
REMARK    4  A    between atoms: C_7  and  O_6 
REMARK    5  A    between atoms: C_9  and  C_10 
REMARK    6  A    between atoms: N_15  and  C_14 
REMARK    7  A    between atoms: N_20  and  C_19 
REMARK       I    between atoms: C_22  and  N_20 
ROOT
ATOM      1  C   LIG d   1      -5.280  76.494 117.916  0.00  0.00     0.161 C 
ATOM      2  C   LIG d   1      -6.157  77.572 118.120  0.00  0.00     0.016 C 
ATOM      3  C   LIG d   1      -5.875  78.894 117.705  0.00  0.00     0.038 C 
ATOM      4  C   LIG d   1      -4.754  79.201 116.919  0.00  0.00     0.028 C 
ATOM      5  C   LIG d   1      -3.590  78.237 117.121  0.00  0.00    -0.047 C 
ATOM      6  C   LIG d   1      -4.104  76.788 116.961  0.00  0.00     0.091 C 
ENDROOT
BRANCH   1   7
ATOM      7  O   LIG d   1      -6.019  75.343 117.460  0.00  0.00    -0.368 OA
BRANCH   7   8
ATOM      8  C   LIG d   1      -7.249  75.617 116.746  0.00  0.00     0.119 C 
BRANCH   8   9
ATOM      9  C   LIG d   1      -8.297  74.590 117.217  0.00  0.00     0.028 C 
ATOM     10  C   LIG d   1      -9.694  74.869 116.638  0.00  0.00     0.006 C 
ENDBRANCH   8   9
BRANCH   8  11
ATOM     11  C   LIG d   1      -7.087  75.371 115.243  0.00  0.00     0.028 C 
ATOM     12  C   LIG d   1      -6.001  74.332 114.923  0.00  0.00     0.006 C 
ENDBRANCH   8  11
ENDBRANCH   7   8
ENDBRANCH   1   7
BRANCH   6  13
ATOM     13  N   LIG d   1      -3.046  75.779 117.226  0.00  0.00    -0.311 N 
ATOM     14  C   LIG d   1      -2.319  75.210 116.267  0.00  0.00     0.210 C 
ATOM     15  C   LIG d   1      -1.295  74.180 116.755  0.00  0.00     0.109 C 
ATOM     16  O   LIG d   1      -2.402  75.483 115.060  0.00  0.00    -0.276 OA
ATOM     17  H   LIG d   1      -2.890  75.522 118.181  0.00  0.00     0.149 HD
ENDBRANCH   6  13
BRANCH   5  18
ATOM     18  N   LIG d   1      -2.544  78.591 116.142  0.00  0.00     0.381 N 
ATOM     19  H   LIG d   1      -2.473  79.586 116.067  0.00  0.00    -0.090 HD
ATOM     20  H   LIG d   1      -2.803  78.225 115.243  0.00  0.00    -0.090 HD
ATOM     21  H   LIG d   1      -1.669  78.208 116.425  0.00  0.00    -0.090 HD
ENDBRANCH   5  18
BRANCH   3  22
ATOM     22  C   LIG d   1      -6.698  79.933 118.113  0.00  0.00     0.382 C 
ATOM     23  O   LIG d   1      -6.881  80.920 117.360  0.00  0.00    -0.241 OA
ATOM     24  O   LIG d   1      -7.225  79.916 119.241  0.00  0.00    -0.241 OA
ENDBRANCH   3  22
TORSDOF 7
ENDMDL
MODEL 7
REMARK VINA RESULT:      -4.6      3.480      6.180
REMARK  7 active torsions:
REMARK  status: ('A' for Active; 'I' for Inactive)
REMARK    1  A    between atoms: C_2  and  C_3 
REMARK    2  A    between atoms: C_3  and  O_6 
REMARK    3  A    between atoms: C_3  and  C_4 
REMARK    4  A    between atoms: C_7  and  O_6 
REMARK    5  A    between atoms: C_9  and  C_10 
REMARK    6  A    between atoms: N_15  and  C_14 
REMARK    7  A    between atoms: N_20  and  C_19 
REMARK       I    between atoms: C_22  and  N_20 
ROOT
ATOM      1  C   LIG d   1      -5.271  78.092 117.139  0.00  0.00     0.161 C 
ATOM      2  C   LIG d   1      -4.767  77.037 116.361  0.00  0.00     0.016 C 
ATOM      3  C   LIG d   1      -5.510  75.874 116.053  0.00  0.00     0.038 C 
ATOM      4  C   LIG d   1      -6.870  75.755 116.379  0.00  0.00     0.028 C 
ATOM      5  C   LIG d   1      -7.274  76.575 117.600  0.00  0.00    -0.047 C 
ATOM      6  C   LIG d   1      -6.788  78.030 117.410  0.00  0.00     0.091 C 
ENDROOT
BRANCH   1   7
ATOM      7  O   LIG d   1      -4.921  79.354 116.536  0.00  0.00    -0.368 OA
BRANCH   7   8
ATOM      8  C   LIG d   1      -3.871  80.105 117.193  0.00  0.00     0.119 C 
BRANCH   8   9
ATOM      9  C   LIG d   1      -2.548  79.780 116.472  0.00  0.00     0.028 C 
ATOM     10  C   LIG d   1      -2.703  79.761 114.942  0.00  0.00     0.006 C 
ENDBRANCH   8   9
BRANCH   8  11
ATOM     11  C   LIG d   1      -3.671  79.637 118.638  0.00  0.00     0.028 C 
ATOM     12  C   LIG d   1      -2.739  80.560 119.440  0.00  0.00     0.006 C 
ENDBRANCH   8  11
ENDBRANCH   7   8
ENDBRANCH   1   7
BRANCH   6  13
ATOM     13  N   LIG d   1      -7.069  78.880 118.596  0.00  0.00    -0.311 N 
ATOM     14  C   LIG d   1      -7.731  80.034 118.531  0.00  0.00     0.210 C 
ATOM     15  C   LIG d   1      -7.894  80.763 119.868  0.00  0.00     0.109 C 
ATOM     16  O   LIG d   1      -8.227  80.508 117.497  0.00  0.00    -0.276 OA
ATOM     17  H   LIG d   1      -6.730  78.556 119.481  0.00  0.00     0.149 HD
ENDBRANCH   6  13
BRANCH   5  18
ATOM     18  N   LIG d   1      -8.738  76.468 117.743  0.00  0.00     0.381 N 
ATOM     19  H   LIG d   1      -9.107  77.327 118.098  0.00  0.00    -0.090 HD
ATOM     20  H   LIG d   1      -8.948  75.739 118.403  0.00  0.00    -0.090 HD
ATOM     21  H   LIG d   1      -9.153  76.257 116.862  0.00  0.00    -0.090 HD
ENDBRANCH   5  18
BRANCH   3  22
ATOM     22  C   LIG d   1      -4.882  74.797 115.446  0.00  0.00     0.382 C 
ATOM     23  O   LIG d   1      -5.453  74.181 114.515  0.00  0.00    -0.241 OA
ATOM     24  O   LIG d   1      -3.769  74.407 115.848  0.00  0.00    -0.241 OA
ENDBRANCH   3  22
TORSDOF 7
ENDMDL
MODEL 8
REMARK VINA RESULT:      -4.5      2.418      5.960
REMARK  7 active torsions:
REMARK  status: ('A' for Active; 'I' for Inactive)
REMARK    1  A    between atoms: C_2  and  C_3 
REMARK    2  A    between atoms: C_3  and  O_6 
REMARK    3  A    between atoms: C_3  and  C_4 
REMARK    4  A    between atoms: C_7  and  O_6 
REMARK    5  A    between atoms: C_9  and  C_10 
REMARK    6  A    between atoms: N_15  and  C_14 
REMARK    7  A    between atoms: N_20  and  C_19 
REMARK       I    between atoms: C_22  and  N_20 
ROOT
ATOM      1  C   LIG d   1      -3.023  78.163 115.815  0.00  0.00     0.161 C 
ATOM      2  C   LIG d   1      -2.157  77.099 115.512  0.00  0.00     0.016 C 
ATOM      3  C   LIG d   1      -2.260  75.819 116.105  0.00  0.00     0.038 C 
ATOM      4  C   LIG d   1      -3.336  75.471 116.935  0.00  0.00     0.028 C 
ATOM      5  C   LIG d   1      -3.950  76.661 117.664  0.00  0.00    -0.047 C 
ATOM      6  C   LIG d   1      -4.270  77.769 116.634  0.00  0.00     0.091 C 
ENDROOT
BRANCH   1   7
ATOM      7  O   LIG d   1      -3.413  78.836 114.602  0.00  0.00    -0.368 OA
BRANCH   7   8
ATOM      8  C   LIG d   1      -2.449  78.809 113.520  0.00  0.00     0.119 C 
BRANCH   8   9
ATOM      9  C   LIG d   1      -2.051  80.267 113.218  0.00  0.00     0.028 C 
ATOM     10  C   LIG d   1      -3.272  81.170 112.976  0.00  0.00     0.006 C 
ENDBRANCH   8   9
BRANCH   8  11
ATOM     11  C   LIG d   1      -3.078  78.284 112.227  0.00  0.00     0.028 C 
ATOM     12  C   LIG d   1      -2.078  78.219 111.061  0.00  0.00     0.006 C 
ENDBRANCH   8  11
ENDBRANCH   7   8
ENDBRANCH   1   7
BRANCH   6  13
ATOM     13  N   LIG d   1      -4.796  79.003 117.274  0.00  0.00    -0.311 N 
ATOM     14  C   LIG d   1      -6.089  79.208 117.519  0.00  0.00     0.210 C 
ATOM     15  C   LIG d   1      -6.419  80.556 118.168  0.00  0.00     0.109 C 
ATOM     16  O   LIG d   1      -6.991  78.388 117.290  0.00  0.00    -0.276 OA
ATOM     17  H   LIG d   1      -4.130  79.708 117.521  0.00  0.00     0.149 HD
ENDBRANCH   6  13
BRANCH   5  18
ATOM     18  N   LIG d   1      -5.143  76.177 118.383  0.00  0.00     0.381 N 
ATOM     19  H   LIG d   1      -5.332  75.229 118.125  0.00  0.00    -0.090 HD
ATOM     20  H   LIG d   1      -5.932  76.740 118.118  0.00  0.00    -0.090 HD
ATOM     21  H   LIG d   1      -4.997  76.239 119.366  0.00  0.00    -0.090 HD
ENDBRANCH   5  18
BRANCH   3  22
ATOM     22  C   LIG d   1      -1.256  74.885 115.901  0.00  0.00     0.382 C 
ATOM     23  O   LIG d   1      -0.785  74.712 114.751  0.00  0.00    -0.241 OA
ATOM     24  O   LIG d   1      -0.847  74.181 116.844  0.00  0.00    -0.241 OA
ENDBRANCH   3  22
TORSDOF 7
ENDMDL
MODEL 9
REMARK VINA RESULT:      -4.4      3.625      5.740
REMARK  7 active torsions:
REMARK  status: ('A' for Active; 'I' for Inactive)
REMARK    1  A    between atoms: C_2  and  C_3 
REMARK    2  A    between atoms: C_3  and  O_6 
REMARK    3  A    between atoms: C_3  and  C_4 
REMARK    4  A    between atoms: C_7  and  O_6 
REMARK    5  A    between atoms: C_9  and  C_10 
REMARK    6  A    between atoms: N_15  and  C_14 
REMARK    7  A    between atoms: N_20  and  C_19 
REMARK       I    between atoms: C_22  and  N_20 
ROOT
ATOM      1  C   LIG d   1      -5.798  77.672 117.450  0.00  0.00     0.161 C 
ATOM      2  C   LIG d   1      -4.717  78.067 116.644  0.00  0.00     0.016 C 
ATOM      3  C   LIG d   1      -4.120  79.347 116.715  0.00  0.00     0.038 C 
ATOM      4  C   LIG d   1      -4.468  80.273 117.710  0.00  0.00     0.028 C 
ATOM      5  C   LIG d   1      -5.896  80.107 118.219  0.00  0.00    -0.047 C 
ATOM      6  C   LIG d   1      -6.118  78.630 118.617  0.00  0.00     0.091 C 
ENDROOT
BRANCH   1   7
ATOM      7  O   LIG d   1      -5.576  76.337 117.945  0.00  0.00    -0.368 OA
BRANCH   7   8
ATOM      8  C   LIG d   1      -6.450  75.309 117.418  0.00  0.00     0.119 C 
BRANCH   8   9
ATOM      9  C   LIG d   1      -5.597  74.393 116.518  0.00  0.00     0.028 C 
ATOM     10  C   LIG d   1      -5.891  74.601 115.023  0.00  0.00     0.006 C 
ENDBRANCH   8   9
BRANCH   8  11
ATOM     11  C   LIG d   1      -7.517  75.904 116.495  0.00  0.00     0.028 C 
ATOM     12  C   LIG d   1      -8.948  75.575 116.949  0.00  0.00     0.006 C 
ENDBRANCH   8  11
ENDBRANCH   7   8
ENDBRANCH   1   7
BRANCH   6  13
ATOM     13  N   LIG d   1      -7.515  78.363 119.047  0.00  0.00    -0.311 N 
ATOM     14  C   LIG d   1      -8.572  78.994 118.538  0.00  0.00     0.210 C 
ATOM     15  C   LIG d   1      -9.921  78.583 119.136  0.00  0.00     0.109 C 
ATOM     16  O   LIG d   1      -8.524  79.832 117.625  0.00  0.00    -0.276 OA
ATOM     17  H   LIG d   1      -7.649  77.675 119.761  0.00  0.00     0.149 HD
ENDBRANCH   6  13
BRANCH   5  18
ATOM     18  N   LIG d   1      -6.079  81.043 119.344  0.00  0.00     0.381 N 
ATOM     19  H   LIG d   1      -5.256  81.600 119.459  0.00  0.00    -0.090 HD
ATOM     20  H   LIG d   1      -6.222  80.514 120.187  0.00  0.00    -0.090 HD
ATOM     21  H   LIG d   1      -6.866  81.630 119.175  0.00  0.00    -0.090 HD
ENDBRANCH   5  18
BRANCH   3  22
ATOM     22  C   LIG d   1      -3.190  79.726 115.759  0.00  0.00     0.382 C 
ATOM     23  O   LIG d   1      -3.553  79.919 114.573  0.00  0.00    -0.241 OA
ATOM     24  O   LIG d   1      -1.985  79.833 116.057  0.00  0.00    -0.241 OA
ENDBRANCH   3  22
TORSDOF 7
ENDMDL
