MODEL 1
REMARK VINA RESULT:      -4.8      0.000      0.000
REMARK  7 active torsions:
REMARK  status: ('A' for Active; 'I' for Inactive)
REMARK    1  A    between atoms: C_2  and  C_3 
REMARK    2  A    between atoms: C_3  and  O_6 
REMARK    3  A    between atoms: C_3  and  C_4 
REMARK    4  A    between atoms: C_7  and  O_6 
REMARK    5  A    between atoms: C_9  and  C_10 
REMARK    6  A    between atoms: N_15  and  C_14 
REMARK    7  A    between atoms: N_20  and  C_19 
REMARK       I    between atoms: C_22  and  N_20 
ROOT
ATOM      1  C   LIG d   1      -2.670  80.312 115.383  0.00  0.00     0.161 C 
ATOM      2  C   LIG d   1      -2.420  81.458 114.609  0.00  0.00     0.016 C 
ATOM      3  C   LIG d   1      -1.788  81.420 113.345  0.00  0.00     0.038 C 
ATOM      4  C   LIG d   1      -1.496  80.210 112.697  0.00  0.00     0.028 C 
ATOM      5  C   LIG d   1      -1.271  79.047 113.659  0.00  0.00    -0.047 C 
ATOM      6  C   LIG d   1      -2.460  78.974 114.644  0.00  0.00     0.091 C 
ENDROOT
BRANCH   1   7
ATOM      7  O   LIG d   1      -4.000  80.376 115.934  0.00  0.00    -0.368 OA
BRANCH   7   8
ATOM      8  C   LIG d   1      -4.312  81.559 116.711  0.00  0.00     0.119 C 
BRANCH   8   9
ATOM      9  C   LIG d   1      -3.540  81.455 118.041  0.00  0.00     0.028 C 
ATOM     10  C   LIG d   1      -2.889  82.788 118.448  0.00  0.00     0.006 C 
ENDBRANCH   8   9
BRANCH   8  11
ATOM     11  C   LIG d   1      -5.792  81.595 117.103  0.00  0.00     0.028 C 
ATOM     12  C   LIG d   1      -6.356  80.202 117.427  0.00  0.00     0.006 C 
ENDBRANCH   8  11
ENDBRANCH   7   8
ENDBRANCH   1   7
BRANCH   6  13
ATOM     13  N   LIG d   1      -2.279  77.916 115.672  0.00  0.00    -0.311 N 
ATOM     14  C   LIG d   1      -2.739  76.674 115.535  0.00  0.00     0.210 C 
ATOM     15  C   LIG d   1      -2.462  75.746 116.722  0.00  0.00     0.109 C 
ATOM     16  O   LIG d   1      -3.322  76.243 114.528  0.00  0.00    -0.276 OA
ATOM     17  H   LIG d   1      -1.790  78.171 116.508  0.00  0.00     0.149 HD
ENDBRANCH   6  13
BRANCH   5  18
ATOM     18  N   LIG d   1      -1.114  77.824 112.850  0.00  0.00     0.381 N 
ATOM     19  H   LIG d   1      -0.142  77.624 112.723  0.00  0.00    -0.090 HD
ATOM     20  H   LIG d   1      -1.525  77.977 111.945  0.00  0.00    -0.090 HD
ATOM     21  H   LIG d   1      -1.563  77.057 113.301  0.00  0.00    -0.090 HD
ENDBRANCH   5  18
BRANCH   3  22
ATOM     22  C   LIG d   1      -1.403  82.603 112.733  0.00  0.00     0.382 C 
ATOM     23  O   LIG d   1      -1.264  83.646 113.416  0.00  0.00    -0.241 OA
ATOM     24  O   LIG d   1      -1.238  82.652 111.499  0.00  0.00    -0.241 OA
ENDBRANCH   3  22
TORSDOF 7
ENDMDL
MODEL 2
REMARK VINA RESULT:      -4.7      0.592      1.653
REMARK  7 active torsions:
REMARK  status: ('A' for Active; 'I' for Inactive)
REMARK    1  A    between atoms: C_2  and  C_3 
REMARK    2  A    between atoms: C_3  and  O_6 
REMARK    3  A    between atoms: C_3  and  C_4 
REMARK    4  A    between atoms: C_7  and  O_6 
REMARK    5  A    between atoms: C_9  and  C_10 
REMARK    6  A    between atoms: N_15  and  C_14 
REMARK    7  A    between atoms: N_20  and  C_19 
REMARK       I    between atoms: C_22  and  N_20 
ROOT
ATOM      1  C   LIG d   1      -2.626  80.450 115.217  0.00  0.00     0.161 C 
ATOM      2  C   LIG d   1      -2.220  81.571 114.475  0.00  0.00     0.016 C 
ATOM      3  C   LIG d   1      -1.499  81.481 113.261  0.00  0.00     0.038 C 
ATOM      4  C   LIG d   1      -1.266  80.252 112.627  0.00  0.00     0.028 C 
ATOM      5  C   LIG d   1      -1.216  79.072 113.592  0.00  0.00    -0.047 C 
ATOM      6  C   LIG d   1      -2.477  79.100 114.485  0.00  0.00     0.091 C 
ENDROOT
BRANCH   1   7
ATOM      7  O   LIG d   1      -3.983  80.628 115.669  0.00  0.00    -0.368 OA
BRANCH   7   8
ATOM      8  C   LIG d   1      -4.159  80.851 117.089  0.00  0.00     0.119 C 
BRANCH   8   9
ATOM      9  C   LIG d   1      -5.554  80.321 117.472  0.00  0.00     0.028 C 
ATOM     10  C   LIG d   1      -6.656  81.376 117.280  0.00  0.00     0.006 C 
ENDBRANCH   8   9
BRANCH   8  11
ATOM     11  C   LIG d   1      -4.188  82.347 117.419  0.00  0.00     0.028 C 
ATOM     12  C   LIG d   1      -3.186  82.734 118.518  0.00  0.00     0.006 C 
ENDBRANCH   8  11
ENDBRANCH   7   8
ENDBRANCH   1   7
BRANCH   6  13
ATOM     13  N   LIG d   1      -2.467  78.028 115.514  0.00  0.00    -0.311 N 
ATOM     14  C   LIG d   1      -3.019  76.830 115.331  0.00  0.00     0.210 C 
ATOM     15  C   LIG d   1      -2.914  75.879 116.528  0.00  0.00     0.109 C 
ATOM     16  O   LIG d   1      -3.557  76.453 114.279  0.00  0.00    -0.276 OA
ATOM     17  H   LIG d   1      -2.023  78.238 116.387  0.00  0.00     0.149 HD
ENDBRANCH   6  13
BRANCH   5  18
ATOM     18  N   LIG d   1      -1.105  77.841 112.786  0.00  0.00     0.381 N 
ATOM     19  H   LIG d   1      -1.825  77.824 112.093  0.00  0.00    -0.090 HD
ATOM     20  H   LIG d   1      -1.228  77.046 113.389  0.00  0.00    -0.090 HD
ATOM     21  H   LIG d   1      -0.211  77.800 112.348  0.00  0.00    -0.090 HD
ENDBRANCH   5  18
BRANCH   3  22
ATOM     22  C   LIG d   1      -0.969  82.628 112.690  0.00  0.00     0.382 C 
ATOM     23  O   LIG d   1      -1.395  83.031 111.581  0.00  0.00    -0.241 OA
ATOM     24  O   LIG d   1      -0.039  83.240 113.249  0.00  0.00    -0.241 OA
ENDBRANCH   3  22
TORSDOF 7
ENDMDL
MODEL 3
REMARK VINA RESULT:      -4.4      1.701      2.449
REMARK  7 active torsions:
REMARK  status: ('A' for Active; 'I' for Inactive)
REMARK    1  A    between atoms: C_2  and  C_3 
REMARK    2  A    between atoms: C_3  and  O_6 
REMARK    3  A    between atoms: C_3  and  C_4 
REMARK    4  A    between atoms: C_7  and  O_6 
REMARK    5  A    between atoms: C_9  and  C_10 
REMARK    6  A    between atoms: N_15  and  C_14 
REMARK    7  A    between atoms: N_20  and  C_19 
REMARK       I    between atoms: C_22  and  N_20 
ROOT
ATOM      1  C   LIG d   1      -2.073  79.138 116.217  0.00  0.00     0.161 C 
ATOM      2  C   LIG d   1      -2.466  80.314 115.557  0.00  0.00     0.016 C 
ATOM      3  C   LIG d   1      -2.376  80.488 114.156  0.00  0.00     0.038 C 
ATOM      4  C   LIG d   1      -2.026  79.433 113.300  0.00  0.00     0.028 C 
ATOM      5  C   LIG d   1      -1.139  78.384 113.962  0.00  0.00    -0.047 C 
ATOM      6  C   LIG d   1      -1.794  77.938 115.289  0.00  0.00     0.091 C 
ENDROOT
BRANCH   1   7
ATOM      7  O   LIG d   1      -3.055  78.785 117.211  0.00  0.00    -0.368 OA
BRANCH   7   8
ATOM      8  C   LIG d   1      -4.359  78.400 116.710  0.00  0.00     0.119 C 
BRANCH   8   9
ATOM      9  C   LIG d   1      -5.417  79.092 117.592  0.00  0.00     0.028 C 
ATOM     10  C   LIG d   1      -5.599  80.577 117.234  0.00  0.00     0.006 C 
ENDBRANCH   8   9
BRANCH   8  11
ATOM     11  C   LIG d   1      -4.603  76.899 116.888  0.00  0.00     0.028 C 
ATOM     12  C   LIG d   1      -5.201  76.240 115.635  0.00  0.00     0.006 C 
ENDBRANCH   8  11
ENDBRANCH   7   8
ENDBRANCH   1   7
BRANCH   6  13
ATOM     13  N   LIG d   1      -0.949  76.974 116.042  0.00  0.00    -0.311 N 
ATOM     14  C   LIG d   1      -1.078  75.652 115.941  0.00  0.00     0.210 C 
ATOM     15  C   LIG d   1      -0.120  74.841 116.819  0.00  0.00     0.109 C 
ATOM     16  O   LIG d   1      -1.872  75.075 115.184  0.00  0.00    -0.276 OA
ATOM     17  H   LIG d   1      -0.258  77.357 116.656  0.00  0.00     0.149 HD
ENDBRANCH   6  13
BRANCH   5  18
ATOM     18  N   LIG d   1      -0.966  77.277 113.002  0.00  0.00     0.381 N 
ATOM     19  H   LIG d   1       0.008  77.131 112.827  0.00  0.00    -0.090 HD
ATOM     20  H   LIG d   1      -1.408  77.527 112.135  0.00  0.00    -0.090 HD
ATOM     21  H   LIG d   1      -1.375  76.444 113.364  0.00  0.00    -0.090 HD
ENDBRANCH   5  18
BRANCH   3  22
ATOM     22  C   LIG d   1      -2.600  81.739 113.603  0.00  0.00     0.382 C 
ATOM     23  O   LIG d   1      -2.390  82.772 114.283  0.00  0.00    -0.241 OA
ATOM     24  O   LIG d   1      -3.051  81.847 112.447  0.00  0.00    -0.241 OA
ENDBRANCH   3  22
TORSDOF 7
ENDMDL
MODEL 4
REMARK VINA RESULT:      -4.4      3.135      6.651
REMARK  7 active torsions:
REMARK  status: ('A' for Active; 'I' for Inactive)
REMARK    1  A    between atoms: C_2  and  C_3 
REMARK    2  A    between atoms: C_3  and  O_6 
REMARK    3  A    between atoms: C_3  and  C_4 
REMARK    4  A    between atoms: C_7  and  O_6 
REMARK    5  A    between atoms: C_9  and  C_10 
REMARK    6  A    between atoms: N_15  and  C_14 
REMARK    7  A    between atoms: N_20  and  C_19 
REMARK       I    between atoms: C_22  and  N_20 
ROOT
ATOM      1  C   LIG d   1      -5.905  78.820 117.292  0.00  0.00     0.161 C 
ATOM      2  C   LIG d   1      -7.274  78.863 117.602  0.00  0.00     0.016 C 
ATOM      3  C   LIG d   1      -7.977  80.062 117.862  0.00  0.00     0.038 C 
ATOM      4  C   LIG d   1      -7.386  81.321 117.680  0.00  0.00     0.028 C 
ATOM      5  C   LIG d   1      -5.871  81.312 117.859  0.00  0.00    -0.047 C 
ATOM      6  C   LIG d   1      -5.270  80.191 116.980  0.00  0.00     0.091 C 
ENDROOT
BRANCH   1   7
ATOM      7  O   LIG d   1      -5.679  77.904 116.203  0.00  0.00    -0.368 OA
BRANCH   7   8
ATOM      8  C   LIG d   1      -5.182  76.592 116.567  0.00  0.00     0.119 C 
BRANCH   8   9
ATOM      9  C   LIG d   1      -3.748  76.471 116.017  0.00  0.00     0.028 C 
ATOM     10  C   LIG d   1      -2.689  76.475 117.133  0.00  0.00     0.006 C 
ENDBRANCH   8   9
BRANCH   8  11
ATOM     11  C   LIG d   1      -5.978  75.483 115.872  0.00  0.00     0.028 C 
ATOM     12  C   LIG d   1      -5.176  74.778 114.766  0.00  0.00     0.006 C 
ENDBRANCH   8  11
ENDBRANCH   7   8
ENDBRANCH   1   7
BRANCH   6  13
ATOM     13  N   LIG d   1      -3.800  80.058 117.160  0.00  0.00    -0.311 N 
ATOM     14  C   LIG d   1      -2.924  80.212 116.169  0.00  0.00     0.210 C 
ATOM     15  C   LIG d   1      -1.458  80.011 116.566  0.00  0.00     0.109 C 
ATOM     16  O   LIG d   1      -3.219  80.528 115.006  0.00  0.00    -0.276 OA
ATOM     17  H   LIG d   1      -3.472  79.834 118.078  0.00  0.00     0.149 HD
ENDBRANCH   6  13
BRANCH   5  18
ATOM     18  N   LIG d   1      -5.372  82.654 117.506  0.00  0.00     0.381 N 
ATOM     19  H   LIG d   1      -4.374  82.639 117.446  0.00  0.00    -0.090 HD
ATOM     20  H   LIG d   1      -5.635  83.299 118.230  0.00  0.00    -0.090 HD
ATOM     21  H   LIG d   1      -5.761  82.944 116.635  0.00  0.00    -0.090 HD
ENDBRANCH   5  18
BRANCH   3  22
ATOM     22  C   LIG d   1      -9.274  80.007 118.348  0.00  0.00     0.382 C 
ATOM     23  O   LIG d   1      -9.651  80.825 119.222  0.00  0.00    -0.241 OA
ATOM     24  O   LIG d   1     -10.059  79.123 117.956  0.00  0.00    -0.241 OA
ENDBRANCH   3  22
TORSDOF 7
ENDMDL
MODEL 5
REMARK VINA RESULT:      -4.3      4.177      7.058
REMARK  7 active torsions:
REMARK  status: ('A' for Active; 'I' for Inactive)
REMARK    1  A    between atoms: C_2  and  C_3 
REMARK    2  A    between atoms: C_3  and  O_6 
REMARK    3  A    between atoms: C_3  and  C_4 
REMARK    4  A    between atoms: C_7  and  O_6 
REMARK    5  A    between atoms: C_9  and  C_10 
REMARK    6  A    between atoms: N_15  and  C_14 
REMARK    7  A    between atoms: N_20  and  C_19 
REMARK       I    between atoms: C_22  and  N_20 
ROOT
ATOM      1  C   LIG d   1      -7.069  77.489 117.915  0.00  0.00     0.161 C 
ATOM      2  C   LIG d   1      -8.222  78.259 118.143  0.00  0.00     0.016 C 
ATOM      3  C   LIG d   1      -8.263  79.664 117.988  0.00  0.00     0.038 C 
ATOM      4  C   LIG d   1      -7.187  80.381 117.444  0.00  0.00     0.028 C 
ATOM      5  C   LIG d   1      -5.836  79.714 117.676  0.00  0.00    -0.047 C 
ATOM      6  C   LIG d   1      -5.918  78.241 117.215  0.00  0.00     0.091 C 
ENDROOT
BRANCH   1   7
ATOM      7  O   LIG d   1      -7.414  76.300 117.176  0.00  0.00    -0.368 OA
BRANCH   7   8
ATOM      8  C   LIG d   1      -7.444  75.066 117.934  0.00  0.00     0.119 C 
BRANCH   8   9
ATOM      9  C   LIG d   1      -6.286  74.184 117.428  0.00  0.00     0.028 C 
ATOM     10  C   LIG d   1      -5.933  74.465 115.958  0.00  0.00     0.006 C 
ENDBRANCH   8   9
BRANCH   8  11
ATOM     11  C   LIG d   1      -8.719  74.266 117.646  0.00  0.00     0.028 C 
ATOM     12  C   LIG d   1      -9.963  75.158 117.508  0.00  0.00     0.006 C 
ENDBRANCH   8  11
ENDBRANCH   7   8
ENDBRANCH   1   7
BRANCH   6  13
ATOM     13  N   LIG d   1      -4.663  77.492 117.484  0.00  0.00    -0.311 N 
ATOM     14  C   LIG d   1      -3.691  77.342 116.586  0.00  0.00     0.210 C 
ATOM     15  C   LIG d   1      -2.491  76.517 117.062  0.00  0.00     0.109 C 
ATOM     16  O   LIG d   1      -3.694  77.842 115.451  0.00  0.00    -0.276 OA
ATOM     17  H   LIG d   1      -4.563  77.080 118.392  0.00  0.00     0.149 HD
ENDBRANCH   6  13
BRANCH   5  18
ATOM     18  N   LIG d   1      -4.822  80.494 116.941  0.00  0.00     0.381 N 
ATOM     19  H   LIG d   1      -4.490  81.243 117.515  0.00  0.00    -0.090 HD
ATOM     20  H   LIG d   1      -5.247  80.889 116.121  0.00  0.00    -0.090 HD
ATOM     21  H   LIG d   1      -4.062  79.905 116.680  0.00  0.00    -0.090 HD
ENDBRANCH   5  18
BRANCH   3  22
ATOM     22  C   LIG d   1      -9.377  80.370 118.416  0.00  0.00     0.382 C 
ATOM     23  O   LIG d   1     -10.060  81.023 117.591  0.00  0.00    -0.241 OA
ATOM     24  O   LIG d   1      -9.681  80.399 119.623  0.00  0.00    -0.241 OA
ENDBRANCH   3  22
TORSDOF 7
ENDMDL
MODEL 6
REMARK VINA RESULT:      -4.0      2.594      4.576
REMARK  7 active torsions:
REMARK  status: ('A' for Active; 'I' for Inactive)
REMARK    1  A    between atoms: C_2  and  C_3 
REMARK    2  A    between atoms: C_3  and  O_6 
REMARK    3  A    between atoms: C_3  and  C_4 
REMARK    4  A    between atoms: C_7  and  O_6 
REMARK    5  A    between atoms: C_9  and  C_10 
REMARK    6  A    between atoms: N_15  and  C_14 
REMARK    7  A    between atoms: N_20  and  C_19 
REMARK       I    between atoms: C_22  and  N_20 
ROOT
ATOM      1  C   LIG d   1      -2.898  81.719 114.313  0.00  0.00     0.161 C 
ATOM      2  C   LIG d   1      -2.134  81.972 113.162  0.00  0.00     0.016 C 
ATOM      3  C   LIG d   1      -1.166  82.999 113.080  0.00  0.00     0.038 C 
ATOM      4  C   LIG d   1      -0.786  83.751 114.201  0.00  0.00     0.028 C 
ATOM      5  C   LIG d   1      -1.885  83.870 115.252  0.00  0.00    -0.047 C 
ATOM      6  C   LIG d   1      -2.419  82.457 115.581  0.00  0.00     0.091 C 
ENDROOT
BRANCH   1   7
ATOM      7  O   LIG d   1      -2.964  80.300 114.554  0.00  0.00    -0.368 OA
BRANCH   7   8
ATOM      8  C   LIG d   1      -1.813  79.710 115.208  0.00  0.00     0.119 C 
BRANCH   8   9
ATOM      9  C   LIG d   1      -1.303  78.569 114.307  0.00  0.00     0.028 C 
ATOM     10  C   LIG d   1      -2.288  78.230 113.175  0.00  0.00     0.006 C 
ENDBRANCH   8   9
BRANCH   8  11
ATOM     11  C   LIG d   1      -2.204  79.040 116.528  0.00  0.00     0.028 C 
ATOM     12  C   LIG d   1      -3.712  78.763 116.632  0.00  0.00     0.006 C 
ENDBRANCH   8  11
ENDBRANCH   7   8
ENDBRANCH   1   7
BRANCH   6  13
ATOM     13  N   LIG d   1      -3.555  82.489 116.539  0.00  0.00    -0.311 N 
ATOM     14  C   LIG d   1      -3.406  82.378 117.858  0.00  0.00     0.210 C 
ATOM     15  C   LIG d   1      -4.710  82.416 118.661  0.00  0.00     0.109 C 
ATOM     16  O   LIG d   1      -2.316  82.282 118.440  0.00  0.00    -0.276 OA
ATOM     17  H   LIG d   1      -4.473  82.595 116.154  0.00  0.00     0.149 HD
ENDBRANCH   6  13
BRANCH   5  18
ATOM     18  N   LIG d   1      -1.311  84.558 116.422  0.00  0.00     0.381 N 
ATOM     19  H   LIG d   1      -1.769  84.250 117.256  0.00  0.00    -0.090 HD
ATOM     20  H   LIG d   1      -1.464  85.547 116.326  0.00  0.00    -0.090 HD
ATOM     21  H   LIG d   1      -0.334  84.371 116.483  0.00  0.00    -0.090 HD
ENDBRANCH   5  18
BRANCH   3  22
ATOM     22  C   LIG d   1      -0.594  83.309 111.855  0.00  0.00     0.382 C 
ATOM     23  O   LIG d   1      -0.905  84.374 111.270  0.00  0.00    -0.241 OA
ATOM     24  O   LIG d   1       0.194  82.515 111.307  0.00  0.00    -0.241 OA
ENDBRANCH   3  22
TORSDOF 7
ENDMDL
MODEL 7
REMARK VINA RESULT:      -3.9      4.494      6.694
REMARK  7 active torsions:
REMARK  status: ('A' for Active; 'I' for Inactive)
REMARK    1  A    between atoms: C_2  and  C_3 
REMARK    2  A    between atoms: C_3  and  O_6 
REMARK    3  A    between atoms: C_3  and  C_4 
REMARK    4  A    between atoms: C_7  and  O_6 
REMARK    5  A    between atoms: C_9  and  C_10 
REMARK    6  A    between atoms: N_15  and  C_14 
REMARK    7  A    between atoms: N_20  and  C_19 
REMARK       I    between atoms: C_22  and  N_20 
ROOT
ATOM      1  C   LIG d   1      -6.442  78.250 117.314  0.00  0.00     0.161 C 
ATOM      2  C   LIG d   1      -5.589  79.366 117.287  0.00  0.00     0.016 C 
ATOM      3  C   LIG d   1      -6.008  80.674 117.621  0.00  0.00     0.038 C 
ATOM      4  C   LIG d   1      -7.281  80.932 118.153  0.00  0.00     0.028 C 
ATOM      5  C   LIG d   1      -8.334  79.918 117.721  0.00  0.00    -0.047 C 
ATOM      6  C   LIG d   1      -7.803  78.493 117.998  0.00  0.00     0.091 C 
ENDROOT
BRANCH   1   7
ATOM      7  O   LIG d   1      -5.766  77.133 117.925  0.00  0.00    -0.368 OA
BRANCH   7   8
ATOM      8  C   LIG d   1      -5.593  75.960 117.092  0.00  0.00     0.119 C 
BRANCH   8   9
ATOM      9  C   LIG d   1      -4.086  75.645 117.044  0.00  0.00     0.028 C 
ATOM     10  C   LIG d   1      -3.704  74.461 117.949  0.00  0.00     0.006 C 
ENDBRANCH   8   9
BRANCH   8  11
ATOM     11  C   LIG d   1      -5.996  76.242 115.642  0.00  0.00     0.028 C 
ATOM     12  C   LIG d   1      -5.425  75.211 114.654  0.00  0.00     0.006 C 
ENDBRANCH   8  11
ENDBRANCH   7   8
ENDBRANCH   1   7
BRANCH   6  13
ATOM     13  N   LIG d   1      -8.738  77.438 117.527  0.00  0.00    -0.311 N 
ATOM     14  C   LIG d   1      -9.103  76.396 118.272  0.00  0.00     0.210 C 
ATOM     15  C   LIG d   1     -10.060  75.415 117.588  0.00  0.00     0.109 C 
ATOM     16  O   LIG d   1      -8.751  76.208 119.447  0.00  0.00    -0.276 OA
ATOM     17  H   LIG d   1      -9.096  77.528 116.597  0.00  0.00     0.149 HD
ENDBRANCH   6  13
BRANCH   5  18
ATOM     18  N   LIG d   1      -9.576  80.225 118.455  0.00  0.00     0.381 N 
ATOM     19  H   LIG d   1      -9.895  79.409 118.938  0.00  0.00    -0.090 HD
ATOM     20  H   LIG d   1     -10.284  80.499 117.797  0.00  0.00    -0.090 HD
ATOM     21  H   LIG d   1      -9.414  80.962 119.106  0.00  0.00    -0.090 HD
ENDBRANCH   5  18
BRANCH   3  22
ATOM     22  C   LIG d   1      -5.163  81.748 117.385  0.00  0.00     0.382 C 
ATOM     23  O   LIG d   1      -4.796  82.478 118.337  0.00  0.00    -0.241 OA
ATOM     24  O   LIG d   1      -4.799  82.023 116.226  0.00  0.00    -0.241 OA
ENDBRANCH   3  22
TORSDOF 7
ENDMDL
MODEL 8
REMARK VINA RESULT:      -3.9      3.963      5.970
REMARK  7 active torsions:
REMARK  status: ('A' for Active; 'I' for Inactive)
REMARK    1  A    between atoms: C_2  and  C_3 
REMARK    2  A    between atoms: C_3  and  O_6 
REMARK    3  A    between atoms: C_3  and  C_4 
REMARK    4  A    between atoms: C_7  and  O_6 
REMARK    5  A    between atoms: C_9  and  C_10 
REMARK    6  A    between atoms: N_15  and  C_14 
REMARK    7  A    between atoms: N_20  and  C_19 
REMARK       I    between atoms: C_22  and  N_20 
ROOT
ATOM      1  C   LIG d   1      -4.305  76.323 117.968  0.00  0.00     0.161 C 
ATOM      2  C   LIG d   1      -5.332  77.273 118.093  0.00  0.00     0.016 C 
ATOM      3  C   LIG d   1      -5.249  78.583 117.566  0.00  0.00     0.038 C 
ATOM      4  C   LIG d   1      -4.187  78.984 116.742  0.00  0.00     0.028 C 
ATOM      5  C   LIG d   1      -2.892  78.224 117.009  0.00  0.00    -0.047 C 
ATOM      6  C   LIG d   1      -3.185  76.707 116.978  0.00  0.00     0.091 C 
ENDROOT
BRANCH   1   7
ATOM      7  O   LIG d   1      -4.864  75.041 117.620  0.00  0.00    -0.368 OA
BRANCH   7   8
ATOM      8  C   LIG d   1      -6.019  75.066 116.746  0.00  0.00     0.119 C 
BRANCH   8   9
ATOM      9  C   LIG d   1      -7.104  74.180 117.388  0.00  0.00     0.028 C 
ATOM     10  C   LIG d   1      -8.332  74.989 117.840  0.00  0.00     0.006 C 
ENDBRANCH   8   9
BRANCH   8  11
ATOM     11  C   LIG d   1      -5.710  74.415 115.395  0.00  0.00     0.028 C 
ATOM     12  C   LIG d   1      -5.393  75.442 114.297  0.00  0.00     0.006 C 
ENDBRANCH   8  11
ENDBRANCH   7   8
ENDBRANCH   1   7
BRANCH   6  13
ATOM     13  N   LIG d   1      -1.989  75.892 117.313  0.00  0.00    -0.311 N 
ATOM     14  C   LIG d   1      -1.532  74.908 116.540  0.00  0.00     0.210 C 
ATOM     15  C   LIG d   1      -0.297  74.181 117.081  0.00  0.00     0.109 C 
ATOM     16  O   LIG d   1      -2.013  74.590 115.442  0.00  0.00    -0.276 OA
ATOM     17  H   LIG d   1      -1.519  76.103 118.172  0.00  0.00     0.149 HD
ENDBRANCH   6  13
BRANCH   5  18
ATOM     18  N   LIG d   1      -1.911  78.645 115.992  0.00  0.00     0.381 N 
ATOM     19  H   LIG d   1      -1.274  79.307 116.388  0.00  0.00    -0.090 HD
ATOM     20  H   LIG d   1      -2.398  79.091 115.235  0.00  0.00    -0.090 HD
ATOM     21  H   LIG d   1      -1.410  77.853 115.653  0.00  0.00    -0.090 HD
ENDBRANCH   5  18
BRANCH   3  22
ATOM     22  C   LIG d   1      -6.218  79.518 117.895  0.00  0.00     0.382 C 
ATOM     23  O   LIG d   1      -6.657  79.580 119.069  0.00  0.00    -0.241 OA
ATOM     24  O   LIG d   1      -6.690  80.272 117.023  0.00  0.00    -0.241 OA
ENDBRANCH   3  22
TORSDOF 7
ENDMDL
MODEL 9
REMARK VINA RESULT:      -3.9      2.016      4.785
REMARK  7 active torsions:
REMARK  status: ('A' for Active; 'I' for Inactive)
REMARK    1  A    between atoms: C_2  and  C_3 
REMARK    2  A    between atoms: C_3  and  O_6 
REMARK    3  A    between atoms: C_3  and  C_4 
REMARK    4  A    between atoms: C_7  and  O_6 
REMARK    5  A    between atoms: C_9  and  C_10 
REMARK    6  A    between atoms: N_15  and  C_14 
REMARK    7  A    between atoms: N_20  and  C_19 
REMARK       I    between atoms: C_22  and  N_20 
ROOT
ATOM      1  C   LIG d   1      -2.403  80.648 115.634  0.00  0.00     0.161 C 
ATOM      2  C   LIG d   1      -3.239  79.690 116.231  0.00  0.00     0.016 C 
ATOM      3  C   LIG d   1      -3.314  78.346 115.799  0.00  0.00     0.038 C 
ATOM      4  C   LIG d   1      -2.442  77.829 114.830  0.00  0.00     0.028 C 
ATOM      5  C   LIG d   1      -1.931  78.881 113.851  0.00  0.00    -0.047 C 
ATOM      6  C   LIG d   1      -1.363  80.076 114.649  0.00  0.00     0.091 C 
ENDROOT
BRANCH   1   7
ATOM      7  O   LIG d   1      -1.750  81.430 116.654  0.00  0.00    -0.368 OA
BRANCH   7   8
ATOM      8  C   LIG d   1      -2.296  82.751 116.892  0.00  0.00     0.119 C 
BRANCH   8   9
ATOM      9  C   LIG d   1      -1.193  83.774 116.558  0.00  0.00     0.028 C 
ATOM     10  C   LIG d   1      -1.570  84.677 115.371  0.00  0.00     0.006 C 
ENDBRANCH   8   9
BRANCH   8  11
ATOM     11  C   LIG d   1      -2.612  82.965 118.375  0.00  0.00     0.028 C 
ATOM     12  C   LIG d   1      -1.884  81.966 119.289  0.00  0.00     0.006 C 
ENDBRANCH   8  11
ENDBRANCH   7   8
ENDBRANCH   1   7
BRANCH   6  13
ATOM     13  N   LIG d   1      -0.919  81.187 113.768  0.00  0.00    -0.311 N 
ATOM     14  C   LIG d   1      -1.725  81.807 112.907  0.00  0.00     0.210 C 
ATOM     15  C   LIG d   1      -1.060  82.912 112.080  0.00  0.00     0.109 C 
ATOM     16  O   LIG d   1      -2.934  81.568 112.774  0.00  0.00    -0.276 OA
ATOM     17  H   LIG d   1       0.040  81.466 113.833  0.00  0.00     0.149 HD
ENDBRANCH   6  13
BRANCH   5  18
ATOM     18  N   LIG d   1      -0.928  78.234 112.984  0.00  0.00     0.381 N 
ATOM     19  H   LIG d   1      -0.100  78.795 112.947  0.00  0.00    -0.090 HD
ATOM     20  H   LIG d   1      -1.301  78.160 112.054  0.00  0.00    -0.090 HD
ATOM     21  H   LIG d   1      -0.708  77.328 113.335  0.00  0.00    -0.090 HD
ENDBRANCH   5  18
BRANCH   3  22
ATOM     22  C   LIG d   1      -4.299  77.514 116.309  0.00  0.00     0.382 C 
ATOM     23  O   LIG d   1      -3.983  76.428 116.853  0.00  0.00    -0.241 OA
ATOM     24  O   LIG d   1      -5.502  77.814 116.194  0.00  0.00    -0.241 OA
ENDBRANCH   3  22
TORSDOF 7
ENDMDL
