MODEL 1
REMARK VINA RESULT:      -5.5      0.000      0.000
REMARK  7 active torsions:
REMARK  status: ('A' for Active; 'I' for Inactive)
REMARK    1  A    between atoms: C_2  and  C_3 
REMARK    2  A    between atoms: C_3  and  O_6 
REMARK    3  A    between atoms: C_3  and  C_4 
REMARK    4  A    between atoms: C_7  and  O_6 
REMARK    5  A    between atoms: C_9  and  C_10 
REMARK    6  A    between atoms: N_15  and  C_14 
REMARK    7  A    between atoms: N_20  and  C_19 
REMARK       I    between atoms: C_22  and  N_20 
ROOT
ATOM      1  C   LIG d   1      -3.199  78.495 115.627  0.00  0.00     0.161 C 
ATOM      2  C   LIG d   1      -3.131  79.294 114.473  0.00  0.00     0.016 C 
ATOM      3  C   LIG d   1      -2.125  79.155 113.489  0.00  0.00     0.038 C 
ATOM      4  C   LIG d   1      -1.200  78.101 113.518  0.00  0.00     0.028 C 
ATOM      5  C   LIG d   1      -0.920  77.579 114.923  0.00  0.00    -0.047 C 
ATOM      6  C   LIG d   1      -2.264  77.268 115.620  0.00  0.00     0.091 C 
ENDROOT
BRANCH   1   7
ATOM      7  O   LIG d   1      -4.562  78.086 115.858  0.00  0.00    -0.368 OA
BRANCH   7   8
ATOM      8  C   LIG d   1      -5.072  78.299 117.197  0.00  0.00     0.119 C 
BRANCH   8   9
ATOM      9  C   LIG d   1      -6.201  77.276 117.430  0.00  0.00     0.028 C 
ATOM     10  C   LIG d   1      -5.810  75.858 116.979  0.00  0.00     0.006 C 
ENDBRANCH   8   9
BRANCH   8  11
ATOM     11  C   LIG d   1      -5.737  79.672 117.329  0.00  0.00     0.028 C 
ATOM     12  C   LIG d   1      -7.122  79.603 117.991  0.00  0.00     0.006 C 
ENDBRANCH   8  11
ENDBRANCH   7   8
ENDBRANCH   1   7
BRANCH   6  13
ATOM     13  N   LIG d   1      -2.084  76.832 117.029  0.00  0.00    -0.311 N 
ATOM     14  C   LIG d   1      -2.010  75.554 117.397  0.00  0.00     0.210 C 
ATOM     15  C   LIG d   1      -1.844  75.323 118.902  0.00  0.00     0.109 C 
ATOM     16  O   LIG d   1      -2.034  74.590 116.616  0.00  0.00    -0.276 OA
ATOM     17  H   LIG d   1      -2.024  77.549 117.725  0.00  0.00     0.149 HD
ENDBRANCH   6  13
BRANCH   5  18
ATOM     18  N   LIG d   1      -0.048  76.396 114.793  0.00  0.00     0.381 N 
ATOM     19  H   LIG d   1      -0.411  75.646 115.346  0.00  0.00    -0.090 HD
ATOM     20  H   LIG d   1       0.867  76.628 115.137  0.00  0.00    -0.090 HD
ATOM     21  H   LIG d   1       0.008  76.117 113.838  0.00  0.00    -0.090 HD
ENDBRANCH   5  18
BRANCH   3  22
ATOM     22  C   LIG d   1      -2.014  80.102 112.482  0.00  0.00     0.382 C 
ATOM     23  O   LIG d   1      -2.644  81.184 112.566  0.00  0.00    -0.241 OA
ATOM     24  O   LIG d   1      -1.326  79.870 111.470  0.00  0.00    -0.241 OA
ENDBRANCH   3  22
TORSDOF 7
ENDMDL
MODEL 2
REMARK VINA RESULT:      -5.4      1.133      2.114
REMARK  7 active torsions:
REMARK  status: ('A' for Active; 'I' for Inactive)
REMARK    1  A    between atoms: C_2  and  C_3 
REMARK    2  A    between atoms: C_3  and  O_6 
REMARK    3  A    between atoms: C_3  and  C_4 
REMARK    4  A    between atoms: C_7  and  O_6 
REMARK    5  A    between atoms: C_9  and  C_10 
REMARK    6  A    between atoms: N_15  and  C_14 
REMARK    7  A    between atoms: N_20  and  C_19 
REMARK       I    between atoms: C_22  and  N_20 
ROOT
ATOM      1  C   LIG d   1      -2.580  78.447 116.457  0.00  0.00     0.161 C 
ATOM      2  C   LIG d   1      -3.001  79.084 115.278  0.00  0.00     0.016 C 
ATOM      3  C   LIG d   1      -2.427  78.834 114.011  0.00  0.00     0.038 C 
ATOM      4  C   LIG d   1      -1.489  77.810 113.811  0.00  0.00     0.028 C 
ATOM      5  C   LIG d   1      -0.670  77.488 115.056  0.00  0.00    -0.047 C 
ATOM      6  C   LIG d   1      -1.633  77.248 116.241  0.00  0.00     0.091 C 
ENDROOT
BRANCH   1   7
ATOM      7  O   LIG d   1      -3.726  78.047 117.233  0.00  0.00    -0.368 OA
BRANCH   7   8
ATOM      8  C   LIG d   1      -4.915  77.701 116.481  0.00  0.00     0.119 C 
BRANCH   8   9
ATOM      9  C   LIG d   1      -6.125  78.292 117.230  0.00  0.00     0.028 C 
ATOM     10  C   LIG d   1      -5.939  79.783 117.561  0.00  0.00     0.006 C 
ENDBRANCH   8   9
BRANCH   8  11
ATOM     11  C   LIG d   1      -5.147  76.187 116.470  0.00  0.00     0.028 C 
ATOM     12  C   LIG d   1      -4.788  75.540 115.122  0.00  0.00     0.006 C 
ENDBRANCH   8  11
ENDBRANCH   7   8
ENDBRANCH   1   7
BRANCH   6  13
ATOM     13  N   LIG d   1      -0.912  77.008 117.518  0.00  0.00    -0.311 N 
ATOM     14  C   LIG d   1      -1.239  76.042 118.375  0.00  0.00     0.210 C 
ATOM     15  C   LIG d   1      -0.378  75.982 119.641  0.00  0.00     0.109 C 
ATOM     16  O   LIG d   1      -2.139  75.209 118.192  0.00  0.00    -0.276 OA
ATOM     17  H   LIG d   1      -0.147  77.619 117.732  0.00  0.00     0.149 HD
ENDBRANCH   6  13
BRANCH   5  18
ATOM     18  N   LIG d   1       0.169  76.315 114.746  0.00  0.00     0.381 N 
ATOM     19  H   LIG d   1      -0.183  75.852 113.932  0.00  0.00    -0.090 HD
ATOM     20  H   LIG d   1       0.127  75.672 115.518  0.00  0.00    -0.090 HD
ATOM     21  H   LIG d   1       1.111  76.600 114.594  0.00  0.00    -0.090 HD
ENDBRANCH   5  18
BRANCH   3  22
ATOM     22  C   LIG d   1      -2.764  79.639 112.933  0.00  0.00     0.382 C 
ATOM     23  O   LIG d   1      -2.383  79.331 111.778  0.00  0.00    -0.241 OA
ATOM     24  O   LIG d   1      -3.405  80.692 113.107  0.00  0.00    -0.241 OA
ENDBRANCH   3  22
TORSDOF 7
ENDMDL
MODEL 3
REMARK VINA RESULT:      -5.4      2.181      4.971
REMARK  7 active torsions:
REMARK  status: ('A' for Active; 'I' for Inactive)
REMARK    1  A    between atoms: C_2  and  C_3 
REMARK    2  A    between atoms: C_3  and  O_6 
REMARK    3  A    between atoms: C_3  and  C_4 
REMARK    4  A    between atoms: C_7  and  O_6 
REMARK    5  A    between atoms: C_9  and  C_10 
REMARK    6  A    between atoms: N_15  and  C_14 
REMARK    7  A    between atoms: N_20  and  C_19 
REMARK       I    between atoms: C_22  and  N_20 
ROOT
ATOM      1  C   LIG d   1      -2.100  75.852 114.987  0.00  0.00     0.161 C 
ATOM      2  C   LIG d   1      -1.963  75.575 116.357  0.00  0.00     0.016 C 
ATOM      3  C   LIG d   1      -1.336  76.455 117.270  0.00  0.00     0.038 C 
ATOM      4  C   LIG d   1      -0.936  77.747 116.898  0.00  0.00     0.028 C 
ATOM      5  C   LIG d   1      -0.598  77.874 115.416  0.00  0.00    -0.047 C 
ATOM      6  C   LIG d   1      -1.770  77.304 114.584  0.00  0.00     0.091 C 
ENDROOT
BRANCH   1   7
ATOM      7  O   LIG d   1      -3.428  75.500 114.548  0.00  0.00    -0.368 OA
BRANCH   7   8
ATOM      8  C   LIG d   1      -4.455  75.489 115.570  0.00  0.00     0.119 C 
BRANCH   8   9
ATOM      9  C   LIG d   1      -5.395  74.306 115.269  0.00  0.00     0.028 C 
ATOM     10  C   LIG d   1      -6.602  74.258 116.221  0.00  0.00     0.006 C 
ENDBRANCH   8   9
BRANCH   8  11
ATOM     11  C   LIG d   1      -5.336  76.739 115.488  0.00  0.00     0.028 C 
ATOM     12  C   LIG d   1      -4.968  77.797 116.540  0.00  0.00     0.006 C 
ENDBRANCH   8  11
ENDBRANCH   7   8
ENDBRANCH   1   7
BRANCH   6  13
ATOM     13  N   LIG d   1      -1.485  77.312 113.125  0.00  0.00    -0.311 N 
ATOM     14  C   LIG d   1      -2.281  77.888 112.226  0.00  0.00     0.210 C 
ATOM     15  C   LIG d   1      -1.813  77.764 110.773  0.00  0.00     0.109 C 
ATOM     16  O   LIG d   1      -3.315  78.518 112.497  0.00  0.00    -0.276 OA
ATOM     17  H   LIG d   1      -0.651  76.850 112.821  0.00  0.00     0.149 HD
ENDBRANCH   6  13
BRANCH   5  18
ATOM     18  N   LIG d   1      -0.332  79.298 115.140  0.00  0.00     0.381 N 
ATOM     19  H   LIG d   1       0.292  79.666 115.830  0.00  0.00    -0.090 HD
ATOM     20  H   LIG d   1      -1.197  79.807 115.193  0.00  0.00    -0.090 HD
ATOM     21  H   LIG d   1       0.067  79.401 114.233  0.00  0.00    -0.090 HD
ENDBRANCH   5  18
BRANCH   3  22
ATOM     22  C   LIG d   1      -1.068  76.029 118.562  0.00  0.00     0.382 C 
ATOM     23  O   LIG d   1      -0.040  76.435 119.155  0.00  0.00    -0.241 OA
ATOM     24  O   LIG d   1      -1.817  75.208 119.125  0.00  0.00    -0.241 OA
ENDBRANCH   3  22
TORSDOF 7
ENDMDL
MODEL 4
REMARK VINA RESULT:      -5.3      1.885      2.402
REMARK  7 active torsions:
REMARK  status: ('A' for Active; 'I' for Inactive)
REMARK    1  A    between atoms: C_2  and  C_3 
REMARK    2  A    between atoms: C_3  and  O_6 
REMARK    3  A    between atoms: C_3  and  C_4 
REMARK    4  A    between atoms: C_7  and  O_6 
REMARK    5  A    between atoms: C_9  and  C_10 
REMARK    6  A    between atoms: N_15  and  C_14 
REMARK    7  A    between atoms: N_20  and  C_19 
REMARK       I    between atoms: C_22  and  N_20 
ROOT
ATOM      1  C   LIG d   1      -3.298  76.933 115.007  0.00  0.00     0.161 C 
ATOM      2  C   LIG d   1      -3.231  77.182 113.626  0.00  0.00     0.016 C 
ATOM      3  C   LIG d   1      -2.228  77.979 113.027  0.00  0.00     0.038 C 
ATOM      4  C   LIG d   1      -1.130  78.460 113.756  0.00  0.00     0.028 C 
ATOM      5  C   LIG d   1      -1.426  78.656 115.239  0.00  0.00    -0.047 C 
ATOM      6  C   LIG d   1      -2.046  77.357 115.802  0.00  0.00     0.091 C 
ENDROOT
BRANCH   1   7
ATOM      7  O   LIG d   1      -3.590  75.540 115.238  0.00  0.00    -0.368 OA
BRANCH   7   8
ATOM      8  C   LIG d   1      -4.922  75.241 115.723  0.00  0.00     0.119 C 
BRANCH   8   9
ATOM      9  C   LIG d   1      -5.721  74.648 114.545  0.00  0.00     0.028 C 
ATOM     10  C   LIG d   1      -6.646  75.684 113.883  0.00  0.00     0.006 C 
ENDBRANCH   8   9
BRANCH   8  11
ATOM     11  C   LIG d   1      -5.671  76.516 116.119  0.00  0.00     0.028 C 
ATOM     12  C   LIG d   1      -6.010  76.567 117.618  0.00  0.00     0.006 C 
ENDBRANCH   8  11
ENDBRANCH   7   8
ENDBRANCH   1   7
BRANCH   6  13
ATOM     13  N   LIG d   1      -2.443  77.491 117.228  0.00  0.00    -0.311 N 
ATOM     14  C   LIG d   1      -2.090  76.621 118.173  0.00  0.00     0.210 C 
ATOM     15  C   LIG d   1      -2.622  76.935 119.574  0.00  0.00     0.109 C 
ATOM     16  O   LIG d   1      -1.359  75.635 117.989  0.00  0.00    -0.276 OA
ATOM     17  H   LIG d   1      -3.011  78.279 117.472  0.00  0.00     0.149 HD
ENDBRANCH   6  13
BRANCH   5  18
ATOM     18  N   LIG d   1      -0.161  79.027 115.900  0.00  0.00     0.381 N 
ATOM     19  H   LIG d   1       0.360  78.202 116.123  0.00  0.00    -0.090 HD
ATOM     20  H   LIG d   1      -0.371  79.508 116.757  0.00  0.00    -0.090 HD
ATOM     21  H   LIG d   1       0.376  79.617 115.303  0.00  0.00    -0.090 HD
ENDBRANCH   5  18
BRANCH   3  22
ATOM     22  C   LIG d   1      -2.340  78.336 111.692  0.00  0.00     0.382 C 
ATOM     23  O   LIG d   1      -3.152  77.734 110.948  0.00  0.00    -0.241 OA
ATOM     24  O   LIG d   1      -1.609  79.222 111.211  0.00  0.00    -0.241 OA
ENDBRANCH   3  22
TORSDOF 7
ENDMDL
MODEL 5
REMARK VINA RESULT:      -4.9      2.974      5.350
REMARK  7 active torsions:
REMARK  status: ('A' for Active; 'I' for Inactive)
REMARK    1  A    between atoms: C_2  and  C_3 
REMARK    2  A    between atoms: C_3  and  O_6 
REMARK    3  A    between atoms: C_3  and  C_4 
REMARK    4  A    between atoms: C_7  and  O_6 
REMARK    5  A    between atoms: C_9  and  C_10 
REMARK    6  A    between atoms: N_15  and  C_14 
REMARK    7  A    between atoms: N_20  and  C_19 
REMARK       I    between atoms: C_22  and  N_20 
ROOT
ATOM      1  C   LIG d   1      -1.964  77.161 114.324  0.00  0.00     0.161 C 
ATOM      2  C   LIG d   1      -1.066  77.976 115.033  0.00  0.00     0.016 C 
ATOM      3  C   LIG d   1      -0.667  77.718 116.365  0.00  0.00     0.038 C 
ATOM      4  C   LIG d   1      -1.024  76.535 117.030  0.00  0.00     0.028 C 
ATOM      5  C   LIG d   1      -2.334  75.933 116.534  0.00  0.00    -0.047 C 
ATOM      6  C   LIG d   1      -2.277  75.807 114.994  0.00  0.00     0.091 C 
ENDROOT
BRANCH   1   7
ATOM      7  O   LIG d   1      -1.481  76.955 112.981  0.00  0.00    -0.368 OA
BRANCH   7   8
ATOM      8  C   LIG d   1      -1.587  78.088 112.085  0.00  0.00     0.119 C 
BRANCH   8   9
ATOM      9  C   LIG d   1      -2.977  78.718 112.298  0.00  0.00     0.028 C 
ATOM     10  C   LIG d   1      -2.893  80.189 112.738  0.00  0.00     0.006 C 
ENDBRANCH   8   9
BRANCH   8  11
ATOM     11  C   LIG d   1      -1.563  77.644 110.620  0.00  0.00     0.028 C 
ATOM     12  C   LIG d   1      -0.734  78.580 109.726  0.00  0.00     0.006 C 
ENDBRANCH   8  11
ENDBRANCH   7   8
ENDBRANCH   1   7
BRANCH   6  13
ATOM     13  N   LIG d   1      -3.552  75.304 114.419  0.00  0.00    -0.311 N 
ATOM     14  C   LIG d   1      -4.703  75.969 114.496  0.00  0.00     0.210 C 
ATOM     15  C   LIG d   1      -5.902  75.262 113.854  0.00  0.00     0.109 C 
ATOM     16  O   LIG d   1      -4.839  77.091 115.006  0.00  0.00    -0.276 OA
ATOM     17  H   LIG d   1      -3.525  74.415 113.960  0.00  0.00     0.149 HD
ENDBRANCH   6  13
BRANCH   5  18
ATOM     18  N   LIG d   1      -2.515  74.637 117.214  0.00  0.00     0.381 N 
ATOM     19  H   LIG d   1      -2.183  73.897 116.628  0.00  0.00    -0.090 HD
ATOM     20  H   LIG d   1      -3.495  74.491 117.382  0.00  0.00    -0.090 HD
ATOM     21  H   LIG d   1      -2.018  74.633 118.078  0.00  0.00    -0.090 HD
ENDBRANCH   5  18
BRANCH   3  22
ATOM     22  C   LIG d   1       0.066  78.668 117.059  0.00  0.00     0.382 C 
ATOM     23  O   LIG d   1       0.440  78.437 118.234  0.00  0.00    -0.241 OA
ATOM     24  O   LIG d   1       0.321  79.772 116.540  0.00  0.00    -0.241 OA
ENDBRANCH   3  22
TORSDOF 7
ENDMDL
MODEL 6
REMARK VINA RESULT:      -4.8      1.628      1.941
REMARK  7 active torsions:
REMARK  status: ('A' for Active; 'I' for Inactive)
REMARK    1  A    between atoms: C_2  and  C_3 
REMARK    2  A    between atoms: C_3  and  O_6 
REMARK    3  A    between atoms: C_3  and  C_4 
REMARK    4  A    between atoms: C_7  and  O_6 
REMARK    5  A    between atoms: C_9  and  C_10 
REMARK    6  A    between atoms: N_15  and  C_14 
REMARK    7  A    between atoms: N_20  and  C_19 
REMARK       I    between atoms: C_22  and  N_20 
ROOT
ATOM      1  C   LIG d   1      -2.315  78.585 116.012  0.00  0.00     0.161 C 
ATOM      2  C   LIG d   1      -2.827  78.852 114.732  0.00  0.00     0.016 C 
ATOM      3  C   LIG d   1      -2.538  78.059 113.597  0.00  0.00     0.038 C 
ATOM      4  C   LIG d   1      -1.834  76.850 113.698  0.00  0.00     0.028 C 
ATOM      5  C   LIG d   1      -0.872  76.806 114.880  0.00  0.00    -0.047 C 
ATOM      6  C   LIG d   1      -1.636  77.208 116.163  0.00  0.00     0.091 C 
ENDROOT
BRANCH   1   7
ATOM      7  O   LIG d   1      -3.356  78.740 116.997  0.00  0.00    -0.368 OA
BRANCH   7   8
ATOM      8  C   LIG d   1      -4.184  77.576 117.239  0.00  0.00     0.119 C 
BRANCH   8   9
ATOM      9  C   LIG d   1      -5.567  77.854 116.619  0.00  0.00     0.028 C 
ATOM     10  C   LIG d   1      -6.714  77.632 117.620  0.00  0.00     0.006 C 
ENDBRANCH   8   9
BRANCH   8  11
ATOM     11  C   LIG d   1      -4.442  77.376 118.735  0.00  0.00     0.028 C 
ATOM     12  C   LIG d   1      -3.661  78.368 119.612  0.00  0.00     0.006 C 
ENDBRANCH   8  11
ENDBRANCH   7   8
ENDBRANCH   1   7
BRANCH   6  13
ATOM     13  N   LIG d   1      -0.749  77.272 117.354  0.00  0.00    -0.311 N 
ATOM     14  C   LIG d   1      -0.811  76.403 118.362  0.00  0.00     0.210 C 
ATOM     15  C   LIG d   1       0.180  76.662 119.501  0.00  0.00     0.109 C 
ATOM     16  O   LIG d   1      -1.572  75.424 118.406  0.00  0.00    -0.276 OA
ATOM     17  H   LIG d   1      -0.080  78.016 117.386  0.00  0.00     0.149 HD
ENDBRANCH   6  13
BRANCH   5  18
ATOM     18  N   LIG d   1      -0.309  75.444 114.946  0.00  0.00     0.381 N 
ATOM     19  H   LIG d   1       0.690  75.492 114.978  0.00  0.00    -0.090 HD
ATOM     20  H   LIG d   1      -0.574  74.942 114.117  0.00  0.00    -0.090 HD
ATOM     21  H   LIG d   1      -0.652  74.971 115.753  0.00  0.00    -0.090 HD
ENDBRANCH   5  18
BRANCH   3  22
ATOM     22  C   LIG d   1      -2.922  78.495 112.338  0.00  0.00     0.382 C 
ATOM     23  O   LIG d   1      -3.856  77.917 111.732  0.00  0.00    -0.241 OA
ATOM     24  O   LIG d   1      -2.316  79.432 111.783  0.00  0.00    -0.241 OA
ENDBRANCH   3  22
TORSDOF 7
ENDMDL
MODEL 7
REMARK VINA RESULT:      -4.7      2.677      3.876
REMARK  7 active torsions:
REMARK  status: ('A' for Active; 'I' for Inactive)
REMARK    1  A    between atoms: C_2  and  C_3 
REMARK    2  A    between atoms: C_3  and  O_6 
REMARK    3  A    between atoms: C_3  and  C_4 
REMARK    4  A    between atoms: C_7  and  O_6 
REMARK    5  A    between atoms: C_9  and  C_10 
REMARK    6  A    between atoms: N_15  and  C_14 
REMARK    7  A    between atoms: N_20  and  C_19 
REMARK       I    between atoms: C_22  and  N_20 
ROOT
ATOM      1  C   LIG d   1      -3.849  78.171 116.959  0.00  0.00     0.161 C 
ATOM      2  C   LIG d   1      -2.913  78.982 117.623  0.00  0.00     0.016 C 
ATOM      3  C   LIG d   1      -1.553  79.068 117.246  0.00  0.00     0.038 C 
ATOM      4  C   LIG d   1      -1.067  78.462 116.078  0.00  0.00     0.028 C 
ATOM      5  C   LIG d   1      -1.860  77.227 115.662  0.00  0.00    -0.047 C 
ATOM      6  C   LIG d   1      -3.363  77.588 115.616  0.00  0.00     0.091 C 
ENDROOT
BRANCH   1   7
ATOM      7  O   LIG d   1      -5.080  78.897 116.774  0.00  0.00    -0.368 OA
BRANCH   7   8
ATOM      8  C   LIG d   1      -6.268  78.294 117.343  0.00  0.00     0.119 C 
BRANCH   8   9
ATOM      9  C   LIG d   1      -7.000  79.385 118.149  0.00  0.00     0.028 C 
ATOM     10  C   LIG d   1      -6.650  80.803 117.669  0.00  0.00     0.006 C 
ENDBRANCH   8   9
BRANCH   8  11
ATOM     11  C   LIG d   1      -5.908  77.209 118.363  0.00  0.00     0.028 C 
ATOM     12  C   LIG d   1      -6.266  77.604 119.804  0.00  0.00     0.006 C 
ENDBRANCH   8  11
ENDBRANCH   7   8
ENDBRANCH   1   7
BRANCH   6  13
ATOM     13  N   LIG d   1      -4.218  76.414 115.299  0.00  0.00    -0.311 N 
ATOM     14  C   LIG d   1      -4.588  76.090 114.061  0.00  0.00     0.210 C 
ATOM     15  C   LIG d   1      -5.487  74.854 113.958  0.00  0.00     0.109 C 
ATOM     16  O   LIG d   1      -4.232  76.691 113.036  0.00  0.00    -0.276 OA
ATOM     17  H   LIG d   1      -4.527  75.854 116.069  0.00  0.00     0.149 HD
ENDBRANCH   6  13
BRANCH   5  18
ATOM     18  N   LIG d   1      -1.333  76.777 114.360  0.00  0.00     0.381 N 
ATOM     19  H   LIG d   1      -0.421  76.385 114.481  0.00  0.00    -0.090 HD
ATOM     20  H   LIG d   1      -1.256  77.571 113.748  0.00  0.00    -0.090 HD
ATOM     21  H   LIG d   1      -1.944  76.099 113.960  0.00  0.00    -0.090 HD
ENDBRANCH   5  18
BRANCH   3  22
ATOM     22  C   LIG d   1      -0.655  79.737 118.064  0.00  0.00     0.382 C 
ATOM     23  O   LIG d   1      -0.431  79.316 119.224  0.00  0.00    -0.241 OA
ATOM     24  O   LIG d   1      -0.099  80.780 117.671  0.00  0.00    -0.241 OA
ENDBRANCH   3  22
TORSDOF 7
ENDMDL
MODEL 8
REMARK VINA RESULT:      -4.6      3.727      5.208
REMARK  7 active torsions:
REMARK  status: ('A' for Active; 'I' for Inactive)
REMARK    1  A    between atoms: C_2  and  C_3 
REMARK    2  A    between atoms: C_3  and  O_6 
REMARK    3  A    between atoms: C_3  and  C_4 
REMARK    4  A    between atoms: C_7  and  O_6 
REMARK    5  A    between atoms: C_9  and  C_10 
REMARK    6  A    between atoms: N_15  and  C_14 
REMARK    7  A    between atoms: N_20  and  C_19 
REMARK       I    between atoms: C_22  and  N_20 
ROOT
ATOM      1  C   LIG d   1      -5.837  77.203 118.419  0.00  0.00     0.161 C 
ATOM      2  C   LIG d   1      -6.919  78.051 118.130  0.00  0.00     0.016 C 
ATOM      3  C   LIG d   1      -6.818  79.461 118.107  0.00  0.00     0.038 C 
ATOM      4  C   LIG d   1      -5.584  80.118 118.224  0.00  0.00     0.028 C 
ATOM      5  C   LIG d   1      -4.550  79.327 119.019  0.00  0.00    -0.047 C 
ATOM      6  C   LIG d   1      -4.459  77.897 118.440  0.00  0.00     0.091 C 
ENDROOT
BRANCH   1   7
ATOM      7  O   LIG d   1      -5.826  76.094 117.498  0.00  0.00    -0.368 OA
BRANCH   7   8
ATOM      8  C   LIG d   1      -6.239  76.389 116.141  0.00  0.00     0.119 C 
BRANCH   8   9
ATOM      9  C   LIG d   1      -7.271  75.321 115.728  0.00  0.00     0.028 C 
ATOM     10  C   LIG d   1      -7.377  74.181 116.755  0.00  0.00     0.006 C 
ENDBRANCH   8   9
BRANCH   8  11
ATOM     11  C   LIG d   1      -5.075  76.230 115.158  0.00  0.00     0.028 C 
ATOM     12  C   LIG d   1      -5.433  75.350 113.949  0.00  0.00     0.006 C 
ENDBRANCH   8  11
ENDBRANCH   7   8
ENDBRANCH   1   7
BRANCH   6  13
ATOM     13  N   LIG d   1      -3.531  77.030 119.212  0.00  0.00    -0.311 N 
ATOM     14  C   LIG d   1      -2.522  76.360 118.659  0.00  0.00     0.210 C 
ATOM     15  C   LIG d   1      -1.699  75.509 119.632  0.00  0.00     0.109 C 
ATOM     16  O   LIG d   1      -2.210  76.414 117.459  0.00  0.00    -0.276 OA
ATOM     17  H   LIG d   1      -3.692  76.954 120.197  0.00  0.00     0.149 HD
ENDBRANCH   6  13
BRANCH   5  18
ATOM     18  N   LIG d   1      -3.273  80.063 118.945  0.00  0.00     0.381 N 
ATOM     19  H   LIG d   1      -2.939  80.067 118.002  0.00  0.00    -0.090 HD
ATOM     20  H   LIG d   1      -2.594  79.593 119.518  0.00  0.00    -0.090 HD
ATOM     21  H   LIG d   1      -3.399  80.998 119.265  0.00  0.00    -0.090 HD
ENDBRANCH   5  18
BRANCH   3  22
ATOM     22  C   LIG d   1      -7.966  80.231 118.006  0.00  0.00     0.382 C 
ATOM     23  O   LIG d   1      -9.007  79.888 118.616  0.00  0.00    -0.241 OA
ATOM     24  O   LIG d   1      -7.988  81.240 117.276  0.00  0.00    -0.241 OA
ENDBRANCH   3  22
TORSDOF 7
ENDMDL
MODEL 9
REMARK VINA RESULT:      -4.6      2.937      5.465
REMARK  7 active torsions:
REMARK  status: ('A' for Active; 'I' for Inactive)
REMARK    1  A    between atoms: C_2  and  C_3 
REMARK    2  A    between atoms: C_3  and  O_6 
REMARK    3  A    between atoms: C_3  and  C_4 
REMARK    4  A    between atoms: C_7  and  O_6 
REMARK    5  A    between atoms: C_9  and  C_10 
REMARK    6  A    between atoms: N_15  and  C_14 
REMARK    7  A    between atoms: N_20  and  C_19 
REMARK       I    between atoms: C_22  and  N_20 
ROOT
ATOM      1  C   LIG d   1      -4.902  77.903 117.065  0.00  0.00     0.161 C 
ATOM      2  C   LIG d   1      -6.252  78.285 117.138  0.00  0.00     0.016 C 
ATOM      3  C   LIG d   1      -6.715  79.360 117.931  0.00  0.00     0.038 C 
ATOM      4  C   LIG d   1      -5.832  80.227 118.592  0.00  0.00     0.028 C 
ATOM      5  C   LIG d   1      -4.501  79.577 118.954  0.00  0.00    -0.047 C 
ATOM      6  C   LIG d   1      -3.911  78.907 117.692  0.00  0.00     0.091 C 
ENDROOT
BRANCH   1   7
ATOM      7  O   LIG d   1      -4.543  77.635 115.696  0.00  0.00    -0.368 OA
BRANCH   7   8
ATOM      8  C   LIG d   1      -4.242  76.254 115.374  0.00  0.00     0.119 C 
BRANCH   8   9
ATOM      9  C   LIG d   1      -2.780  76.200 114.889  0.00  0.00     0.028 C 
ATOM     10  C   LIG d   1      -1.964  75.110 115.604  0.00  0.00     0.006 C 
ENDBRANCH   8   9
BRANCH   8  11
ATOM     11  C   LIG d   1      -5.080  75.762 114.191  0.00  0.00     0.028 C 
ATOM     12  C   LIG d   1      -6.577  75.660 114.524  0.00  0.00     0.006 C 
ENDBRANCH   8  11
ENDBRANCH   7   8
ENDBRANCH   1   7
BRANCH   6  13
ATOM     13  N   LIG d   1      -2.649  78.175 117.977  0.00  0.00    -0.311 N 
ATOM     14  C   LIG d   1      -1.470  78.518 117.462  0.00  0.00     0.210 C 
ATOM     15  C   LIG d   1      -0.300  77.618 117.868  0.00  0.00     0.109 C 
ATOM     16  O   LIG d   1      -1.277  79.502 116.732  0.00  0.00    -0.276 OA
ATOM     17  H   LIG d   1      -2.710  77.381 118.585  0.00  0.00     0.149 HD
ENDBRANCH   6  13
BRANCH   5  18
ATOM     18  N   LIG d   1      -3.629  80.628 119.512  0.00  0.00     0.381 N 
ATOM     19  H   LIG d   1      -4.006  80.956 120.378  0.00  0.00    -0.090 HD
ATOM     20  H   LIG d   1      -3.598  81.399 118.869  0.00  0.00    -0.090 HD
ATOM     21  H   LIG d   1      -2.711  80.268 119.656  0.00  0.00    -0.090 HD
ENDBRANCH   5  18
BRANCH   3  22
ATOM     22  C   LIG d   1      -8.078  79.552 118.100  0.00  0.00     0.382 C 
ATOM     23  O   LIG d   1      -8.771  78.668 118.658  0.00  0.00    -0.241 OA
ATOM     24  O   LIG d   1      -8.630  80.579 117.663  0.00  0.00    -0.241 OA
ENDBRANCH   3  22
TORSDOF 7
ENDMDL
