MODEL 1
REMARK VINA RESULT:      -5.0      0.000      0.000
REMARK  7 active torsions:
REMARK  status: ('A' for Active; 'I' for Inactive)
REMARK    1  A    between atoms: C_2  and  C_3 
REMARK    2  A    between atoms: C_3  and  O_6 
REMARK    3  A    between atoms: C_3  and  C_4 
REMARK    4  A    between atoms: C_7  and  O_6 
REMARK    5  A    between atoms: C_9  and  C_10 
REMARK    6  A    between atoms: N_15  and  C_14 
REMARK    7  A    between atoms: N_20  and  C_19 
REMARK       I    between atoms: C_22  and  N_20 
ROOT
ATOM      1  C   LIG d   1      -2.126  80.204 114.502  0.00  0.00     0.161 C 
ATOM      2  C   LIG d   1      -1.637  81.283 113.749  0.00  0.00     0.016 C 
ATOM      3  C   LIG d   1      -1.178  81.158 112.417  0.00  0.00     0.038 C 
ATOM      4  C   LIG d   1      -1.318  79.965 111.694  0.00  0.00     0.028 C 
ATOM      5  C   LIG d   1      -1.340  78.721 112.575  0.00  0.00    -0.047 C 
ATOM      6  C   LIG d   1      -2.390  78.917 113.693  0.00  0.00     0.091 C 
ENDROOT
BRANCH   1   7
ATOM      7  O   LIG d   1      -3.316  80.602 115.212  0.00  0.00    -0.368 OA
BRANCH   7   8
ATOM      8  C   LIG d   1      -3.431  80.131 116.577  0.00  0.00     0.119 C 
BRANCH   8   9
ATOM      9  C   LIG d   1      -4.428  81.056 117.303  0.00  0.00     0.028 C 
ATOM     10  C   LIG d   1      -5.668  80.300 117.809  0.00  0.00     0.006 C 
ENDBRANCH   8   9
BRANCH   8  11
ATOM     11  C   LIG d   1      -2.109  80.286 117.334  0.00  0.00     0.028 C 
ATOM     12  C   LIG d   1      -2.082  81.529 118.238  0.00  0.00     0.006 C 
ENDBRANCH   8  11
ENDBRANCH   7   8
ENDBRANCH   1   7
BRANCH   6  13
ATOM     13  N   LIG d   1      -2.418  77.781 114.651  0.00  0.00    -0.311 N 
ATOM     14  C   LIG d   1      -3.320  76.803 114.602  0.00  0.00     0.210 C 
ATOM     15  C   LIG d   1      -3.181  75.739 115.696  0.00  0.00     0.109 C 
ATOM     16  O   LIG d   1      -4.203  76.697 113.738  0.00  0.00    -0.276 OA
ATOM     17  H   LIG d   1      -1.717  77.770 115.366  0.00  0.00     0.149 HD
ENDBRANCH   6  13
BRANCH   5  18
ATOM     18  N   LIG d   1      -1.629  77.564 111.707  0.00  0.00     0.381 N 
ATOM     19  H   LIG d   1      -1.902  77.882 110.798  0.00  0.00    -0.090 HD
ATOM     20  H   LIG d   1      -2.394  77.045 112.101  0.00  0.00    -0.090 HD
ATOM     21  H   LIG d   1      -0.824  76.982 111.635  0.00  0.00    -0.090 HD
ENDBRANCH   5  18
BRANCH   3  22
ATOM     22  C   LIG d   1      -0.533  82.225 111.810  0.00  0.00     0.382 C 
ATOM     23  O   LIG d   1      -0.956  83.394 111.982  0.00  0.00    -0.241 OA
ATOM     24  O   LIG d   1       0.439  82.030 111.055  0.00  0.00    -0.241 OA
ENDBRANCH   3  22
TORSDOF 7
ENDMDL
MODEL 2
REMARK VINA RESULT:      -5.0      4.593      7.959
REMARK  7 active torsions:
REMARK  status: ('A' for Active; 'I' for Inactive)
REMARK    1  A    between atoms: C_2  and  C_3 
REMARK    2  A    between atoms: C_3  and  O_6 
REMARK    3  A    between atoms: C_3  and  C_4 
REMARK    4  A    between atoms: C_7  and  O_6 
REMARK    5  A    between atoms: C_9  and  C_10 
REMARK    6  A    between atoms: N_15  and  C_14 
REMARK    7  A    between atoms: N_20  and  C_19 
REMARK       I    between atoms: C_22  and  N_20 
ROOT
ATOM      1  C   LIG d   1      -7.095  77.277 117.900  0.00  0.00     0.161 C 
ATOM      2  C   LIG d   1      -8.234  77.979 118.328  0.00  0.00     0.016 C 
ATOM      3  C   LIG d   1      -8.257  79.380 118.523  0.00  0.00     0.038 C 
ATOM      4  C   LIG d   1      -7.178  80.197 118.156  0.00  0.00     0.028 C 
ATOM      5  C   LIG d   1      -5.833  79.479 118.195  0.00  0.00    -0.047 C 
ATOM      6  C   LIG d   1      -5.942  78.165 117.388  0.00  0.00     0.091 C 
ENDROOT
BRANCH   1   7
ATOM      7  O   LIG d   1      -7.466  76.310 116.897  0.00  0.00    -0.368 OA
BRANCH   7   8
ATOM      8  C   LIG d   1      -7.592  74.939 117.350  0.00  0.00     0.119 C 
BRANCH   8   9
ATOM      9  C   LIG d   1      -6.328  74.184 116.895  0.00  0.00     0.028 C 
ATOM     10  C   LIG d   1      -5.983  74.452 115.420  0.00  0.00     0.006 C 
ENDBRANCH   8   9
BRANCH   8  11
ATOM     11  C   LIG d   1      -8.759  74.229 116.658  0.00  0.00     0.028 C 
ATOM     12  C   LIG d   1      -9.938  75.170 116.362  0.00  0.00     0.006 C 
ENDBRANCH   8  11
ENDBRANCH   7   8
ENDBRANCH   1   7
BRANCH   6  13
ATOM     13  N   LIG d   1      -4.695  77.359 117.445  0.00  0.00    -0.311 N 
ATOM     14  C   LIG d   1      -3.737  77.424 116.521  0.00  0.00     0.210 C 
ATOM     15  C   LIG d   1      -2.544  76.494 116.761  0.00  0.00     0.109 C 
ATOM     16  O   LIG d   1      -3.749  78.186 115.543  0.00  0.00    -0.276 OA
ATOM     17  H   LIG d   1      -4.589  76.737 118.222  0.00  0.00     0.149 HD
ENDBRANCH   6  13
BRANCH   5  18
ATOM     18  N   LIG d   1      -4.818  80.404 117.658  0.00  0.00     0.381 N 
ATOM     19  H   LIG d   1      -5.005  81.334 117.976  0.00  0.00    -0.090 HD
ATOM     20  H   LIG d   1      -4.870  80.398 116.654  0.00  0.00    -0.090 HD
ATOM     21  H   LIG d   1      -3.909  80.121 117.952  0.00  0.00    -0.090 HD
ENDBRANCH   5  18
BRANCH   3  22
ATOM     22  C   LIG d   1      -9.355  79.971 119.129  0.00  0.00     0.382 C 
ATOM     23  O   LIG d   1      -9.617  81.178 118.910  0.00  0.00    -0.241 OA
ATOM     24  O   LIG d   1     -10.060  79.325 119.927  0.00  0.00    -0.241 OA
ENDBRANCH   3  22
TORSDOF 7
ENDMDL
MODEL 3
REMARK VINA RESULT:      -4.9      4.422      7.859
REMARK  7 active torsions:
REMARK  status: ('A' for Active; 'I' for Inactive)
REMARK    1  A    between atoms: C_2  and  C_3 
REMARK    2  A    between atoms: C_3  and  O_6 
REMARK    3  A    between atoms: C_3  and  C_4 
REMARK    4  A    between atoms: C_7  and  O_6 
REMARK    5  A    between atoms: C_9  and  C_10 
REMARK    6  A    between atoms: N_15  and  C_14 
REMARK    7  A    between atoms: N_20  and  C_19 
REMARK       I    between atoms: C_22  and  N_20 
ROOT
ATOM      1  C   LIG d   1      -6.542  77.143 118.252  0.00  0.00     0.161 C 
ATOM      2  C   LIG d   1      -7.811  77.595 118.652  0.00  0.00     0.016 C 
ATOM      3  C   LIG d   1      -8.184  78.959 118.657  0.00  0.00     0.038 C 
ATOM      4  C   LIG d   1      -7.359  79.956 118.115  0.00  0.00     0.028 C 
ATOM      5  C   LIG d   1      -5.875  79.608 118.167  0.00  0.00    -0.047 C 
ATOM      6  C   LIG d   1      -5.667  78.204 117.554  0.00  0.00     0.091 C 
ENDROOT
BRANCH   1   7
ATOM      7  O   LIG d   1      -6.681  75.978 117.415  0.00  0.00    -0.368 OA
BRANCH   7   8
ATOM      8  C   LIG d   1      -7.768  76.006 116.458  0.00  0.00     0.119 C 
BRANCH   8   9
ATOM      9  C   LIG d   1      -8.555  74.690 116.612  0.00  0.00     0.028 C 
ATOM     10  C   LIG d   1     -10.057  74.869 116.337  0.00  0.00     0.006 C 
ENDBRANCH   8   9
BRANCH   8  11
ATOM     11  C   LIG d   1      -7.244  75.999 115.019  0.00  0.00     0.028 C 
ATOM     12  C   LIG d   1      -5.955  75.178 114.858  0.00  0.00     0.006 C 
ENDBRANCH   8  11
ENDBRANCH   7   8
ENDBRANCH   1   7
BRANCH   6  13
ATOM     13  N   LIG d   1      -4.255  77.751 117.641  0.00  0.00    -0.311 N 
ATOM     14  C   LIG d   1      -3.381  77.877 116.644  0.00  0.00     0.210 C 
ATOM     15  C   LIG d   1      -1.982  77.326 116.936  0.00  0.00     0.109 C 
ATOM     16  O   LIG d   1      -3.623  78.421 115.556  0.00  0.00    -0.276 OA
ATOM     17  H   LIG d   1      -3.964  77.326 118.500  0.00  0.00     0.149 HD
ENDBRANCH   6  13
BRANCH   5  18
ATOM     18  N   LIG d   1      -5.143  80.667 117.448  0.00  0.00     0.381 N 
ATOM     19  H   LIG d   1      -5.749  81.446 117.284  0.00  0.00    -0.090 HD
ATOM     20  H   LIG d   1      -4.843  80.309 116.559  0.00  0.00    -0.090 HD
ATOM     21  H   LIG d   1      -4.353  80.958 117.981  0.00  0.00    -0.090 HD
ENDBRANCH   5  18
BRANCH   3  22
ATOM     22  C   LIG d   1      -9.380  79.342 119.245  0.00  0.00     0.382 C 
ATOM     23  O   LIG d   1     -10.049  78.510 119.905  0.00  0.00    -0.241 OA
ATOM     24  O   LIG d   1      -9.821  80.496 119.086  0.00  0.00    -0.241 OA
ENDBRANCH   3  22
TORSDOF 7
ENDMDL
MODEL 4
REMARK VINA RESULT:      -4.9      4.363      6.441
REMARK  7 active torsions:
REMARK  status: ('A' for Active; 'I' for Inactive)
REMARK    1  A    between atoms: C_2  and  C_3 
REMARK    2  A    between atoms: C_3  and  O_6 
REMARK    3  A    between atoms: C_3  and  C_4 
REMARK    4  A    between atoms: C_7  and  O_6 
REMARK    5  A    between atoms: C_9  and  C_10 
REMARK    6  A    between atoms: N_15  and  C_14 
REMARK    7  A    between atoms: N_20  and  C_19 
REMARK       I    between atoms: C_22  and  N_20 
ROOT
ATOM      1  C   LIG d   1      -5.569  77.253 117.291  0.00  0.00     0.161 C 
ATOM      2  C   LIG d   1      -6.290  78.405 117.649  0.00  0.00     0.016 C 
ATOM      3  C   LIG d   1      -5.716  79.696 117.705  0.00  0.00     0.038 C 
ATOM      4  C   LIG d   1      -4.411  79.947 117.258  0.00  0.00     0.028 C 
ATOM      5  C   LIG d   1      -3.490  78.737 117.366  0.00  0.00    -0.047 C 
ATOM      6  C   LIG d   1      -4.173  77.525 116.692  0.00  0.00     0.091 C 
ENDROOT
BRANCH   1   7
ATOM      7  O   LIG d   1      -6.352  76.447 116.389  0.00  0.00    -0.368 OA
BRANCH   7   8
ATOM      8  C   LIG d   1      -6.557  75.067 116.781  0.00  0.00     0.119 C 
BRANCH   8   9
ATOM      9  C   LIG d   1      -6.114  74.180 115.601  0.00  0.00     0.028 C 
ATOM     10  C   LIG d   1      -5.759  75.002 114.350  0.00  0.00     0.006 C 
ENDBRANCH   8   9
BRANCH   8  11
ATOM     11  C   LIG d   1      -8.043  74.760 116.984  0.00  0.00     0.028 C 
ATOM     12  C   LIG d   1      -8.961  75.730 116.224  0.00  0.00     0.006 C 
ENDBRANCH   8  11
ENDBRANCH   7   8
ENDBRANCH   1   7
BRANCH   6  13
ATOM     13  N   LIG d   1      -3.376  76.278 116.827  0.00  0.00    -0.311 N 
ATOM     14  C   LIG d   1      -2.573  75.813 115.871  0.00  0.00     0.210 C 
ATOM     15  C   LIG d   1      -1.859  74.501 116.207  0.00  0.00     0.109 C 
ATOM     16  O   LIG d   1      -2.361  76.381 114.789  0.00  0.00    -0.276 OA
ATOM     17  H   LIG d   1      -3.464  75.770 117.686  0.00  0.00     0.149 HD
ENDBRANCH   6  13
BRANCH   5  18
ATOM     18  N   LIG d   1      -2.204  79.098 116.740  0.00  0.00     0.381 N 
ATOM     19  H   LIG d   1      -2.367  79.677 115.940  0.00  0.00    -0.090 HD
ATOM     20  H   LIG d   1      -1.745  78.258 116.433  0.00  0.00    -0.090 HD
ATOM     21  H   LIG d   1      -1.628  79.579 117.395  0.00  0.00    -0.090 HD
ENDBRANCH   5  18
BRANCH   3  22
ATOM     22  C   LIG d   1      -6.439  80.746 118.251  0.00  0.00     0.382 C 
ATOM     23  O   LIG d   1      -7.389  81.254 117.608  0.00  0.00    -0.241 OA
ATOM     24  O   LIG d   1      -6.125  81.220 119.360  0.00  0.00    -0.241 OA
ENDBRANCH   3  22
TORSDOF 7
ENDMDL
MODEL 5
REMARK VINA RESULT:      -4.7      1.880      2.607
REMARK  7 active torsions:
REMARK  status: ('A' for Active; 'I' for Inactive)
REMARK    1  A    between atoms: C_2  and  C_3 
REMARK    2  A    between atoms: C_3  and  O_6 
REMARK    3  A    between atoms: C_3  and  C_4 
REMARK    4  A    between atoms: C_7  and  O_6 
REMARK    5  A    between atoms: C_9  and  C_10 
REMARK    6  A    between atoms: N_15  and  C_14 
REMARK    7  A    between atoms: N_20  and  C_19 
REMARK       I    between atoms: C_22  and  N_20 
ROOT
ATOM      1  C   LIG d   1      -2.875  79.136 116.038  0.00  0.00     0.161 C 
ATOM      2  C   LIG d   1      -2.861  80.246 115.177  0.00  0.00     0.016 C 
ATOM      3  C   LIG d   1      -2.211  80.249 113.922  0.00  0.00     0.038 C 
ATOM      4  C   LIG d   1      -1.655  79.084 113.372  0.00  0.00     0.028 C 
ATOM      5  C   LIG d   1      -1.205  78.074 114.423  0.00  0.00    -0.047 C 
ATOM      6  C   LIG d   1      -2.369  77.822 115.408  0.00  0.00     0.091 C 
ENDROOT
BRANCH   1   7
ATOM      7  O   LIG d   1      -4.199  78.955 116.580  0.00  0.00    -0.368 OA
BRANCH   7   8
ATOM      8  C   LIG d   1      -4.487  79.666 117.809  0.00  0.00     0.119 C 
BRANCH   8   9
ATOM      9  C   LIG d   1      -4.516  78.629 118.948  0.00  0.00     0.028 C 
ATOM     10  C   LIG d   1      -5.050  77.263 118.485  0.00  0.00     0.006 C 
ENDBRANCH   8   9
BRANCH   8  11
ATOM     11  C   LIG d   1      -5.891  80.278 117.781  0.00  0.00     0.028 C 
ATOM     12  C   LIG d   1      -5.871  81.813 117.707  0.00  0.00     0.006 C 
ENDBRANCH   8  11
ENDBRANCH   7   8
ENDBRANCH   1   7
BRANCH   6  13
ATOM     13  N   LIG d   1      -1.986  76.910 116.516  0.00  0.00    -0.311 N 
ATOM     14  C   LIG d   1      -2.196  75.595 116.490  0.00  0.00     0.210 C 
ATOM     15  C   LIG d   1      -1.744  74.842 117.744  0.00  0.00     0.109 C 
ATOM     16  O   LIG d   1      -2.686  74.976 115.532  0.00  0.00    -0.276 OA
ATOM     17  H   LIG d   1      -1.555  77.323 117.320  0.00  0.00     0.149 HD
ENDBRANCH   6  13
BRANCH   5  18
ATOM     18  N   LIG d   1      -0.774  76.855 113.713  0.00  0.00     0.381 N 
ATOM     19  H   LIG d   1      -1.359  76.702 112.916  0.00  0.00    -0.090 HD
ATOM     20  H   LIG d   1      -0.870  76.068 114.330  0.00  0.00    -0.090 HD
ATOM     21  H   LIG d   1       0.175  76.946 113.424  0.00  0.00    -0.090 HD
ENDBRANCH   5  18
BRANCH   3  22
ATOM     22  C   LIG d   1      -2.077  81.437 113.220  0.00  0.00     0.382 C 
ATOM     23  O   LIG d   1      -0.937  81.920 113.016  0.00  0.00    -0.241 OA
ATOM     24  O   LIG d   1      -3.085  82.055 112.826  0.00  0.00    -0.241 OA
ENDBRANCH   3  22
TORSDOF 7
ENDMDL
MODEL 6
REMARK VINA RESULT:      -4.7      3.539      5.008
REMARK  7 active torsions:
REMARK  status: ('A' for Active; 'I' for Inactive)
REMARK    1  A    between atoms: C_2  and  C_3 
REMARK    2  A    between atoms: C_3  and  O_6 
REMARK    3  A    between atoms: C_3  and  C_4 
REMARK    4  A    between atoms: C_7  and  O_6 
REMARK    5  A    between atoms: C_9  and  C_10 
REMARK    6  A    between atoms: N_15  and  C_14 
REMARK    7  A    between atoms: N_20  and  C_19 
REMARK       I    between atoms: C_22  and  N_20 
ROOT
ATOM      1  C   LIG d   1      -3.401  76.187 115.749  0.00  0.00     0.161 C 
ATOM      2  C   LIG d   1      -3.556  76.839 114.515  0.00  0.00     0.016 C 
ATOM      3  C   LIG d   1      -2.500  77.498 113.844  0.00  0.00     0.038 C 
ATOM      4  C   LIG d   1      -1.173  77.419 114.294  0.00  0.00     0.028 C 
ATOM      5  C   LIG d   1      -1.056  77.200 115.798  0.00  0.00    -0.047 C 
ATOM      6  C   LIG d   1      -1.938  75.996 116.200  0.00  0.00     0.091 C 
ENDROOT
BRANCH   1   7
ATOM      7  O   LIG d   1      -4.087  74.920 115.722  0.00  0.00    -0.368 OA
BRANCH   7   8
ATOM      8  C   LIG d   1      -5.298  74.833 116.512  0.00  0.00     0.119 C 
BRANCH   8   9
ATOM      9  C   LIG d   1      -6.479  74.679 115.534  0.00  0.00     0.028 C 
ATOM     10  C   LIG d   1      -7.319  75.962 115.421  0.00  0.00     0.006 C 
ENDBRANCH   8   9
BRANCH   8  11
ATOM     11  C   LIG d   1      -5.565  76.139 117.267  0.00  0.00     0.028 C 
ATOM     12  C   LIG d   1      -5.548  75.959 118.794  0.00  0.00     0.006 C 
ENDBRANCH   8  11
ENDBRANCH   7   8
ENDBRANCH   1   7
BRANCH   6  13
ATOM     13  N   LIG d   1      -1.946  75.765 117.668  0.00  0.00    -0.311 N 
ATOM     14  C   LIG d   1      -1.161  74.876 118.275  0.00  0.00     0.210 C 
ATOM     15  C   LIG d   1      -1.343  74.782 119.793  0.00  0.00     0.109 C 
ATOM     16  O   LIG d   1      -0.308  74.180 117.704  0.00  0.00    -0.276 OA
ATOM     17  H   LIG d   1      -2.586  76.309 118.212  0.00  0.00     0.149 HD
ENDBRANCH   6  13
BRANCH   5  18
ATOM     18  N   LIG d   1       0.372  76.999 116.109  0.00  0.00     0.381 N 
ATOM     19  H   LIG d   1       0.466  76.368 116.879  0.00  0.00    -0.090 HD
ATOM     20  H   LIG d   1       0.774  77.881 116.374  0.00  0.00    -0.090 HD
ATOM     21  H   LIG d   1       0.847  76.636 115.312  0.00  0.00    -0.090 HD
ENDBRANCH   5  18
BRANCH   3  22
ATOM     22  C   LIG d   1      -2.773  78.279 112.732  0.00  0.00     0.382 C 
ATOM     23  O   LIG d   1      -3.199  79.450 112.877  0.00  0.00    -0.241 OA
ATOM     24  O   LIG d   1      -2.642  77.812 111.584  0.00  0.00    -0.241 OA
ENDBRANCH   3  22
TORSDOF 7
ENDMDL
MODEL 7
REMARK VINA RESULT:      -4.6      2.231      2.981
REMARK  7 active torsions:
REMARK  status: ('A' for Active; 'I' for Inactive)
REMARK    1  A    between atoms: C_2  and  C_3 
REMARK    2  A    between atoms: C_3  and  O_6 
REMARK    3  A    between atoms: C_3  and  C_4 
REMARK    4  A    between atoms: C_7  and  O_6 
REMARK    5  A    between atoms: C_9  and  C_10 
REMARK    6  A    between atoms: N_15  and  C_14 
REMARK    7  A    between atoms: N_20  and  C_19 
REMARK       I    between atoms: C_22  and  N_20 
ROOT
ATOM      1  C   LIG d   1      -0.209  79.787 115.383  0.00  0.00     0.161 C 
ATOM      2  C   LIG d   1      -0.721  80.833 114.596  0.00  0.00     0.016 C 
ATOM      3  C   LIG d   1      -1.793  80.671 113.689  0.00  0.00     0.038 C 
ATOM      4  C   LIG d   1      -2.530  79.479 113.618  0.00  0.00     0.028 C 
ATOM      5  C   LIG d   1      -1.731  78.247 114.026  0.00  0.00    -0.047 C 
ATOM      6  C   LIG d   1      -1.072  78.508 115.400  0.00  0.00     0.091 C 
ENDROOT
BRANCH   1   7
ATOM      7  O   LIG d   1       0.021  80.254 116.727  0.00  0.00    -0.368 OA
BRANCH   7   8
ATOM      8  C   LIG d   1      -0.782  81.381 117.156  0.00  0.00     0.119 C 
BRANCH   8   9
ATOM      9  C   LIG d   1       0.114  82.284 118.026  0.00  0.00     0.028 C 
ATOM     10  C   LIG d   1      -0.668  83.441 118.670  0.00  0.00     0.006 C 
ENDBRANCH   8   9
BRANCH   8  11
ATOM     11  C   LIG d   1      -1.922  80.935 118.076  0.00  0.00     0.028 C 
ATOM     12  C   LIG d   1      -3.269  80.821 117.344  0.00  0.00     0.006 C 
ENDBRANCH   8  11
ENDBRANCH   7   8
ENDBRANCH   1   7
BRANCH   6  13
ATOM     13  N   LIG d   1      -0.202  77.384 115.835  0.00  0.00    -0.311 N 
ATOM     14  C   LIG d   1      -0.624  76.390 116.614  0.00  0.00     0.210 C 
ATOM     15  C   LIG d   1       0.440  75.344 116.960  0.00  0.00     0.109 C 
ATOM     16  O   LIG d   1      -1.787  76.258 117.025  0.00  0.00    -0.276 OA
ATOM     17  H   LIG d   1       0.748  77.396 115.521  0.00  0.00     0.149 HD
ENDBRANCH   6  13
BRANCH   5  18
ATOM     18  N   LIG d   1      -2.656  77.098 114.038  0.00  0.00     0.381 N 
ATOM     19  H   LIG d   1      -3.554  77.383 113.700  0.00  0.00    -0.090 HD
ATOM     20  H   LIG d   1      -2.763  76.776 114.983  0.00  0.00    -0.090 HD
ATOM     21  H   LIG d   1      -2.297  76.365 113.468  0.00  0.00    -0.090 HD
ENDBRANCH   5  18
BRANCH   3  22
ATOM     22  C   LIG d   1      -2.113  81.696 112.813  0.00  0.00     0.382 C 
ATOM     23  O   LIG d   1      -3.308  82.050 112.670  0.00  0.00    -0.241 OA
ATOM     24  O   LIG d   1      -1.226  82.242 112.129  0.00  0.00    -0.241 OA
ENDBRANCH   3  22
TORSDOF 7
ENDMDL
MODEL 8
REMARK VINA RESULT:      -4.6      4.259      7.772
REMARK  7 active torsions:
REMARK  status: ('A' for Active; 'I' for Inactive)
REMARK    1  A    between atoms: C_2  and  C_3 
REMARK    2  A    between atoms: C_3  and  O_6 
REMARK    3  A    between atoms: C_3  and  C_4 
REMARK    4  A    between atoms: C_7  and  O_6 
REMARK    5  A    between atoms: C_9  and  C_10 
REMARK    6  A    between atoms: N_15  and  C_14 
REMARK    7  A    between atoms: N_20  and  C_19 
REMARK       I    between atoms: C_22  and  N_20 
ROOT
ATOM      1  C   LIG d   1      -5.839  78.755 117.886  0.00  0.00     0.161 C 
ATOM      2  C   LIG d   1      -6.105  77.397 117.646  0.00  0.00     0.016 C 
ATOM      3  C   LIG d   1      -7.385  76.815 117.799  0.00  0.00     0.038 C 
ATOM      4  C   LIG d   1      -8.525  77.590 118.060  0.00  0.00     0.028 C 
ATOM      5  C   LIG d   1      -8.220  78.884 118.806  0.00  0.00    -0.047 C 
ATOM      6  C   LIG d   1      -7.092  79.638 118.064  0.00  0.00     0.091 C 
ENDROOT
BRANCH   1   7
ATOM      7  O   LIG d   1      -5.000  79.281 116.840  0.00  0.00    -0.368 OA
BRANCH   7   8
ATOM      8  C   LIG d   1      -3.587  79.384 117.147  0.00  0.00     0.119 C 
BRANCH   8   9
ATOM      9  C   LIG d   1      -3.265  80.877 117.349  0.00  0.00     0.028 C 
ATOM     10  C   LIG d   1      -2.951  81.216 118.816  0.00  0.00     0.006 C 
ENDBRANCH   8   9
BRANCH   8  11
ATOM     11  C   LIG d   1      -2.726  78.941 115.961  0.00  0.00     0.028 C 
ATOM     12  C   LIG d   1      -2.442  80.082 114.971  0.00  0.00     0.006 C 
ENDBRANCH   8  11
ENDBRANCH   7   8
ENDBRANCH   1   7
BRANCH   6  13
ATOM     13  N   LIG d   1      -6.674  80.875 118.774  0.00  0.00    -0.311 N 
ATOM     14  C   LIG d   1      -6.595  82.066 118.185  0.00  0.00     0.210 C 
ATOM     15  C   LIG d   1      -6.123  83.206 119.093  0.00  0.00     0.109 C 
ATOM     16  O   LIG d   1      -6.900  82.294 117.004  0.00  0.00    -0.276 OA
ATOM     17  H   LIG d   1      -6.438  80.787 119.743  0.00  0.00     0.149 HD
ENDBRANCH   6  13
BRANCH   5  18
ATOM     18  N   LIG d   1      -9.474  79.657 118.890  0.00  0.00     0.381 N 
ATOM     19  H   LIG d   1     -10.092  79.380 118.153  0.00  0.00    -0.090 HD
ATOM     20  H   LIG d   1      -9.263  80.632 118.774  0.00  0.00    -0.090 HD
ATOM     21  H   LIG d   1      -9.909  79.506 119.773  0.00  0.00    -0.090 HD
ENDBRANCH   5  18
BRANCH   3  22
ATOM     22  C   LIG d   1      -7.526  75.437 117.731  0.00  0.00     0.382 C 
ATOM     23  O   LIG d   1      -6.790  74.696 118.427  0.00  0.00    -0.241 OA
ATOM     24  O   LIG d   1      -8.350  74.925 116.950  0.00  0.00    -0.241 OA
ENDBRANCH   3  22
TORSDOF 7
ENDMDL
MODEL 9
REMARK VINA RESULT:      -4.5      2.628      3.395
REMARK  7 active torsions:
REMARK  status: ('A' for Active; 'I' for Inactive)
REMARK    1  A    between atoms: C_2  and  C_3 
REMARK    2  A    between atoms: C_3  and  O_6 
REMARK    3  A    between atoms: C_3  and  C_4 
REMARK    4  A    between atoms: C_7  and  O_6 
REMARK    5  A    between atoms: C_9  and  C_10 
REMARK    6  A    between atoms: N_15  and  C_14 
REMARK    7  A    between atoms: N_20  and  C_19 
REMARK       I    between atoms: C_22  and  N_20 
ROOT
ATOM      1  C   LIG d   1      -3.042  78.830 116.660  0.00  0.00     0.161 C 
ATOM      2  C   LIG d   1      -2.176  79.914 116.882  0.00  0.00     0.016 C 
ATOM      3  C   LIG d   1      -0.927  80.056 116.236  0.00  0.00     0.038 C 
ATOM      4  C   LIG d   1      -0.523  79.196 115.203  0.00  0.00     0.028 C 
ATOM      5  C   LIG d   1      -1.137  77.804 115.300  0.00  0.00    -0.047 C 
ATOM      6  C   LIG d   1      -2.669  77.940 115.455  0.00  0.00     0.091 C 
ENDROOT
BRANCH   1   7
ATOM      7  O   LIG d   1      -4.397  79.306 116.531  0.00  0.00    -0.368 OA
BRANCH   7   8
ATOM      8  C   LIG d   1      -5.249  79.123 117.688  0.00  0.00     0.119 C 
BRANCH   8   9
ATOM      9  C   LIG d   1      -6.185  77.936 117.391  0.00  0.00     0.028 C 
ATOM     10  C   LIG d   1      -5.874  76.711 118.268  0.00  0.00     0.006 C 
ENDBRANCH   8   9
BRANCH   8  11
ATOM     11  C   LIG d   1      -6.174  80.327 117.894  0.00  0.00     0.028 C 
ATOM     12  C   LIG d   1      -5.458  81.671 117.687  0.00  0.00     0.006 C 
ENDBRANCH   8  11
ENDBRANCH   7   8
ENDBRANCH   1   7
BRANCH   6  13
ATOM     13  N   LIG d   1      -3.339  76.627 115.642  0.00  0.00    -0.311 N 
ATOM     14  C   LIG d   1      -4.192  76.108 114.760  0.00  0.00     0.210 C 
ATOM     15  C   LIG d   1      -4.785  74.752 115.156  0.00  0.00     0.109 C 
ATOM     16  O   LIG d   1      -4.488  76.626 113.673  0.00  0.00    -0.276 OA
ATOM     17  H   LIG d   1      -3.132  76.124 116.482  0.00  0.00     0.149 HD
ENDBRANCH   6  13
BRANCH   5  18
ATOM     18  N   LIG d   1      -0.743  77.057 114.091  0.00  0.00     0.381 N 
ATOM     19  H   LIG d   1       0.148  77.380 113.769  0.00  0.00    -0.090 HD
ATOM     20  H   LIG d   1      -1.420  77.228 113.368  0.00  0.00    -0.090 HD
ATOM     21  H   LIG d   1      -0.698  76.083 114.291  0.00  0.00    -0.090 HD
ENDBRANCH   5  18
BRANCH   3  22
ATOM     22  C   LIG d   1      -0.048  81.046 116.649  0.00  0.00     0.382 C 
ATOM     23  O   LIG d   1       0.350  81.074 117.839  0.00  0.00    -0.241 OA
ATOM     24  O   LIG d   1       0.317  81.938 115.860  0.00  0.00    -0.241 OA
ENDBRANCH   3  22
TORSDOF 7
ENDMDL
