MODEL 1
REMARK VINA RESULT:      -5.8      0.000      0.000
REMARK  7 active torsions:
REMARK  status: ('A' for Active; 'I' for Inactive)
REMARK    1  A    between atoms: C_2  and  C_3 
REMARK    2  A    between atoms: C_3  and  O_6 
REMARK    3  A    between atoms: C_3  and  C_4 
REMARK    4  A    between atoms: C_7  and  O_6 
REMARK    5  A    between atoms: C_9  and  C_10 
REMARK    6  A    between atoms: N_15  and  C_14 
REMARK    7  A    between atoms: N_20  and  C_19 
REMARK       I    between atoms: C_22  and  N_20 
ROOT
ATOM      1  C   LIG d   1      -1.722  80.842 114.387  0.00  0.00     0.161 C 
ATOM      2  C   LIG d   1      -1.516  82.197 114.081  0.00  0.00     0.016 C 
ATOM      3  C   LIG d   1      -1.073  82.652 112.818  0.00  0.00     0.038 C 
ATOM      4  C   LIG d   1      -0.949  81.787 111.721  0.00  0.00     0.028 C 
ATOM      5  C   LIG d   1      -0.660  80.343 112.117  0.00  0.00    -0.047 C 
ATOM      6  C   LIG d   1      -1.699  79.894 113.169  0.00  0.00     0.091 C 
ENDROOT
BRANCH   1   7
ATOM      7  O   LIG d   1      -2.954  80.687 115.119  0.00  0.00    -0.368 OA
BRANCH   7   8
ATOM      8  C   LIG d   1      -2.823  80.364 116.525  0.00  0.00     0.119 C 
BRANCH   8   9
ATOM      9  C   LIG d   1      -4.019  79.470 116.907  0.00  0.00     0.028 C 
ATOM     10  C   LIG d   1      -3.663  77.973 116.887  0.00  0.00     0.006 C 
ENDBRANCH   8   9
BRANCH   8  11
ATOM     11  C   LIG d   1      -2.957  81.614 117.399  0.00  0.00     0.028 C 
ATOM     12  C   LIG d   1      -1.633  82.017 118.068  0.00  0.00     0.006 C 
ENDBRANCH   8  11
ENDBRANCH   7   8
ENDBRANCH   1   7
BRANCH   6  13
ATOM     13  N   LIG d   1      -1.437  78.520 113.673  0.00  0.00    -0.311 N 
ATOM     14  C   LIG d   1      -2.267  77.497 113.477  0.00  0.00     0.210 C 
ATOM     15  C   LIG d   1      -1.817  76.171 114.098  0.00  0.00     0.109 C 
ATOM     16  O   LIG d   1      -3.318  77.554 112.820  0.00  0.00    -0.276 OA
ATOM     17  H   LIG d   1      -0.592  78.378 114.190  0.00  0.00     0.149 HD
ENDBRANCH   6  13
BRANCH   5  18
ATOM     18  N   LIG d   1      -0.692  79.529 110.887  0.00  0.00     0.381 N 
ATOM     19  H   LIG d   1      -0.329  78.616 111.076  0.00  0.00    -0.090 HD
ATOM     20  H   LIG d   1      -0.109  79.963 110.194  0.00  0.00    -0.090 HD
ATOM     21  H   LIG d   1      -1.627  79.459 110.549  0.00  0.00    -0.090 HD
ENDBRANCH   5  18
BRANCH   3  22
ATOM     22  C   LIG d   1      -0.710  83.980 112.655  0.00  0.00     0.382 C 
ATOM     23  O   LIG d   1      -1.098  84.616 111.645  0.00  0.00    -0.241 OA
ATOM     24  O   LIG d   1       0.037  84.537 113.481  0.00  0.00    -0.241 OA
ENDBRANCH   3  22
TORSDOF 7
ENDMDL
MODEL 2
REMARK VINA RESULT:      -5.3      0.915      1.773
REMARK  7 active torsions:
REMARK  status: ('A' for Active; 'I' for Inactive)
REMARK    1  A    between atoms: C_2  and  C_3 
REMARK    2  A    between atoms: C_3  and  O_6 
REMARK    3  A    between atoms: C_3  and  C_4 
REMARK    4  A    between atoms: C_7  and  O_6 
REMARK    5  A    between atoms: C_9  and  C_10 
REMARK    6  A    between atoms: N_15  and  C_14 
REMARK    7  A    between atoms: N_20  and  C_19 
REMARK       I    between atoms: C_22  and  N_20 
ROOT
ATOM      1  C   LIG d   1      -1.484  80.527 114.863  0.00  0.00     0.161 C 
ATOM      2  C   LIG d   1      -1.286  81.900 114.644  0.00  0.00     0.016 C 
ATOM      3  C   LIG d   1      -1.065  82.460 113.365  0.00  0.00     0.038 C 
ATOM      4  C   LIG d   1      -1.178  81.698 112.192  0.00  0.00     0.028 C 
ATOM      5  C   LIG d   1      -0.877  80.218 112.400  0.00  0.00    -0.047 C 
ATOM      6  C   LIG d   1      -1.722  79.696 113.585  0.00  0.00     0.091 C 
ENDROOT
BRANCH   1   7
ATOM      7  O   LIG d   1      -2.565  80.332 115.796  0.00  0.00    -0.368 OA
BRANCH   7   8
ATOM      8  C   LIG d   1      -2.771  81.390 116.764  0.00  0.00     0.119 C 
BRANCH   8   9
ATOM      9  C   LIG d   1      -2.098  80.951 118.079  0.00  0.00     0.028 C 
ATOM     10  C   LIG d   1      -1.729  82.144 118.976  0.00  0.00     0.006 C 
ENDBRANCH   8   9
BRANCH   8  11
ATOM     11  C   LIG d   1      -4.255  81.555 117.103  0.00  0.00     0.028 C 
ATOM     12  C   LIG d   1      -4.855  80.310 117.773  0.00  0.00     0.006 C 
ENDBRANCH   8  11
ENDBRANCH   7   8
ENDBRANCH   1   7
BRANCH   6  13
ATOM     13  N   LIG d   1      -1.425  78.276 113.910  0.00  0.00    -0.311 N 
ATOM     14  C   LIG d   1      -2.203  77.261 113.538  0.00  0.00     0.210 C 
ATOM     15  C   LIG d   1      -1.725  75.879 113.994  0.00  0.00     0.109 C 
ATOM     16  O   LIG d   1      -3.226  77.371 112.846  0.00  0.00    -0.276 OA
ATOM     17  H   LIG d   1      -0.597  78.093 114.443  0.00  0.00     0.149 HD
ENDBRANCH   6  13
BRANCH   5  18
ATOM     18  N   LIG d   1      -1.167  79.522 111.133  0.00  0.00     0.381 N 
ATOM     19  H   LIG d   1      -2.136  79.276 111.095  0.00  0.00    -0.090 HD
ATOM     20  H   LIG d   1      -0.625  78.676 111.095  0.00  0.00    -0.090 HD
ATOM     21  H   LIG d   1      -0.934  80.108 110.361  0.00  0.00    -0.090 HD
ENDBRANCH   5  18
BRANCH   3  22
ATOM     22  C   LIG d   1      -0.687  83.790 113.252  0.00  0.00     0.382 C 
ATOM     23  O   LIG d   1       0.014  84.320 114.148  0.00  0.00    -0.241 OA
ATOM     24  O   LIG d   1      -1.074  84.477 112.289  0.00  0.00    -0.241 OA
ENDBRANCH   3  22
TORSDOF 7
ENDMDL
MODEL 3
REMARK VINA RESULT:      -5.1      3.015      4.352
REMARK  7 active torsions:
REMARK  status: ('A' for Active; 'I' for Inactive)
REMARK    1  A    between atoms: C_2  and  C_3 
REMARK    2  A    between atoms: C_3  and  O_6 
REMARK    3  A    between atoms: C_3  and  C_4 
REMARK    4  A    between atoms: C_7  and  O_6 
REMARK    5  A    between atoms: C_9  and  C_10 
REMARK    6  A    between atoms: N_15  and  C_14 
REMARK    7  A    between atoms: N_20  and  C_19 
REMARK       I    between atoms: C_22  and  N_20 
ROOT
ATOM      1  C   LIG d   1      -1.529  78.607 116.017  0.00  0.00     0.161 C 
ATOM      2  C   LIG d   1      -2.017  79.277 114.883  0.00  0.00     0.016 C 
ATOM      3  C   LIG d   1      -2.292  78.632 113.655  0.00  0.00     0.038 C 
ATOM      4  C   LIG d   1      -2.239  77.236 113.524  0.00  0.00     0.028 C 
ATOM      5  C   LIG d   1      -1.267  76.572 114.493  0.00  0.00    -0.047 C 
ATOM      6  C   LIG d   1      -1.571  77.067 115.926  0.00  0.00     0.091 C 
ENDROOT
BRANCH   1   7
ATOM      7  O   LIG d   1      -2.232  79.059 117.192  0.00  0.00    -0.368 OA
BRANCH   7   8
ATOM      8  C   LIG d   1      -3.564  79.585 116.975  0.00  0.00     0.119 C 
BRANCH   8   9
ATOM      9  C   LIG d   1      -3.721  80.829 117.870  0.00  0.00     0.028 C 
ATOM     10  C   LIG d   1      -2.493  81.753 117.812  0.00  0.00     0.006 C 
ENDBRANCH   8   9
BRANCH   8  11
ATOM     11  C   LIG d   1      -4.636  78.602 117.454  0.00  0.00     0.028 C 
ATOM     12  C   LIG d   1      -5.977  79.287 117.764  0.00  0.00     0.006 C 
ENDBRANCH   8  11
ENDBRANCH   7   8
ENDBRANCH   1   7
BRANCH   6  13
ATOM     13  N   LIG d   1      -0.612  76.531 116.926  0.00  0.00    -0.311 N 
ATOM     14  C   LIG d   1      -0.768  75.357 117.536  0.00  0.00     0.210 C 
ATOM     15  C   LIG d   1       0.326  75.003 118.548  0.00  0.00     0.109 C 
ATOM     16  O   LIG d   1      -1.692  74.561 117.312  0.00  0.00    -0.276 OA
ATOM     17  H   LIG d   1       0.183  77.098 117.145  0.00  0.00     0.149 HD
ENDBRANCH   6  13
BRANCH   5  18
ATOM     18  N   LIG d   1      -1.415  75.112 114.342  0.00  0.00     0.381 N 
ATOM     19  H   LIG d   1      -0.634  74.648 114.762  0.00  0.00    -0.090 HD
ATOM     20  H   LIG d   1      -1.427  74.886 113.363  0.00  0.00    -0.090 HD
ATOM     21  H   LIG d   1      -2.261  74.809 114.772  0.00  0.00    -0.090 HD
ENDBRANCH   5  18
BRANCH   3  22
ATOM     22  C   LIG d   1      -2.585  79.389 112.531  0.00  0.00     0.382 C 
ATOM     23  O   LIG d   1      -3.407  80.333 112.609  0.00  0.00    -0.241 OA
ATOM     24  O   LIG d   1      -2.071  79.111 111.431  0.00  0.00    -0.241 OA
ENDBRANCH   3  22
TORSDOF 7
ENDMDL
MODEL 4
REMARK VINA RESULT:      -4.8      2.578      3.349
REMARK  7 active torsions:
REMARK  status: ('A' for Active; 'I' for Inactive)
REMARK    1  A    between atoms: C_2  and  C_3 
REMARK    2  A    between atoms: C_3  and  O_6 
REMARK    3  A    between atoms: C_3  and  C_4 
REMARK    4  A    between atoms: C_7  and  O_6 
REMARK    5  A    between atoms: C_9  and  C_10 
REMARK    6  A    between atoms: N_15  and  C_14 
REMARK    7  A    between atoms: N_20  and  C_19 
REMARK       I    between atoms: C_22  and  N_20 
ROOT
ATOM      1  C   LIG d   1      -1.712  79.150 115.843  0.00  0.00     0.161 C 
ATOM      2  C   LIG d   1      -2.053  80.084 114.851  0.00  0.00     0.016 C 
ATOM      3  C   LIG d   1      -2.360  79.727 113.518  0.00  0.00     0.038 C 
ATOM      4  C   LIG d   1      -2.496  78.388 113.122  0.00  0.00     0.028 C 
ATOM      5  C   LIG d   1      -1.668  77.421 113.962  0.00  0.00    -0.047 C 
ATOM      6  C   LIG d   1      -1.963  77.677 115.457  0.00  0.00     0.091 C 
ENDROOT
BRANCH   1   7
ATOM      7  O   LIG d   1      -2.396  79.469 117.071  0.00  0.00    -0.368 OA
BRANCH   7   8
ATOM      8  C   LIG d   1      -1.581  80.041 118.124  0.00  0.00     0.119 C 
BRANCH   8   9
ATOM      9  C   LIG d   1      -2.013  79.386 119.450  0.00  0.00     0.028 C 
ATOM     10  C   LIG d   1      -2.872  78.129 119.232  0.00  0.00     0.006 C 
ENDBRANCH   8   9
BRANCH   8  11
ATOM     11  C   LIG d   1      -1.865  81.536 118.299  0.00  0.00     0.028 C 
ATOM     12  C   LIG d   1      -3.289  81.817 118.804  0.00  0.00     0.006 C 
ENDBRANCH   8  11
ENDBRANCH   7   8
ENDBRANCH   1   7
BRANCH   6  13
ATOM     13  N   LIG d   1      -1.132  76.830 116.352  0.00  0.00    -0.311 N 
ATOM     14  C   LIG d   1      -1.469  75.592 116.711  0.00  0.00     0.210 C 
ATOM     15  C   LIG d   1      -0.481  74.901 117.656  0.00  0.00     0.109 C 
ATOM     16  O   LIG d   1      -2.477  74.990 116.312  0.00  0.00    -0.276 OA
ATOM     17  H   LIG d   1      -0.281  77.229 116.697  0.00  0.00     0.149 HD
ENDBRANCH   6  13
BRANCH   5  18
ATOM     18  N   LIG d   1      -2.010  76.052 113.531  0.00  0.00     0.381 N 
ATOM     19  H   LIG d   1      -1.220  75.451 113.655  0.00  0.00    -0.090 HD
ATOM     20  H   LIG d   1      -2.243  76.068 112.553  0.00  0.00    -0.090 HD
ATOM     21  H   LIG d   1      -2.783  75.711 114.059  0.00  0.00    -0.090 HD
ENDBRANCH   5  18
BRANCH   3  22
ATOM     22  C   LIG d   1      -2.496  80.716 112.556  0.00  0.00     0.382 C 
ATOM     23  O   LIG d   1      -1.540  80.979 111.788  0.00  0.00    -0.241 OA
ATOM     24  O   LIG d   1      -3.548  81.379 112.475  0.00  0.00    -0.241 OA
ENDBRANCH   3  22
TORSDOF 7
ENDMDL
MODEL 5
REMARK VINA RESULT:      -4.7      1.655      2.145
REMARK  7 active torsions:
REMARK  status: ('A' for Active; 'I' for Inactive)
REMARK    1  A    between atoms: C_2  and  C_3 
REMARK    2  A    between atoms: C_3  and  O_6 
REMARK    3  A    between atoms: C_3  and  C_4 
REMARK    4  A    between atoms: C_7  and  O_6 
REMARK    5  A    between atoms: C_9  and  C_10 
REMARK    6  A    between atoms: N_15  and  C_14 
REMARK    7  A    between atoms: N_20  and  C_19 
REMARK       I    between atoms: C_22  and  N_20 
ROOT
ATOM      1  C   LIG d   1      -2.646  80.523 115.737  0.00  0.00     0.161 C 
ATOM      2  C   LIG d   1      -2.373  81.894 115.596  0.00  0.00     0.016 C 
ATOM      3  C   LIG d   1      -1.675  82.439 114.494  0.00  0.00     0.038 C 
ATOM      4  C   LIG d   1      -1.332  81.664 113.376  0.00  0.00     0.028 C 
ATOM      5  C   LIG d   1      -1.140  80.186 113.700  0.00  0.00    -0.047 C 
ATOM      6  C   LIG d   1      -2.377  79.677 114.475  0.00  0.00     0.091 C 
ENDROOT
BRANCH   1   7
ATOM      7  O   LIG d   1      -4.004  80.339 116.184  0.00  0.00    -0.368 OA
BRANCH   7   8
ATOM      8  C   LIG d   1      -4.271  80.677 117.567  0.00  0.00     0.119 C 
BRANCH   8   9
ATOM      9  C   LIG d   1      -3.719  79.532 118.438  0.00  0.00     0.028 C 
ATOM     10  C   LIG d   1      -4.813  78.859 119.284  0.00  0.00     0.006 C 
ENDBRANCH   8   9
BRANCH   8  11
ATOM     11  C   LIG d   1      -5.776  80.714 117.851  0.00  0.00     0.028 C 
ATOM     12  C   LIG d   1      -6.423  82.053 117.464  0.00  0.00     0.006 C 
ENDBRANCH   8  11
ENDBRANCH   7   8
ENDBRANCH   1   7
BRANCH   6  13
ATOM     13  N   LIG d   1      -2.235  78.262 114.904  0.00  0.00    -0.311 N 
ATOM     14  C   LIG d   1      -2.635  77.228 114.166  0.00  0.00     0.210 C 
ATOM     15  C   LIG d   1      -2.413  75.853 114.804  0.00  0.00     0.109 C 
ATOM     16  O   LIG d   1      -3.122  77.317 113.029  0.00  0.00    -0.276 OA
ATOM     17  H   LIG d   1      -1.820  78.097 115.800  0.00  0.00     0.149 HD
ENDBRANCH   6  13
BRANCH   5  18
ATOM     18  N   LIG d   1      -0.922  79.475 112.426  0.00  0.00     0.381 N 
ATOM     19  H   LIG d   1      -1.044  78.492 112.562  0.00  0.00    -0.090 HD
ATOM     20  H   LIG d   1       0.021  79.637 112.121  0.00  0.00    -0.090 HD
ATOM     21  H   LIG d   1      -1.563  79.805 111.738  0.00  0.00    -0.090 HD
ENDBRANCH   5  18
BRANCH   3  22
ATOM     22  C   LIG d   1      -1.277  83.767 114.521  0.00  0.00     0.382 C 
ATOM     23  O   LIG d   1      -0.087  84.060 114.788  0.00  0.00    -0.241 OA
ATOM     24  O   LIG d   1      -2.104  84.678 114.326  0.00  0.00    -0.241 OA
ENDBRANCH   3  22
TORSDOF 7
ENDMDL
MODEL 6
REMARK VINA RESULT:      -4.7      2.386      4.434
REMARK  7 active torsions:
REMARK  status: ('A' for Active; 'I' for Inactive)
REMARK    1  A    between atoms: C_2  and  C_3 
REMARK    2  A    between atoms: C_3  and  O_6 
REMARK    3  A    between atoms: C_3  and  C_4 
REMARK    4  A    between atoms: C_7  and  O_6 
REMARK    5  A    between atoms: C_9  and  C_10 
REMARK    6  A    between atoms: N_15  and  C_14 
REMARK    7  A    between atoms: N_20  and  C_19 
REMARK       I    between atoms: C_22  and  N_20 
ROOT
ATOM      1  C   LIG d   1      -2.320  78.942 114.128  0.00  0.00     0.161 C 
ATOM      2  C   LIG d   1      -1.732  79.512 112.986  0.00  0.00     0.016 C 
ATOM      3  C   LIG d   1      -1.340  80.868 112.907  0.00  0.00     0.038 C 
ATOM      4  C   LIG d   1      -1.370  81.715 114.025  0.00  0.00     0.028 C 
ATOM      5  C   LIG d   1      -2.424  81.321 115.055  0.00  0.00    -0.047 C 
ATOM      6  C   LIG d   1      -2.259  79.822 115.394  0.00  0.00     0.091 C 
ENDROOT
BRANCH   1   7
ATOM      7  O   LIG d   1      -1.733  77.651 114.386  0.00  0.00    -0.368 OA
BRANCH   7   8
ATOM      8  C   LIG d   1      -2.330  76.529 113.690  0.00  0.00     0.119 C 
BRANCH   8   9
ATOM      9  C   LIG d   1      -3.519  76.038 114.539  0.00  0.00     0.028 C 
ATOM     10  C   LIG d   1      -4.714  75.598 113.676  0.00  0.00     0.006 C 
ENDBRANCH   8   9
BRANCH   8  11
ATOM     11  C   LIG d   1      -1.365  75.342 113.617  0.00  0.00     0.028 C 
ATOM     12  C   LIG d   1      -0.386  75.297 114.800  0.00  0.00     0.006 C 
ENDBRANCH   8  11
ENDBRANCH   7   8
ENDBRANCH   1   7
BRANCH   6  13
ATOM     13  N   LIG d   1      -3.304  79.334 116.331  0.00  0.00    -0.311 N 
ATOM     14  C   LIG d   1      -3.144  79.295 117.653  0.00  0.00     0.210 C 
ATOM     15  C   LIG d   1      -4.338  78.738 118.433  0.00  0.00     0.109 C 
ATOM     16  O   LIG d   1      -2.137  79.699 118.255  0.00  0.00    -0.276 OA
ATOM     17  H   LIG d   1      -4.165  79.017 115.929  0.00  0.00     0.149 HD
ENDBRANCH   6  13
BRANCH   5  18
ATOM     18  N   LIG d   1      -2.254  82.201 116.226  0.00  0.00     0.381 N 
ATOM     19  H   LIG d   1      -1.989  81.657 117.023  0.00  0.00    -0.090 HD
ATOM     20  H   LIG d   1      -3.131  82.648 116.427  0.00  0.00    -0.090 HD
ATOM     21  H   LIG d   1      -1.558  82.889 116.038  0.00  0.00    -0.090 HD
ENDBRANCH   5  18
BRANCH   3  22
ATOM     22  C   LIG d   1      -0.948  81.400 111.688  0.00  0.00     0.382 C 
ATOM     23  O   LIG d   1      -1.283  82.569 111.377  0.00  0.00    -0.241 OA
ATOM     24  O   LIG d   1      -0.300  80.712 110.877  0.00  0.00    -0.241 OA
ENDBRANCH   3  22
TORSDOF 7
ENDMDL
MODEL 7
REMARK VINA RESULT:      -4.6      2.621      5.892
REMARK  7 active torsions:
REMARK  status: ('A' for Active; 'I' for Inactive)
REMARK    1  A    between atoms: C_2  and  C_3 
REMARK    2  A    between atoms: C_3  and  O_6 
REMARK    3  A    between atoms: C_3  and  C_4 
REMARK    4  A    between atoms: C_7  and  O_6 
REMARK    5  A    between atoms: C_9  and  C_10 
REMARK    6  A    between atoms: N_15  and  C_14 
REMARK    7  A    between atoms: N_20  and  C_19 
REMARK       I    between atoms: C_22  and  N_20 
ROOT
ATOM      1  C   LIG d   1      -2.163  79.550 114.921  0.00  0.00     0.161 C 
ATOM      2  C   LIG d   1      -2.417  78.461 114.070  0.00  0.00     0.016 C 
ATOM      3  C   LIG d   1      -2.789  77.179 114.536  0.00  0.00     0.038 C 
ATOM      4  C   LIG d   1      -3.081  76.938 115.886  0.00  0.00     0.028 C 
ATOM      5  C   LIG d   1      -2.351  77.876 116.842  0.00  0.00    -0.047 C 
ATOM      6  C   LIG d   1      -2.586  79.335 116.389  0.00  0.00     0.091 C 
ENDROOT
BRANCH   1   7
ATOM      7  O   LIG d   1      -2.782  80.739 114.390  0.00  0.00    -0.368 OA
BRANCH   7   8
ATOM      8  C   LIG d   1      -1.885  81.726 113.825  0.00  0.00     0.119 C 
BRANCH   8   9
ATOM      9  C   LIG d   1      -0.473  81.111 113.806  0.00  0.00     0.028 C 
ATOM     10  C   LIG d   1       0.079  80.953 112.379  0.00  0.00     0.006 C 
ENDBRANCH   8   9
BRANCH   8  11
ATOM     11  C   LIG d   1      -1.778  82.961 114.724  0.00  0.00     0.028 C 
ATOM     12  C   LIG d   1      -0.377  83.136 115.331  0.00  0.00     0.006 C 
ENDBRANCH   8  11
ENDBRANCH   7   8
ENDBRANCH   1   7
BRANCH   6  13
ATOM     13  N   LIG d   1      -1.837  80.313 117.220  0.00  0.00    -0.311 N 
ATOM     14  C   LIG d   1      -2.427  81.255 117.954  0.00  0.00     0.210 C 
ATOM     15  C   LIG d   1      -1.470  82.173 118.720  0.00  0.00     0.109 C 
ATOM     16  O   LIG d   1      -3.654  81.397 118.069  0.00  0.00    -0.276 OA
ATOM     17  H   LIG d   1      -0.838  80.250 117.211  0.00  0.00     0.149 HD
ENDBRANCH   6  13
BRANCH   5  18
ATOM     18  N   LIG d   1      -2.852  77.604 118.202  0.00  0.00     0.381 N 
ATOM     19  H   LIG d   1      -3.296  76.708 118.227  0.00  0.00    -0.090 HD
ATOM     20  H   LIG d   1      -3.536  78.301 118.442  0.00  0.00    -0.090 HD
ATOM     21  H   LIG d   1      -2.100  77.629 118.854  0.00  0.00    -0.090 HD
ENDBRANCH   5  18
BRANCH   3  22
ATOM     22  C   LIG d   1      -2.832  76.112 113.651  0.00  0.00     0.382 C 
ATOM     23  O   LIG d   1      -3.938  75.659 113.269  0.00  0.00    -0.241 OA
ATOM     24  O   LIG d   1      -1.780  75.569 113.265  0.00  0.00    -0.241 OA
ENDBRANCH   3  22
TORSDOF 7
ENDMDL
MODEL 8
REMARK VINA RESULT:      -4.6      2.875      4.861
REMARK  7 active torsions:
REMARK  status: ('A' for Active; 'I' for Inactive)
REMARK    1  A    between atoms: C_2  and  C_3 
REMARK    2  A    between atoms: C_3  and  O_6 
REMARK    3  A    between atoms: C_3  and  C_4 
REMARK    4  A    between atoms: C_7  and  O_6 
REMARK    5  A    between atoms: C_9  and  C_10 
REMARK    6  A    between atoms: N_15  and  C_14 
REMARK    7  A    between atoms: N_20  and  C_19 
REMARK       I    between atoms: C_22  and  N_20 
ROOT
ATOM      1  C   LIG d   1      -2.056  79.094 115.892  0.00  0.00     0.161 C 
ATOM      2  C   LIG d   1      -2.176  78.641 114.567  0.00  0.00     0.016 C 
ATOM      3  C   LIG d   1      -2.239  79.507 113.451  0.00  0.00     0.038 C 
ATOM      4  C   LIG d   1      -2.035  80.889 113.573  0.00  0.00     0.028 C 
ATOM      5  C   LIG d   1      -2.415  81.440 114.943  0.00  0.00    -0.047 C 
ATOM      6  C   LIG d   1      -1.720  80.594 116.034  0.00  0.00     0.091 C 
ENDROOT
BRANCH   1   7
ATOM      7  O   LIG d   1      -1.087  78.294 116.597  0.00  0.00    -0.368 OA
BRANCH   7   8
ATOM      8  C   LIG d   1      -1.614  77.391 117.599  0.00  0.00     0.119 C 
BRANCH   8   9
ATOM      9  C   LIG d   1      -1.727  75.997 116.953  0.00  0.00     0.028 C 
ATOM     10  C   LIG d   1      -0.503  75.649 116.089  0.00  0.00     0.006 C 
ENDBRANCH   8   9
BRANCH   8  11
ATOM     11  C   LIG d   1      -3.043  77.771 117.996  0.00  0.00     0.028 C 
ATOM     12  C   LIG d   1      -3.156  78.215 119.463  0.00  0.00     0.006 C 
ENDBRANCH   8  11
ENDBRANCH   7   8
ENDBRANCH   1   7
BRANCH   6  13
ATOM     13  N   LIG d   1      -2.106  81.012 117.407  0.00  0.00    -0.311 N 
ATOM     14  C   LIG d   1      -1.390  81.862 118.143  0.00  0.00     0.210 C 
ATOM     15  C   LIG d   1      -1.955  82.143 119.538  0.00  0.00     0.109 C 
ATOM     16  O   LIG d   1      -0.359  82.433 117.759  0.00  0.00    -0.276 OA
ATOM     17  H   LIG d   1      -2.946  80.620 117.785  0.00  0.00     0.149 HD
ENDBRANCH   6  13
BRANCH   5  18
ATOM     18  N   LIG d   1      -2.023  82.861 114.977  0.00  0.00     0.381 N 
ATOM     19  H   LIG d   1      -2.767  83.409 115.362  0.00  0.00    -0.090 HD
ATOM     20  H   LIG d   1      -1.855  83.175 114.037  0.00  0.00    -0.090 HD
ATOM     21  H   LIG d   1      -1.199  82.975 115.525  0.00  0.00    -0.090 HD
ENDBRANCH   5  18
BRANCH   3  22
ATOM     22  C   LIG d   1      -2.550  78.994 112.201  0.00  0.00     0.382 C 
ATOM     23  O   LIG d   1      -3.569  78.278 112.053  0.00  0.00    -0.241 OA
ATOM     24  O   LIG d   1      -1.800  79.203 111.229  0.00  0.00    -0.241 OA
ENDBRANCH   3  22
TORSDOF 7
ENDMDL
MODEL 9
REMARK VINA RESULT:      -4.5      2.723      4.701
REMARK  7 active torsions:
REMARK  status: ('A' for Active; 'I' for Inactive)
REMARK    1  A    between atoms: C_2  and  C_3 
REMARK    2  A    between atoms: C_3  and  O_6 
REMARK    3  A    between atoms: C_3  and  C_4 
REMARK    4  A    between atoms: C_7  and  O_6 
REMARK    5  A    between atoms: C_9  and  C_10 
REMARK    6  A    between atoms: N_15  and  C_14 
REMARK    7  A    between atoms: N_20  and  C_19 
REMARK       I    between atoms: C_22  and  N_20 
ROOT
ATOM      1  C   LIG d   1      -2.225  78.717 115.376  0.00  0.00     0.161 C 
ATOM      2  C   LIG d   1      -2.359  79.337 114.122  0.00  0.00     0.016 C 
ATOM      3  C   LIG d   1      -2.229  80.732 113.926  0.00  0.00     0.038 C 
ATOM      4  C   LIG d   1      -1.804  81.588 114.953  0.00  0.00     0.028 C 
ATOM      5  C   LIG d   1      -2.148  81.079 116.348  0.00  0.00    -0.047 C 
ATOM      6  C   LIG d   1      -1.652  79.622 116.487  0.00  0.00     0.091 C 
ENDROOT
BRANCH   1   7
ATOM      7  O   LIG d   1      -1.432  77.520 115.246  0.00  0.00    -0.368 OA
BRANCH   7   8
ATOM      8  C   LIG d   1      -2.160  76.268 115.279  0.00  0.00     0.119 C 
BRANCH   8   9
ATOM      9  C   LIG d   1      -2.223  75.731 113.836  0.00  0.00     0.028 C 
ATOM     10  C   LIG d   1      -0.922  75.029 113.413  0.00  0.00     0.006 C 
ENDBRANCH   8   9
BRANCH   8  11
ATOM     11  C   LIG d   1      -3.618  76.481 115.697  0.00  0.00     0.028 C 
ATOM     12  C   LIG d   1      -4.602  75.627 114.882  0.00  0.00     0.006 C 
ENDBRANCH   8  11
ENDBRANCH   7   8
ENDBRANCH   1   7
BRANCH   6  13
ATOM     13  N   LIG d   1      -2.022  79.018 117.794  0.00  0.00    -0.311 N 
ATOM     14  C   LIG d   1      -3.269  78.990 118.261  0.00  0.00     0.210 C 
ATOM     15  C   LIG d   1      -3.429  78.338 119.638  0.00  0.00     0.109 C 
ATOM     16  O   LIG d   1      -4.263  79.413 117.651  0.00  0.00    -0.276 OA
ATOM     17  H   LIG d   1      -1.282  78.623 118.340  0.00  0.00     0.149 HD
ENDBRANCH   6  13
BRANCH   5  18
ATOM     18  N   LIG d   1      -1.528  81.996 117.323  0.00  0.00     0.381 N 
ATOM     19  H   LIG d   1      -2.217  82.313 117.976  0.00  0.00    -0.090 HD
ATOM     20  H   LIG d   1      -1.167  82.795 116.833  0.00  0.00    -0.090 HD
ATOM     21  H   LIG d   1      -0.791  81.532 117.806  0.00  0.00    -0.090 HD
ENDBRANCH   5  18
BRANCH   3  22
ATOM     22  C   LIG d   1      -2.565  81.288 112.701  0.00  0.00     0.382 C 
ATOM     23  O   LIG d   1      -1.677  81.810 111.986  0.00  0.00    -0.241 OA
ATOM     24  O   LIG d   1      -3.752  81.312 112.323  0.00  0.00    -0.241 OA
ENDBRANCH   3  22
TORSDOF 7
ENDMDL
