MODEL 1
REMARK VINA RESULT:      -5.8      0.000      0.000
REMARK  7 active torsions:
REMARK  status: ('A' for Active; 'I' for Inactive)
REMARK    1  A    between atoms: C_2  and  C_3 
REMARK    2  A    between atoms: C_3  and  O_6 
REMARK    3  A    between atoms: C_3  and  C_4 
REMARK    4  A    between atoms: C_7  and  O_6 
REMARK    5  A    between atoms: C_9  and  C_10 
REMARK    6  A    between atoms: N_15  and  C_14 
REMARK    7  A    between atoms: N_20  and  C_19 
REMARK       I    between atoms: C_22  and  N_20 
ROOT
ATOM      1  C   LIG d   1      -3.631  76.791 114.188  0.00  0.00     0.161 C 
ATOM      2  C   LIG d   1      -3.402  77.521 113.009  0.00  0.00     0.016 C 
ATOM      3  C   LIG d   1      -2.114  77.908 112.572  0.00  0.00     0.038 C 
ATOM      4  C   LIG d   1      -0.948  77.458 113.208  0.00  0.00     0.028 C 
ATOM      5  C   LIG d   1      -1.149  77.141 114.686  0.00  0.00    -0.047 C 
ATOM      6  C   LIG d   1      -2.364  76.196 114.836  0.00  0.00     0.091 C 
ENDROOT
BRANCH   1   7
ATOM      7  O   LIG d   1      -4.601  75.754 113.939  0.00  0.00    -0.368 OA
BRANCH   7   8
ATOM      8  C   LIG d   1      -5.877  75.901 114.609  0.00  0.00     0.119 C 
BRANCH   8   9
ATOM      9  C   LIG d   1      -6.086  74.652 115.487  0.00  0.00     0.028 C 
ATOM     10  C   LIG d   1      -7.286  74.796 116.437  0.00  0.00     0.006 C 
ENDBRANCH   8   9
BRANCH   8  11
ATOM     11  C   LIG d   1      -7.036  75.893 113.609  0.00  0.00     0.028 C 
ATOM     12  C   LIG d   1      -6.710  76.652 112.313  0.00  0.00     0.006 C 
ENDBRANCH   8  11
ENDBRANCH   7   8
ENDBRANCH   1   7
BRANCH   6  13
ATOM     13  N   LIG d   1      -2.682  75.903 116.258  0.00  0.00    -0.311 N 
ATOM     14  C   LIG d   1      -2.104  74.923 116.952  0.00  0.00     0.210 C 
ATOM     15  C   LIG d   1      -2.591  74.780 118.397  0.00  0.00     0.109 C 
ATOM     16  O   LIG d   1      -1.211  74.181 116.517  0.00  0.00    -0.276 OA
ATOM     17  H   LIG d   1      -3.373  76.477 116.699  0.00  0.00     0.149 HD
ENDBRANCH   6  13
BRANCH   5  18
ATOM     18  N   LIG d   1       0.106  76.553 115.191  0.00  0.00     0.381 N 
ATOM     19  H   LIG d   1       0.885  76.952 114.706  0.00  0.00    -0.090 HD
ATOM     20  H   LIG d   1       0.097  75.564 115.013  0.00  0.00    -0.090 HD
ATOM     21  H   LIG d   1       0.193  76.721 116.169  0.00  0.00    -0.090 HD
ENDBRANCH   5  18
BRANCH   3  22
ATOM     22  C   LIG d   1      -1.986  78.788 111.508  0.00  0.00     0.382 C 
ATOM     23  O   LIG d   1      -1.938  80.024 111.718  0.00  0.00    -0.241 OA
ATOM     24  O   LIG d   1      -1.961  78.364 110.337  0.00  0.00    -0.241 OA
ENDBRANCH   3  22
TORSDOF 7
ENDMDL
MODEL 2
REMARK VINA RESULT:      -5.7      2.601      3.007
REMARK  7 active torsions:
REMARK  status: ('A' for Active; 'I' for Inactive)
REMARK    1  A    between atoms: C_2  and  C_3 
REMARK    2  A    between atoms: C_3  and  O_6 
REMARK    3  A    between atoms: C_3  and  C_4 
REMARK    4  A    between atoms: C_7  and  O_6 
REMARK    5  A    between atoms: C_9  and  C_10 
REMARK    6  A    between atoms: N_15  and  C_14 
REMARK    7  A    between atoms: N_20  and  C_19 
REMARK       I    between atoms: C_22  and  N_20 
ROOT
ATOM      1  C   LIG d   1      -3.069  78.321 115.673  0.00  0.00     0.161 C 
ATOM      2  C   LIG d   1      -3.194  79.364 114.740  0.00  0.00     0.016 C 
ATOM      3  C   LIG d   1      -2.451  79.428 113.539  0.00  0.00     0.038 C 
ATOM      4  C   LIG d   1      -1.636  78.369 113.114  0.00  0.00     0.028 C 
ATOM      5  C   LIG d   1      -1.093  77.525 114.262  0.00  0.00    -0.047 C 
ATOM      6  C   LIG d   1      -2.267  77.101 115.174  0.00  0.00     0.091 C 
ENDROOT
BRANCH   1   7
ATOM      7  O   LIG d   1      -4.374  77.912 116.127  0.00  0.00    -0.368 OA
BRANCH   7   8
ATOM      8  C   LIG d   1      -4.748  78.337 117.460  0.00  0.00     0.119 C 
BRANCH   8   9
ATOM      9  C   LIG d   1      -4.818  77.078 118.345  0.00  0.00     0.028 C 
ATOM     10  C   LIG d   1      -3.668  77.012 119.365  0.00  0.00     0.006 C 
ENDBRANCH   8   9
BRANCH   8  11
ATOM     11  C   LIG d   1      -6.161  78.927 117.481  0.00  0.00     0.028 C 
ATOM     12  C   LIG d   1      -6.174  80.431 117.795  0.00  0.00     0.006 C 
ENDBRANCH   8  11
ENDBRANCH   7   8
ENDBRANCH   1   7
BRANCH   6  13
ATOM     13  N   LIG d   1      -1.812  76.343 116.368  0.00  0.00    -0.311 N 
ATOM     14  C   LIG d   1      -1.732  75.014 116.406  0.00  0.00     0.210 C 
ATOM     15  C   LIG d   1      -1.258  74.432 117.742  0.00  0.00     0.109 C 
ATOM     16  O   LIG d   1      -1.977  74.263 115.450  0.00  0.00    -0.276 OA
ATOM     17  H   LIG d   1      -1.563  76.875 117.179  0.00  0.00     0.149 HD
ENDBRANCH   6  13
BRANCH   5  18
ATOM     18  N   LIG d   1      -0.376  76.378 113.672  0.00  0.00     0.381 N 
ATOM     19  H   LIG d   1       0.425  76.703 113.168  0.00  0.00    -0.090 HD
ATOM     20  H   LIG d   1      -0.987  75.911 113.026  0.00  0.00    -0.090 HD
ATOM     21  H   LIG d   1      -0.093  75.747 114.389  0.00  0.00    -0.090 HD
ENDBRANCH   5  18
BRANCH   3  22
ATOM     22  C   LIG d   1      -2.489  80.580 112.768  0.00  0.00     0.382 C 
ATOM     23  O   LIG d   1      -3.411  81.415 112.933  0.00  0.00    -0.241 OA
ATOM     24  O   LIG d   1      -1.638  80.774 111.880  0.00  0.00    -0.241 OA
ENDBRANCH   3  22
TORSDOF 7
ENDMDL
MODEL 3
REMARK VINA RESULT:      -5.6      2.170      2.591
REMARK  7 active torsions:
REMARK  status: ('A' for Active; 'I' for Inactive)
REMARK    1  A    between atoms: C_2  and  C_3 
REMARK    2  A    between atoms: C_3  and  O_6 
REMARK    3  A    between atoms: C_3  and  C_4 
REMARK    4  A    between atoms: C_7  and  O_6 
REMARK    5  A    between atoms: C_9  and  C_10 
REMARK    6  A    between atoms: N_15  and  C_14 
REMARK    7  A    between atoms: N_20  and  C_19 
REMARK       I    between atoms: C_22  and  N_20 
ROOT
ATOM      1  C   LIG d   1      -2.451  78.135 116.240  0.00  0.00     0.161 C 
ATOM      2  C   LIG d   1      -2.830  79.025 115.221  0.00  0.00     0.016 C 
ATOM      3  C   LIG d   1      -2.341  78.945 113.897  0.00  0.00     0.038 C 
ATOM      4  C   LIG d   1      -1.551  77.871 113.462  0.00  0.00     0.028 C 
ATOM      5  C   LIG d   1      -0.735  77.228 114.578  0.00  0.00    -0.047 C 
ATOM      6  C   LIG d   1      -1.676  76.891 115.757  0.00  0.00     0.091 C 
ENDROOT
BRANCH   1   7
ATOM      7  O   LIG d   1      -3.610  77.739 117.000  0.00  0.00    -0.368 OA
BRANCH   7   8
ATOM      8  C   LIG d   1      -4.796  77.419 116.232  0.00  0.00     0.119 C 
BRANCH   8   9
ATOM      9  C   LIG d   1      -6.010  77.978 117.000  0.00  0.00     0.028 C 
ATOM     10  C   LIG d   1      -5.791  79.427 117.469  0.00  0.00     0.006 C 
ENDBRANCH   8   9
BRANCH   8  11
ATOM     11  C   LIG d   1      -5.023  75.906 116.162  0.00  0.00     0.028 C 
ATOM     12  C   LIG d   1      -4.891  75.350 114.735  0.00  0.00     0.006 C 
ENDBRANCH   8  11
ENDBRANCH   7   8
ENDBRANCH   1   7
BRANCH   6  13
ATOM     13  N   LIG d   1      -0.944  76.335 116.925  0.00  0.00    -0.311 N 
ATOM     14  C   LIG d   1      -1.090  75.082 117.353  0.00  0.00     0.210 C 
ATOM     15  C   LIG d   1      -0.257  74.719 118.586  0.00  0.00     0.109 C 
ATOM     16  O   LIG d   1      -1.805  74.228 116.809  0.00  0.00    -0.276 OA
ATOM     17  H   LIG d   1      -0.319  76.951 117.407  0.00  0.00     0.149 HD
ENDBRANCH   6  13
BRANCH   5  18
ATOM     18  N   LIG d   1      -0.066  76.041 114.014  0.00  0.00     0.381 N 
ATOM     19  H   LIG d   1      -0.741  75.452 113.568  0.00  0.00    -0.090 HD
ATOM     20  H   LIG d   1       0.360  75.522 114.762  0.00  0.00    -0.090 HD
ATOM     21  H   LIG d   1       0.628  76.320 113.357  0.00  0.00    -0.090 HD
ENDBRANCH   5  18
BRANCH   3  22
ATOM     22  C   LIG d   1      -2.611  79.970 113.002  0.00  0.00     0.382 C 
ATOM     23  O   LIG d   1      -2.072  79.971 111.869  0.00  0.00    -0.241 OA
ATOM     24  O   LIG d   1      -3.351  80.916 113.330  0.00  0.00    -0.241 OA
ENDBRANCH   3  22
TORSDOF 7
ENDMDL
MODEL 4
REMARK VINA RESULT:      -5.5      1.234      2.004
REMARK  7 active torsions:
REMARK  status: ('A' for Active; 'I' for Inactive)
REMARK    1  A    between atoms: C_2  and  C_3 
REMARK    2  A    between atoms: C_3  and  O_6 
REMARK    3  A    between atoms: C_3  and  C_4 
REMARK    4  A    between atoms: C_7  and  O_6 
REMARK    5  A    between atoms: C_9  and  C_10 
REMARK    6  A    between atoms: N_15  and  C_14 
REMARK    7  A    between atoms: N_20  and  C_19 
REMARK       I    between atoms: C_22  and  N_20 
ROOT
ATOM      1  C   LIG d   1      -3.339  77.143 114.949  0.00  0.00     0.161 C 
ATOM      2  C   LIG d   1      -3.408  78.149 113.972  0.00  0.00     0.016 C 
ATOM      3  C   LIG d   1      -2.322  78.995 113.647  0.00  0.00     0.038 C 
ATOM      4  C   LIG d   1      -1.039  78.790 114.176  0.00  0.00     0.028 C 
ATOM      5  C   LIG d   1      -1.048  78.108 115.540  0.00  0.00    -0.047 C 
ATOM      6  C   LIG d   1      -1.916  76.832 115.457  0.00  0.00     0.091 C 
ENDROOT
BRANCH   1   7
ATOM      7  O   LIG d   1      -3.970  75.943 114.461  0.00  0.00    -0.368 OA
BRANCH   7   8
ATOM      8  C   LIG d   1      -5.054  75.419 115.267  0.00  0.00     0.119 C 
BRANCH   8   9
ATOM      9  C   LIG d   1      -6.168  74.963 114.305  0.00  0.00     0.028 C 
ATOM     10  C   LIG d   1      -6.668  76.104 113.403  0.00  0.00     0.006 C 
ENDBRANCH   8   9
BRANCH   8  11
ATOM     11  C   LIG d   1      -5.687  76.515 116.129  0.00  0.00     0.028 C 
ATOM     12  C   LIG d   1      -6.809  75.986 117.037  0.00  0.00     0.006 C 
ENDBRANCH   8  11
ENDBRANCH   7   8
ENDBRANCH   1   7
BRANCH   6  13
ATOM     13  N   LIG d   1      -2.046  76.149 116.771  0.00  0.00    -0.311 N 
ATOM     14  C   LIG d   1      -1.645  74.899 116.991  0.00  0.00     0.210 C 
ATOM     15  C   LIG d   1      -1.890  74.380 118.411  0.00  0.00     0.109 C 
ATOM     16  O   LIG d   1      -1.079  74.180 116.153  0.00  0.00    -0.276 OA
ATOM     17  H   LIG d   1      -2.466  76.670 117.516  0.00  0.00     0.149 HD
ENDBRANCH   6  13
BRANCH   5  18
ATOM     18  N   LIG d   1       0.353  77.832 115.909  0.00  0.00     0.381 N 
ATOM     19  H   LIG d   1       0.947  78.550 115.545  0.00  0.00    -0.090 HD
ATOM     20  H   LIG d   1       0.630  76.957 115.502  0.00  0.00    -0.090 HD
ATOM     21  H   LIG d   1       0.442  77.789 116.900  0.00  0.00    -0.090 HD
ENDBRANCH   5  18
BRANCH   3  22
ATOM     22  C   LIG d   1      -2.525  80.085 112.814  0.00  0.00     0.382 C 
ATOM     23  O   LIG d   1      -1.884  80.180 111.740  0.00  0.00    -0.241 OA
ATOM     24  O   LIG d   1      -3.308  80.995 113.144  0.00  0.00    -0.241 OA
ENDBRANCH   3  22
TORSDOF 7
ENDMDL
MODEL 5
REMARK VINA RESULT:      -5.5      1.950      4.964
REMARK  7 active torsions:
REMARK  status: ('A' for Active; 'I' for Inactive)
REMARK    1  A    between atoms: C_2  and  C_3 
REMARK    2  A    between atoms: C_3  and  O_6 
REMARK    3  A    between atoms: C_3  and  C_4 
REMARK    4  A    between atoms: C_7  and  O_6 
REMARK    5  A    between atoms: C_9  and  C_10 
REMARK    6  A    between atoms: N_15  and  C_14 
REMARK    7  A    between atoms: N_20  and  C_19 
REMARK       I    between atoms: C_22  and  N_20 
ROOT
ATOM      1  C   LIG d   1      -2.535  75.287 115.087  0.00  0.00     0.161 C 
ATOM      2  C   LIG d   1      -2.314  74.820 116.393  0.00  0.00     0.016 C 
ATOM      3  C   LIG d   1      -1.477  75.477 117.323  0.00  0.00     0.038 C 
ATOM      4  C   LIG d   1      -0.919  76.736 117.058  0.00  0.00     0.028 C 
ATOM      5  C   LIG d   1      -0.705  77.004 115.572  0.00  0.00    -0.047 C 
ATOM      6  C   LIG d   1      -2.023  76.718 114.817  0.00  0.00     0.091 C 
ENDROOT
BRANCH   1   7
ATOM      7  O   LIG d   1      -3.936  75.186 114.762  0.00  0.00    -0.368 OA
BRANCH   7   8
ATOM      8  C   LIG d   1      -4.855  75.249 115.880  0.00  0.00     0.119 C 
BRANCH   8   9
ATOM      9  C   LIG d   1      -6.013  74.278 115.581  0.00  0.00     0.028 C 
ATOM     10  C   LIG d   1      -7.294  74.636 116.354  0.00  0.00     0.006 C 
ENDBRANCH   8   9
BRANCH   8  11
ATOM     11  C   LIG d   1      -5.504  76.632 115.990  0.00  0.00     0.028 C 
ATOM     12  C   LIG d   1      -4.881  77.496 117.098  0.00  0.00     0.006 C 
ENDBRANCH   8  11
ENDBRANCH   7   8
ENDBRANCH   1   7
BRANCH   6  13
ATOM     13  N   LIG d   1      -1.879  76.873 113.346  0.00  0.00    -0.311 N 
ATOM     14  C   LIG d   1      -2.578  77.752 112.629  0.00  0.00     0.210 C 
ATOM     15  C   LIG d   1      -2.289  77.735 111.125  0.00  0.00     0.109 C 
ATOM     16  O   LIG d   1      -3.387  78.565 113.101  0.00  0.00    -0.276 OA
ATOM     17  H   LIG d   1      -1.221  76.274 112.886  0.00  0.00     0.149 HD
ENDBRANCH   6  13
BRANCH   5  18
ATOM     18  N   LIG d   1      -0.249  78.400 115.432  0.00  0.00     0.381 N 
ATOM     19  H   LIG d   1      -0.518  78.927 116.239  0.00  0.00    -0.090 HD
ATOM     20  H   LIG d   1      -0.693  78.807 114.627  0.00  0.00    -0.090 HD
ATOM     21  H   LIG d   1       0.741  78.426 115.323  0.00  0.00    -0.090 HD
ENDBRANCH   5  18
BRANCH   3  22
ATOM     22  C   LIG d   1      -1.158  74.854 118.521  0.00  0.00     0.382 C 
ATOM     23  O   LIG d   1      -2.025  74.180 119.127  0.00  0.00    -0.241 OA
ATOM     24  O   LIG d   1      -0.027  74.994 119.024  0.00  0.00    -0.241 OA
ENDBRANCH   3  22
TORSDOF 7
ENDMDL
MODEL 6
REMARK VINA RESULT:      -5.4      2.059      4.768
REMARK  7 active torsions:
REMARK  status: ('A' for Active; 'I' for Inactive)
REMARK    1  A    between atoms: C_2  and  C_3 
REMARK    2  A    between atoms: C_3  and  O_6 
REMARK    3  A    between atoms: C_3  and  C_4 
REMARK    4  A    between atoms: C_7  and  O_6 
REMARK    5  A    between atoms: C_9  and  C_10 
REMARK    6  A    between atoms: N_15  and  C_14 
REMARK    7  A    between atoms: N_20  and  C_19 
REMARK       I    between atoms: C_22  and  N_20 
ROOT
ATOM      1  C   LIG d   1      -3.448  75.802 114.988  0.00  0.00     0.161 C 
ATOM      2  C   LIG d   1      -3.551  75.604 116.375  0.00  0.00     0.016 C 
ATOM      3  C   LIG d   1      -3.188  76.582 117.330  0.00  0.00     0.038 C 
ATOM      4  C   LIG d   1      -2.837  77.888 116.957  0.00  0.00     0.028 C 
ATOM      5  C   LIG d   1      -2.235  77.978 115.559  0.00  0.00    -0.047 C 
ATOM      6  C   LIG d   1      -3.172  77.260 114.562  0.00  0.00     0.091 C 
ENDROOT
BRANCH   1   7
ATOM      7  O   LIG d   1      -4.631  75.304 114.333  0.00  0.00    -0.368 OA
BRANCH   7   8
ATOM      8  C   LIG d   1      -5.885  75.535 115.022  0.00  0.00     0.119 C 
BRANCH   8   9
ATOM      9  C   LIG d   1      -6.362  74.181 115.581  0.00  0.00     0.028 C 
ATOM     10  C   LIG d   1      -7.563  74.328 116.530  0.00  0.00     0.006 C 
ENDBRANCH   8   9
BRANCH   8  11
ATOM     11  C   LIG d   1      -6.981  75.981 114.049  0.00  0.00     0.028 C 
ATOM     12  C   LIG d   1      -6.422  76.450 112.696  0.00  0.00     0.006 C 
ENDBRANCH   8  11
ENDBRANCH   7   8
ENDBRANCH   1   7
BRANCH   6  13
ATOM     13  N   LIG d   1      -2.616  77.227 113.184  0.00  0.00    -0.311 N 
ATOM     14  C   LIG d   1      -2.807  78.199 112.293  0.00  0.00     0.210 C 
ATOM     15  C   LIG d   1      -2.163  77.958 110.925  0.00  0.00     0.109 C 
ATOM     16  O   LIG d   1      -3.421  79.253 112.517  0.00  0.00    -0.276 OA
ATOM     17  H   LIG d   1      -2.078  76.423 112.928  0.00  0.00     0.149 HD
ENDBRANCH   6  13
BRANCH   5  18
ATOM     18  N   LIG d   1      -2.044  79.407 115.247  0.00  0.00     0.381 N 
ATOM     19  H   LIG d   1      -2.403  79.967 115.993  0.00  0.00    -0.090 HD
ATOM     20  H   LIG d   1      -2.556  79.628 114.411  0.00  0.00    -0.090 HD
ATOM     21  H   LIG d   1      -1.076  79.600 115.113  0.00  0.00    -0.090 HD
ENDBRANCH   5  18
BRANCH   3  22
ATOM     22  C   LIG d   1      -3.137  76.244 118.673  0.00  0.00     0.382 C 
ATOM     23  O   LIG d   1      -3.798  76.903 119.512  0.00  0.00    -0.241 OA
ATOM     24  O   LIG d   1      -2.403  75.316 119.064  0.00  0.00    -0.241 OA
ENDBRANCH   3  22
TORSDOF 7
ENDMDL
MODEL 7
REMARK VINA RESULT:      -5.3      2.645      3.418
REMARK  7 active torsions:
REMARK  status: ('A' for Active; 'I' for Inactive)
REMARK    1  A    between atoms: C_2  and  C_3 
REMARK    2  A    between atoms: C_3  and  O_6 
REMARK    3  A    between atoms: C_3  and  C_4 
REMARK    4  A    between atoms: C_7  and  O_6 
REMARK    5  A    between atoms: C_9  and  C_10 
REMARK    6  A    between atoms: N_15  and  C_14 
REMARK    7  A    between atoms: N_20  and  C_19 
REMARK       I    between atoms: C_22  and  N_20 
ROOT
ATOM      1  C   LIG d   1      -3.062  78.315 115.621  0.00  0.00     0.161 C 
ATOM      2  C   LIG d   1      -3.173  79.387 114.720  0.00  0.00     0.016 C 
ATOM      3  C   LIG d   1      -2.455  79.460 113.504  0.00  0.00     0.038 C 
ATOM      4  C   LIG d   1      -1.687  78.385 113.032  0.00  0.00     0.028 C 
ATOM      5  C   LIG d   1      -1.147  77.492 114.143  0.00  0.00    -0.047 C 
ATOM      6  C   LIG d   1      -2.315  77.083 115.070  0.00  0.00     0.091 C 
ENDROOT
BRANCH   1   7
ATOM      7  O   LIG d   1      -4.371  77.937 116.093  0.00  0.00    -0.368 OA
BRANCH   7   8
ATOM      8  C   LIG d   1      -4.706  78.352 117.440  0.00  0.00     0.119 C 
BRANCH   8   9
ATOM      9  C   LIG d   1      -5.469  79.687 117.338  0.00  0.00     0.028 C 
ATOM     10  C   LIG d   1      -6.819  79.649 118.074  0.00  0.00     0.006 C 
ENDBRANCH   8   9
BRANCH   8  11
ATOM     11  C   LIG d   1      -3.448  78.665 118.256  0.00  0.00     0.028 C 
ATOM     12  C   LIG d   1      -3.206  77.656 119.389  0.00  0.00     0.006 C 
ENDBRANCH   8  11
ENDBRANCH   7   8
ENDBRANCH   1   7
BRANCH   6  13
ATOM     13  N   LIG d   1      -1.860  76.276 116.233  0.00  0.00    -0.311 N 
ATOM     14  C   LIG d   1      -2.472  75.165 116.639  0.00  0.00     0.210 C 
ATOM     15  C   LIG d   1      -1.852  74.498 117.870  0.00  0.00     0.109 C 
ATOM     16  O   LIG d   1      -3.451  74.652 116.077  0.00  0.00    -0.276 OA
ATOM     17  H   LIG d   1      -1.054  76.604 116.728  0.00  0.00     0.149 HD
ENDBRANCH   6  13
BRANCH   5  18
ATOM     18  N   LIG d   1      -0.484  76.339 113.506  0.00  0.00     0.381 N 
ATOM     19  H   LIG d   1       0.431  76.217 113.893  0.00  0.00    -0.090 HD
ATOM     20  H   LIG d   1      -0.388  76.521 112.523  0.00  0.00    -0.090 HD
ATOM     21  H   LIG d   1      -1.024  75.514 113.647  0.00  0.00    -0.090 HD
ENDBRANCH   5  18
BRANCH   3  22
ATOM     22  C   LIG d   1      -2.470  80.633 112.766  0.00  0.00     0.382 C 
ATOM     23  O   LIG d   1      -3.406  81.456 112.915  0.00  0.00    -0.241 OA
ATOM     24  O   LIG d   1      -1.583  80.859 111.921  0.00  0.00    -0.241 OA
ENDBRANCH   3  22
TORSDOF 7
ENDMDL
MODEL 8
REMARK VINA RESULT:      -5.0      2.295      4.856
REMARK  7 active torsions:
REMARK  status: ('A' for Active; 'I' for Inactive)
REMARK    1  A    between atoms: C_2  and  C_3 
REMARK    2  A    between atoms: C_3  and  O_6 
REMARK    3  A    between atoms: C_3  and  C_4 
REMARK    4  A    between atoms: C_7  and  O_6 
REMARK    5  A    between atoms: C_9  and  C_10 
REMARK    6  A    between atoms: N_15  and  C_14 
REMARK    7  A    between atoms: N_20  and  C_19 
REMARK       I    between atoms: C_22  and  N_20 
ROOT
ATOM      1  C   LIG d   1      -3.098  75.581 115.238  0.00  0.00     0.161 C 
ATOM      2  C   LIG d   1      -4.355  75.679 114.619  0.00  0.00     0.016 C 
ATOM      3  C   LIG d   1      -5.504  76.189 115.267  0.00  0.00     0.038 C 
ATOM      4  C   LIG d   1      -5.437  76.780 116.538  0.00  0.00     0.028 C 
ATOM      5  C   LIG d   1      -4.295  76.246 117.395  0.00  0.00    -0.047 C 
ATOM      6  C   LIG d   1      -2.980  76.323 116.586  0.00  0.00     0.091 C 
ENDROOT
BRANCH   1   7
ATOM      7  O   LIG d   1      -2.070  76.025 114.330  0.00  0.00    -0.368 OA
BRANCH   7   8
ATOM      8  C   LIG d   1      -2.374  77.211 113.555  0.00  0.00     0.119 C 
BRANCH   8   9
ATOM      9  C   LIG d   1      -1.763  77.018 112.154  0.00  0.00     0.028 C 
ATOM     10  C   LIG d   1      -2.524  77.798 111.069  0.00  0.00     0.006 C 
ENDBRANCH   8   9
BRANCH   8  11
ATOM     11  C   LIG d   1      -1.680  78.448 114.133  0.00  0.00     0.028 C 
ATOM     12  C   LIG d   1      -2.668  79.459 114.736  0.00  0.00     0.006 C 
ENDBRANCH   8  11
ENDBRANCH   7   8
ENDBRANCH   1   7
BRANCH   6  13
ATOM     13  N   LIG d   1      -1.827  75.742 117.321  0.00  0.00    -0.311 N 
ATOM     14  C   LIG d   1      -0.742  76.440 117.653  0.00  0.00     0.210 C 
ATOM     15  C   LIG d   1       0.338  75.643 118.391  0.00  0.00     0.109 C 
ATOM     16  O   LIG d   1      -0.586  77.651 117.436  0.00  0.00    -0.276 OA
ATOM     17  H   LIG d   1      -1.883  74.772 117.564  0.00  0.00     0.149 HD
ENDBRANCH   6  13
BRANCH   5  18
ATOM     18  N   LIG d   1      -4.258  77.043 118.636  0.00  0.00     0.381 N 
ATOM     19  H   LIG d   1      -5.075  76.858 119.182  0.00  0.00    -0.090 HD
ATOM     20  H   LIG d   1      -4.253  78.019 118.395  0.00  0.00    -0.090 HD
ATOM     21  H   LIG d   1      -3.441  76.819 119.161  0.00  0.00    -0.090 HD
ENDBRANCH   5  18
BRANCH   3  22
ATOM     22  C   LIG d   1      -6.744  76.075 114.659  0.00  0.00     0.382 C 
ATOM     23  O   LIG d   1      -7.730  75.663 115.317  0.00  0.00    -0.241 OA
ATOM     24  O   LIG d   1      -6.880  76.336 113.448  0.00  0.00    -0.241 OA
ENDBRANCH   3  22
TORSDOF 7
ENDMDL
MODEL 9
REMARK VINA RESULT:      -5.0      3.351      4.593
REMARK  7 active torsions:
REMARK  status: ('A' for Active; 'I' for Inactive)
REMARK    1  A    between atoms: C_2  and  C_3 
REMARK    2  A    between atoms: C_3  and  O_6 
REMARK    3  A    between atoms: C_3  and  C_4 
REMARK    4  A    between atoms: C_7  and  O_6 
REMARK    5  A    between atoms: C_9  and  C_10 
REMARK    6  A    between atoms: N_15  and  C_14 
REMARK    7  A    between atoms: N_20  and  C_19 
REMARK       I    between atoms: C_22  and  N_20 
ROOT
ATOM      1  C   LIG d   1      -4.726  77.169 116.310  0.00  0.00     0.161 C 
ATOM      2  C   LIG d   1      -5.591  78.200 116.712  0.00  0.00     0.016 C 
ATOM      3  C   LIG d   1      -5.183  79.291 117.514  0.00  0.00     0.038 C 
ATOM      4  C   LIG d   1      -3.836  79.505 117.845  0.00  0.00     0.028 C 
ATOM      5  C   LIG d   1      -3.012  78.222 117.886  0.00  0.00    -0.047 C 
ATOM      6  C   LIG d   1      -3.229  77.443 116.568  0.00  0.00     0.091 C 
ENDROOT
BRANCH   1   7
ATOM      7  O   LIG d   1      -4.946  76.861 114.920  0.00  0.00    -0.368 OA
BRANCH   7   8
ATOM      8  C   LIG d   1      -5.598  75.597 114.643  0.00  0.00     0.119 C 
BRANCH   8   9
ATOM      9  C   LIG d   1      -7.012  75.912 114.116  0.00  0.00     0.028 C 
ATOM     10  C   LIG d   1      -6.995  76.443 112.672  0.00  0.00     0.006 C 
ENDBRANCH   8   9
BRANCH   8  11
ATOM     11  C   LIG d   1      -5.814  74.789 115.925  0.00  0.00     0.028 C 
ATOM     12  C   LIG d   1      -7.298  74.655 116.302  0.00  0.00     0.006 C 
ENDBRANCH   8  11
ENDBRANCH   7   8
ENDBRANCH   1   7
BRANCH   6  13
ATOM     13  N   LIG d   1      -2.525  76.135 116.560  0.00  0.00    -0.311 N 
ATOM     14  C   LIG d   1      -1.902  75.644 115.490  0.00  0.00     0.210 C 
ATOM     15  C   LIG d   1      -1.256  74.270 115.691  0.00  0.00     0.109 C 
ATOM     16  O   LIG d   1      -1.796  76.231 114.403  0.00  0.00    -0.276 OA
ATOM     17  H   LIG d   1      -2.534  75.607 117.411  0.00  0.00     0.149 HD
ENDBRANCH   6  13
BRANCH   5  18
ATOM     18  N   LIG d   1      -1.604  78.605 118.106  0.00  0.00     0.381 N 
ATOM     19  H   LIG d   1      -1.000  77.878 117.775  0.00  0.00    -0.090 HD
ATOM     20  H   LIG d   1      -1.449  78.720 119.092  0.00  0.00    -0.090 HD
ATOM     21  H   LIG d   1      -1.403  79.456 117.629  0.00  0.00    -0.090 HD
ENDBRANCH   5  18
BRANCH   3  22
ATOM     22  C   LIG d   1      -6.133  80.161 118.027  0.00  0.00     0.382 C 
ATOM     23  O   LIG d   1      -6.675  81.010 117.279  0.00  0.00    -0.241 OA
ATOM     24  O   LIG d   1      -6.423  80.136 119.238  0.00  0.00    -0.241 OA
ENDBRANCH   3  22
TORSDOF 7
ENDMDL
