MODEL 1
REMARK VINA RESULT:      -4.7      0.000      0.000
REMARK  7 active torsions:
REMARK  status: ('A' for Active; 'I' for Inactive)
REMARK    1  A    between atoms: C_2  and  C_3 
REMARK    2  A    between atoms: C_3  and  O_6 
REMARK    3  A    between atoms: C_3  and  C_4 
REMARK    4  A    between atoms: C_7  and  O_6 
REMARK    5  A    between atoms: C_9  and  C_10 
REMARK    6  A    between atoms: N_15  and  C_14 
REMARK    7  A    between atoms: N_20  and  C_19 
REMARK       I    between atoms: C_22  and  N_20 
ROOT
ATOM      1  C   LIG d   1      -3.015  77.814 116.431  0.00  0.00     0.161 C 
ATOM      2  C   LIG d   1      -3.167  78.675 115.332  0.00  0.00     0.016 C 
ATOM      3  C   LIG d   1      -2.524  78.472 114.089  0.00  0.00     0.038 C 
ATOM      4  C   LIG d   1      -1.799  77.303 113.811  0.00  0.00     0.028 C 
ATOM      5  C   LIG d   1      -1.204  76.650 115.054  0.00  0.00    -0.047 C 
ATOM      6  C   LIG d   1      -2.318  76.475 116.111  0.00  0.00     0.091 C 
ENDROOT
BRANCH   1   7
ATOM      7  O   LIG d   1      -4.297  77.577 117.046  0.00  0.00    -0.368 OA
BRANCH   7   8
ATOM      8  C   LIG d   1      -5.454  77.729 116.188  0.00  0.00     0.119 C 
BRANCH   8   9
ATOM      9  C   LIG d   1      -6.574  78.370 117.030  0.00  0.00     0.028 C 
ATOM     10  C   LIG d   1      -6.274  79.835 117.388  0.00  0.00     0.006 C 
ENDBRANCH   8   9
BRANCH   8  11
ATOM     11  C   LIG d   1      -6.005  76.369 115.749  0.00  0.00     0.028 C 
ATOM     12  C   LIG d   1      -5.931  76.159 114.228  0.00  0.00     0.006 C 
ENDBRANCH   8  11
ENDBRANCH   7   8
ENDBRANCH   1   7
BRANCH   6  13
ATOM     13  N   LIG d   1      -1.803  75.919 117.390  0.00  0.00    -0.311 N 
ATOM     14  C   LIG d   1      -2.331  74.855 117.992  0.00  0.00     0.210 C 
ATOM     15  C   LIG d   1      -1.661  74.460 119.312  0.00  0.00     0.109 C 
ATOM     16  O   LIG d   1      -3.270  74.181 117.543  0.00  0.00    -0.276 OA
ATOM     17  H   LIG d   1      -1.023  76.386 117.809  0.00  0.00     0.149 HD
ENDBRANCH   6  13
BRANCH   5  18
ATOM     18  N   LIG d   1      -0.595  75.373 114.638  0.00  0.00     0.381 N 
ATOM     19  H   LIG d   1      -0.753  75.225 113.661  0.00  0.00    -0.090 HD
ATOM     20  H   LIG d   1      -1.033  74.624 115.145  0.00  0.00    -0.090 HD
ATOM     21  H   LIG d   1       0.383  75.384 114.826  0.00  0.00    -0.090 HD
ENDBRANCH   5  18
BRANCH   3  22
ATOM     22  C   LIG d   1      -2.569  79.464 113.122  0.00  0.00     0.382 C 
ATOM     23  O   LIG d   1      -1.874  79.359 112.082  0.00  0.00    -0.241 OA
ATOM     24  O   LIG d   1      -3.262  80.485 113.295  0.00  0.00    -0.241 OA
ENDBRANCH   3  22
TORSDOF 7
ENDMDL
MODEL 2
REMARK VINA RESULT:      -4.5      1.732      2.124
REMARK  7 active torsions:
REMARK  status: ('A' for Active; 'I' for Inactive)
REMARK    1  A    between atoms: C_2  and  C_3 
REMARK    2  A    between atoms: C_3  and  O_6 
REMARK    3  A    between atoms: C_3  and  C_4 
REMARK    4  A    between atoms: C_7  and  O_6 
REMARK    5  A    between atoms: C_9  and  C_10 
REMARK    6  A    between atoms: N_15  and  C_14 
REMARK    7  A    between atoms: N_20  and  C_19 
REMARK       I    between atoms: C_22  and  N_20 
ROOT
ATOM      1  C   LIG d   1      -3.356  76.901 114.650  0.00  0.00     0.161 C 
ATOM      2  C   LIG d   1      -3.251  77.723 113.516  0.00  0.00     0.016 C 
ATOM      3  C   LIG d   1      -2.065  78.404 113.156  0.00  0.00     0.038 C 
ATOM      4  C   LIG d   1      -0.852  78.187 113.827  0.00  0.00     0.028 C 
ATOM      5  C   LIG d   1      -1.033  77.757 115.279  0.00  0.00    -0.047 C 
ATOM      6  C   LIG d   1      -2.014  76.564 115.332  0.00  0.00     0.091 C 
ENDROOT
BRANCH   1   7
ATOM      7  O   LIG d   1      -4.064  75.692 114.313  0.00  0.00    -0.368 OA
BRANCH   7   8
ATOM      8  C   LIG d   1      -5.471  75.659 114.658  0.00  0.00     0.119 C 
BRANCH   8   9
ATOM      9  C   LIG d   1      -5.712  76.748 115.722  0.00  0.00     0.028 C 
ATOM     10  C   LIG d   1      -7.185  76.828 116.157  0.00  0.00     0.006 C 
ENDBRANCH   8   9
BRANCH   8  11
ATOM     11  C   LIG d   1      -5.848  74.339 115.337  0.00  0.00     0.028 C 
ATOM     12  C   LIG d   1      -5.220  74.186 116.731  0.00  0.00     0.006 C 
ENDBRANCH   8  11
ENDBRANCH   7   8
ENDBRANCH   1   7
BRANCH   6  13
ATOM     13  N   LIG d   1      -2.311  76.135 116.723  0.00  0.00    -0.311 N 
ATOM     14  C   LIG d   1      -1.662  75.151 117.342  0.00  0.00     0.210 C 
ATOM     15  C   LIG d   1      -2.139  74.856 118.767  0.00  0.00     0.109 C 
ATOM     16  O   LIG d   1      -0.714  74.514 116.856  0.00  0.00    -0.276 OA
ATOM     17  H   LIG d   1      -3.045  76.619 117.203  0.00  0.00     0.149 HD
ENDBRANCH   6  13
BRANCH   5  18
ATOM     18  N   LIG d   1       0.302  77.432 115.817  0.00  0.00     0.381 N 
ATOM     19  H   LIG d   1       0.849  76.978 115.113  0.00  0.00    -0.090 HD
ATOM     20  H   LIG d   1       0.196  76.801 116.591  0.00  0.00    -0.090 HD
ATOM     21  H   LIG d   1       0.760  78.264 116.118  0.00  0.00    -0.090 HD
ENDBRANCH   5  18
BRANCH   3  22
ATOM     22  C   LIG d   1      -2.095  79.344 112.137  0.00  0.00     0.382 C 
ATOM     23  O   LIG d   1      -2.170  80.566 112.414  0.00  0.00    -0.241 OA
ATOM     24  O   LIG d   1      -2.091  78.984 110.945  0.00  0.00    -0.241 OA
ENDBRANCH   3  22
TORSDOF 7
ENDMDL
MODEL 3
REMARK VINA RESULT:      -4.5      2.519      5.103
REMARK  7 active torsions:
REMARK  status: ('A' for Active; 'I' for Inactive)
REMARK    1  A    between atoms: C_2  and  C_3 
REMARK    2  A    between atoms: C_3  and  O_6 
REMARK    3  A    between atoms: C_3  and  C_4 
REMARK    4  A    between atoms: C_7  and  O_6 
REMARK    5  A    between atoms: C_9  and  C_10 
REMARK    6  A    between atoms: N_15  and  C_14 
REMARK    7  A    between atoms: N_20  and  C_19 
REMARK       I    between atoms: C_22  and  N_20 
ROOT
ATOM      1  C   LIG d   1      -1.385  75.418 115.338  0.00  0.00     0.161 C 
ATOM      2  C   LIG d   1      -0.960  75.032 116.620  0.00  0.00     0.016 C 
ATOM      3  C   LIG d   1      -0.366  75.922 117.544  0.00  0.00     0.038 C 
ATOM      4  C   LIG d   1      -0.295  77.302 117.303  0.00  0.00     0.028 C 
ATOM      5  C   LIG d   1      -0.251  77.656 115.820  0.00  0.00    -0.047 C 
ATOM      6  C   LIG d   1      -1.416  76.942 115.099  0.00  0.00     0.091 C 
ENDROOT
BRANCH   1   7
ATOM      7  O   LIG d   1      -2.674  74.839 115.056  0.00  0.00    -0.368 OA
BRANCH   7   8
ATOM      8  C   LIG d   1      -3.814  75.495 115.664  0.00  0.00     0.119 C 
BRANCH   8   9
ATOM      9  C   LIG d   1      -4.181  74.703 116.934  0.00  0.00     0.028 C 
ATOM     10  C   LIG d   1      -4.302  75.604 118.174  0.00  0.00     0.006 C 
ENDBRANCH   8   9
BRANCH   8  11
ATOM     11  C   LIG d   1      -5.050  75.414 114.764  0.00  0.00     0.028 C 
ATOM     12  C   LIG d   1      -5.931  74.193 115.070  0.00  0.00     0.006 C 
ENDBRANCH   8  11
ENDBRANCH   7   8
ENDBRANCH   1   7
BRANCH   6  13
ATOM     13  N   LIG d   1      -1.397  77.167 113.630  0.00  0.00    -0.311 N 
ATOM     14  C   LIG d   1      -2.347  77.836 112.978  0.00  0.00     0.210 C 
ATOM     15  C   LIG d   1      -2.145  77.935 111.463  0.00  0.00     0.109 C 
ATOM     16  O   LIG d   1      -3.322  78.383 113.515  0.00  0.00    -0.276 OA
ATOM     17  H   LIG d   1      -0.626  76.784 113.120  0.00  0.00     0.149 HD
ENDBRANCH   6  13
BRANCH   5  18
ATOM     18  N   LIG d   1      -0.317  79.126 115.711  0.00  0.00     0.381 N 
ATOM     19  H   LIG d   1      -1.269  79.415 115.606  0.00  0.00    -0.090 HD
ATOM     20  H   LIG d   1       0.192  79.415 114.894  0.00  0.00    -0.090 HD
ATOM     21  H   LIG d   1       0.078  79.547 116.523  0.00  0.00    -0.090 HD
ENDBRANCH   5  18
BRANCH   3  22
ATOM     22  C   LIG d   1       0.200  75.427 118.709  0.00  0.00     0.382 C 
ATOM     23  O   LIG d   1       0.440  74.200 118.817  0.00  0.00    -0.241 OA
ATOM     24  O   LIG d   1       0.434  76.185 119.670  0.00  0.00    -0.241 OA
ENDBRANCH   3  22
TORSDOF 7
ENDMDL
MODEL 4
REMARK VINA RESULT:      -4.3      2.156      5.142
REMARK  7 active torsions:
REMARK  status: ('A' for Active; 'I' for Inactive)
REMARK    1  A    between atoms: C_2  and  C_3 
REMARK    2  A    between atoms: C_3  and  O_6 
REMARK    3  A    between atoms: C_3  and  C_4 
REMARK    4  A    between atoms: C_7  and  O_6 
REMARK    5  A    between atoms: C_9  and  C_10 
REMARK    6  A    between atoms: N_15  and  C_14 
REMARK    7  A    between atoms: N_20  and  C_19 
REMARK       I    between atoms: C_22  and  N_20 
ROOT
ATOM      1  C   LIG d   1      -2.015  76.107 115.089  0.00  0.00     0.161 C 
ATOM      2  C   LIG d   1      -2.031  75.669 116.424  0.00  0.00     0.016 C 
ATOM      3  C   LIG d   1      -1.376  76.352 117.475  0.00  0.00     0.038 C 
ATOM      4  C   LIG d   1      -0.784  77.609 117.286  0.00  0.00     0.028 C 
ATOM      5  C   LIG d   1      -0.307  77.846 115.857  0.00  0.00    -0.047 C 
ATOM      6  C   LIG d   1      -1.467  77.535 114.883  0.00  0.00     0.091 C 
ENDROOT
BRANCH   1   7
ATOM      7  O   LIG d   1      -3.334  75.990 114.520  0.00  0.00    -0.368 OA
BRANCH   7   8
ATOM      8  C   LIG d   1      -4.423  75.838 115.463  0.00  0.00     0.119 C 
BRANCH   8   9
ATOM      9  C   LIG d   1      -5.286  74.653 114.987  0.00  0.00     0.028 C 
ATOM     10  C   LIG d   1      -6.278  74.180 116.063  0.00  0.00     0.006 C 
ENDBRANCH   8   9
BRANCH   8  11
ATOM     11  C   LIG d   1      -5.355  77.054 115.439  0.00  0.00     0.028 C 
ATOM     12  C   LIG d   1      -4.871  78.193 116.351  0.00  0.00     0.006 C 
ENDBRANCH   8  11
ENDBRANCH   7   8
ENDBRANCH   1   7
BRANCH   6  13
ATOM     13  N   LIG d   1      -1.061  77.660 113.459  0.00  0.00    -0.311 N 
ATOM     14  C   LIG d   1      -1.213  78.776 112.749  0.00  0.00     0.210 C 
ATOM     15  C   LIG d   1      -0.746  78.684 111.292  0.00  0.00     0.109 C 
ATOM     16  O   LIG d   1      -1.660  79.843 113.195  0.00  0.00    -0.276 OA
ATOM     17  H   LIG d   1      -0.660  76.851 113.026  0.00  0.00     0.149 HD
ENDBRANCH   6  13
BRANCH   5  18
ATOM     18  N   LIG d   1       0.162  79.242 115.769  0.00  0.00     0.381 N 
ATOM     19  H   LIG d   1       1.121  79.295 116.051  0.00  0.00    -0.090 HD
ATOM     20  H   LIG d   1      -0.383  79.808 116.394  0.00  0.00    -0.090 HD
ATOM     21  H   LIG d   1       0.065  79.576 114.835  0.00  0.00    -0.090 HD
ENDBRANCH   5  18
BRANCH   3  22
ATOM     22  C   LIG d   1      -1.276  75.758 118.723  0.00  0.00     0.382 C 
ATOM     23  O   LIG d   1      -0.164  75.698 119.302  0.00  0.00    -0.241 OA
ATOM     24  O   LIG d   1      -2.275  75.241 119.259  0.00  0.00    -0.241 OA
ENDBRANCH   3  22
TORSDOF 7
ENDMDL
MODEL 5
REMARK VINA RESULT:      -4.3      2.285      5.042
REMARK  7 active torsions:
REMARK  status: ('A' for Active; 'I' for Inactive)
REMARK    1  A    between atoms: C_2  and  C_3 
REMARK    2  A    between atoms: C_3  and  O_6 
REMARK    3  A    between atoms: C_3  and  C_4 
REMARK    4  A    between atoms: C_7  and  O_6 
REMARK    5  A    between atoms: C_9  and  C_10 
REMARK    6  A    between atoms: N_15  and  C_14 
REMARK    7  A    between atoms: N_20  and  C_19 
REMARK       I    between atoms: C_22  and  N_20 
ROOT
ATOM      1  C   LIG d   1      -2.489  76.031 115.883  0.00  0.00     0.161 C 
ATOM      2  C   LIG d   1      -1.924  75.660 117.114  0.00  0.00     0.016 C 
ATOM      3  C   LIG d   1      -0.837  76.342 117.709  0.00  0.00     0.038 C 
ATOM      4  C   LIG d   1      -0.337  77.542 117.181  0.00  0.00     0.028 C 
ATOM      5  C   LIG d   1      -0.543  77.674 115.675  0.00  0.00    -0.047 C 
ATOM      6  C   LIG d   1      -2.029  77.403 115.347  0.00  0.00     0.091 C 
ENDROOT
BRANCH   1   7
ATOM      7  O   LIG d   1      -3.927  75.984 115.972  0.00  0.00    -0.368 OA
BRANCH   7   8
ATOM      8  C   LIG d   1      -4.531  74.673 115.855  0.00  0.00     0.119 C 
BRANCH   8   9
ATOM      9  C   LIG d   1      -5.487  74.710 114.647  0.00  0.00     0.028 C 
ATOM     10  C   LIG d   1      -5.843  76.145 114.224  0.00  0.00     0.006 C 
ENDBRANCH   8   9
BRANCH   8  11
ATOM     11  C   LIG d   1      -5.417  74.356 117.063  0.00  0.00     0.028 C 
ATOM     12  C   LIG d   1      -5.649  75.577 117.967  0.00  0.00     0.006 C 
ENDBRANCH   8  11
ENDBRANCH   7   8
ENDBRANCH   1   7
BRANCH   6  13
ATOM     13  N   LIG d   1      -2.301  77.429 113.886  0.00  0.00    -0.311 N 
ATOM     14  C   LIG d   1      -2.760  78.503 113.245  0.00  0.00     0.210 C 
ATOM     15  C   LIG d   1      -2.991  78.309 111.743  0.00  0.00     0.109 C 
ATOM     16  O   LIG d   1      -2.968  79.606 113.772  0.00  0.00    -0.276 OA
ATOM     17  H   LIG d   1      -2.130  76.585 113.375  0.00  0.00     0.149 HD
ENDBRANCH   6  13
BRANCH   5  18
ATOM     18  N   LIG d   1      -0.101  79.025 115.282  0.00  0.00     0.381 N 
ATOM     19  H   LIG d   1       0.498  79.405 115.987  0.00  0.00    -0.090 HD
ATOM     20  H   LIG d   1      -0.907  79.620 115.199  0.00  0.00    -0.090 HD
ATOM     21  H   LIG d   1       0.382  78.986 114.411  0.00  0.00    -0.090 HD
ENDBRANCH   5  18
BRANCH   3  22
ATOM     22  C   LIG d   1      -0.213  75.802 118.823  0.00  0.00     0.382 C 
ATOM     23  O   LIG d   1       0.320  74.669 118.755  0.00  0.00    -0.241 OA
ATOM     24  O   LIG d   1      -0.215  76.415 119.907  0.00  0.00    -0.241 OA
ENDBRANCH   3  22
TORSDOF 7
ENDMDL
MODEL 6
REMARK VINA RESULT:      -4.2      2.531      4.031
REMARK  7 active torsions:
REMARK  status: ('A' for Active; 'I' for Inactive)
REMARK    1  A    between atoms: C_2  and  C_3 
REMARK    2  A    between atoms: C_3  and  O_6 
REMARK    3  A    between atoms: C_3  and  C_4 
REMARK    4  A    between atoms: C_7  and  O_6 
REMARK    5  A    between atoms: C_9  and  C_10 
REMARK    6  A    between atoms: N_15  and  C_14 
REMARK    7  A    between atoms: N_20  and  C_19 
REMARK       I    between atoms: C_22  and  N_20 
ROOT
ATOM      1  C   LIG d   1      -4.715  76.881 118.044  0.00  0.00     0.161 C 
ATOM      2  C   LIG d   1      -5.669  77.879 118.308  0.00  0.00     0.016 C 
ATOM      3  C   LIG d   1      -5.702  79.121 117.634  0.00  0.00     0.038 C 
ATOM      4  C   LIG d   1      -4.871  79.392 116.537  0.00  0.00     0.028 C 
ATOM      5  C   LIG d   1      -3.559  78.614 116.564  0.00  0.00    -0.047 C 
ATOM      6  C   LIG d   1      -3.870  77.114 116.774  0.00  0.00     0.091 C 
ENDROOT
BRANCH   1   7
ATOM      7  O   LIG d   1      -5.359  75.593 117.988  0.00  0.00    -0.368 OA
BRANCH   7   8
ATOM      8  C   LIG d   1      -6.369  75.429 116.961  0.00  0.00     0.119 C 
BRANCH   8   9
ATOM      9  C   LIG d   1      -7.711  75.166 117.670  0.00  0.00     0.028 C 
ATOM     10  C   LIG d   1      -8.762  76.244 117.356  0.00  0.00     0.006 C 
ENDBRANCH   8   9
BRANCH   8  11
ATOM     11  C   LIG d   1      -6.105  74.180 116.115  0.00  0.00     0.028 C 
ATOM     12  C   LIG d   1      -5.602  74.514 114.702  0.00  0.00     0.006 C 
ENDBRANCH   8  11
ENDBRANCH   7   8
ENDBRANCH   1   7
BRANCH   6  13
ATOM     13  N   LIG d   1      -2.638  76.292 116.897  0.00  0.00    -0.311 N 
ATOM     14  C   LIG d   1      -2.044  75.703 115.861  0.00  0.00     0.210 C 
ATOM     15  C   LIG d   1      -0.797  74.885 116.210  0.00  0.00     0.109 C 
ATOM     16  O   LIG d   1      -2.412  75.808 114.681  0.00  0.00    -0.276 OA
ATOM     17  H   LIG d   1      -2.254  76.180 117.815  0.00  0.00     0.149 HD
ENDBRANCH   6  13
BRANCH   5  18
ATOM     18  N   LIG d   1      -2.854  78.886 115.298  0.00  0.00     0.381 N 
ATOM     19  H   LIG d   1      -2.933  79.856 115.067  0.00  0.00    -0.090 HD
ATOM     20  H   LIG d   1      -3.285  78.351 114.564  0.00  0.00    -0.090 HD
ATOM     21  H   LIG d   1      -1.893  78.634 115.381  0.00  0.00    -0.090 HD
ENDBRANCH   5  18
BRANCH   3  22
ATOM     22  C   LIG d   1      -6.548  80.124 118.083  0.00  0.00     0.382 C 
ATOM     23  O   LIG d   1      -7.066  80.920 117.264  0.00  0.00    -0.241 OA
ATOM     24  O   LIG d   1      -6.763  80.270 119.301  0.00  0.00    -0.241 OA
ENDBRANCH   3  22
TORSDOF 7
ENDMDL
MODEL 7
REMARK VINA RESULT:      -4.2      3.638      6.928
REMARK  7 active torsions:
REMARK  status: ('A' for Active; 'I' for Inactive)
REMARK    1  A    between atoms: C_2  and  C_3 
REMARK    2  A    between atoms: C_3  and  O_6 
REMARK    3  A    between atoms: C_3  and  C_4 
REMARK    4  A    between atoms: C_7  and  O_6 
REMARK    5  A    between atoms: C_9  and  C_10 
REMARK    6  A    between atoms: N_15  and  C_14 
REMARK    7  A    between atoms: N_20  and  C_19 
REMARK       I    between atoms: C_22  and  N_20 
ROOT
ATOM      1  C   LIG d   1      -6.183  78.285 117.639  0.00  0.00     0.161 C 
ATOM      2  C   LIG d   1      -6.293  76.899 117.439  0.00  0.00     0.016 C 
ATOM      3  C   LIG d   1      -7.518  76.197 117.508  0.00  0.00     0.038 C 
ATOM      4  C   LIG d   1      -8.747  76.861 117.635  0.00  0.00     0.028 C 
ATOM      5  C   LIG d   1      -8.638  78.206 118.345  0.00  0.00    -0.047 C 
ATOM      6  C   LIG d   1      -7.528  79.042 117.668  0.00  0.00     0.091 C 
ENDROOT
BRANCH   1   7
ATOM      7  O   LIG d   1      -5.309  78.855 116.645  0.00  0.00    -0.368 OA
BRANCH   7   8
ATOM      8  C   LIG d   1      -4.009  78.229 116.506  0.00  0.00     0.119 C 
BRANCH   8   9
ATOM      9  C   LIG d   1      -3.101  78.795 117.615  0.00  0.00     0.028 C 
ATOM     10  C   LIG d   1      -1.717  78.126 117.639  0.00  0.00     0.006 C 
ENDBRANCH   8   9
BRANCH   8  11
ATOM     11  C   LIG d   1      -3.338  78.628 115.189  0.00  0.00     0.028 C 
ATOM     12  C   LIG d   1      -3.293  77.477 114.171  0.00  0.00     0.006 C 
ENDBRANCH   8  11
ENDBRANCH   7   8
ENDBRANCH   1   7
BRANCH   6  13
ATOM     13  N   LIG d   1      -7.298  80.340 118.354  0.00  0.00    -0.311 N 
ATOM     14  C   LIG d   1      -7.823  81.492 117.939  0.00  0.00     0.210 C 
ATOM     15  C   LIG d   1      -7.443  82.715 118.779  0.00  0.00     0.109 C 
ATOM     16  O   LIG d   1      -8.592  81.611 116.974  0.00  0.00    -0.276 OA
ATOM     17  H   LIG d   1      -6.710  80.330 119.165  0.00  0.00     0.149 HD
ENDBRANCH   6  13
BRANCH   5  18
ATOM     18  N   LIG d   1      -9.964  78.850 118.285  0.00  0.00     0.381 N 
ATOM     19  H   LIG d   1      -9.990  79.502 117.526  0.00  0.00    -0.090 HD
ATOM     20  H   LIG d   1     -10.119  79.355 119.140  0.00  0.00    -0.090 HD
ATOM     21  H   LIG d   1     -10.673  78.161 118.165  0.00  0.00    -0.090 HD
ENDBRANCH   5  18
BRANCH   3  22
ATOM     22  C   LIG d   1      -7.518  74.810 117.491  0.00  0.00     0.382 C 
ATOM     23  O   LIG d   1      -8.580  74.180 117.711  0.00  0.00    -0.241 OA
ATOM     24  O   LIG d   1      -6.459  74.181 117.302  0.00  0.00    -0.241 OA
ENDBRANCH   3  22
TORSDOF 7
ENDMDL
MODEL 8
REMARK VINA RESULT:      -4.2      2.616      5.846
REMARK  7 active torsions:
REMARK  status: ('A' for Active; 'I' for Inactive)
REMARK    1  A    between atoms: C_2  and  C_3 
REMARK    2  A    between atoms: C_3  and  O_6 
REMARK    3  A    between atoms: C_3  and  C_4 
REMARK    4  A    between atoms: C_7  and  O_6 
REMARK    5  A    between atoms: C_9  and  C_10 
REMARK    6  A    between atoms: N_15  and  C_14 
REMARK    7  A    between atoms: N_20  and  C_19 
REMARK       I    between atoms: C_22  and  N_20 
ROOT
ATOM      1  C   LIG d   1      -4.287  76.779 117.213  0.00  0.00     0.161 C 
ATOM      2  C   LIG d   1      -5.252  76.065 117.943  0.00  0.00     0.016 C 
ATOM      3  C   LIG d   1      -6.414  75.510 117.360  0.00  0.00     0.038 C 
ATOM      4  C   LIG d   1      -6.616  75.500 115.972  0.00  0.00     0.028 C 
ATOM      5  C   LIG d   1      -5.918  76.648 115.251  0.00  0.00    -0.047 C 
ATOM      6  C   LIG d   1      -4.434  76.683 115.680  0.00  0.00     0.091 C 
ENDROOT
BRANCH   1   7
ATOM      7  O   LIG d   1      -2.966  76.366 117.617  0.00  0.00    -0.368 OA
BRANCH   7   8
ATOM      8  C   LIG d   1      -2.511  75.091 117.102  0.00  0.00     0.119 C 
BRANCH   8   9
ATOM      9  C   LIG d   1      -2.222  74.180 118.311  0.00  0.00     0.028 C 
ATOM     10  C   LIG d   1      -1.996  74.978 119.606  0.00  0.00     0.006 C 
ENDBRANCH   8   9
BRANCH   8  11
ATOM     11  C   LIG d   1      -1.173  75.231 116.370  0.00  0.00     0.028 C 
ATOM     12  C   LIG d   1      -0.561  76.633 116.511  0.00  0.00     0.006 C 
ENDBRANCH   8  11
ENDBRANCH   7   8
ENDBRANCH   1   7
BRANCH   6  13
ATOM     13  N   LIG d   1      -3.698  77.829 115.085  0.00  0.00    -0.311 N 
ATOM     14  C   LIG d   1      -3.055  77.762 113.921  0.00  0.00     0.210 C 
ATOM     15  C   LIG d   1      -2.344  79.052 113.500  0.00  0.00     0.109 C 
ATOM     16  O   LIG d   1      -3.033  76.767 113.181  0.00  0.00    -0.276 OA
ATOM     17  H   LIG d   1      -3.690  78.685 115.604  0.00  0.00     0.149 HD
ENDBRANCH   6  13
BRANCH   5  18
ATOM     18  N   LIG d   1      -6.096  76.438 113.802  0.00  0.00     0.381 N 
ATOM     19  H   LIG d   1      -5.326  76.839 113.304  0.00  0.00    -0.090 HD
ATOM     20  H   LIG d   1      -6.937  76.902 113.507  0.00  0.00    -0.090 HD
ATOM     21  H   LIG d   1      -6.159  75.464 113.604  0.00  0.00    -0.090 HD
ENDBRANCH   5  18
BRANCH   3  22
ATOM     22  C   LIG d   1      -7.410  74.991 118.174  0.00  0.00     0.382 C 
ATOM     23  O   LIG d   1      -7.441  75.286 119.393  0.00  0.00    -0.241 OA
ATOM     24  O   LIG d   1      -8.251  74.195 117.714  0.00  0.00    -0.241 OA
ENDBRANCH   3  22
TORSDOF 7
ENDMDL
MODEL 9
REMARK VINA RESULT:      -4.1      2.944      5.460
REMARK  7 active torsions:
REMARK  status: ('A' for Active; 'I' for Inactive)
REMARK    1  A    between atoms: C_2  and  C_3 
REMARK    2  A    between atoms: C_3  and  O_6 
REMARK    3  A    between atoms: C_3  and  C_4 
REMARK    4  A    between atoms: C_7  and  O_6 
REMARK    5  A    between atoms: C_9  and  C_10 
REMARK    6  A    between atoms: N_15  and  C_14 
REMARK    7  A    between atoms: N_20  and  C_19 
REMARK       I    between atoms: C_22  and  N_20 
ROOT
ATOM      1  C   LIG d   1      -5.373  78.343 116.960  0.00  0.00     0.161 C 
ATOM      2  C   LIG d   1      -5.925  79.602 117.248  0.00  0.00     0.016 C 
ATOM      3  C   LIG d   1      -7.265  79.789 117.660  0.00  0.00     0.038 C 
ATOM      4  C   LIG d   1      -8.106  78.707 117.960  0.00  0.00     0.028 C 
ATOM      5  C   LIG d   1      -7.749  77.434 117.201  0.00  0.00    -0.047 C 
ATOM      6  C   LIG d   1      -6.243  77.142 117.389  0.00  0.00     0.091 C 
ENDROOT
BRANCH   1   7
ATOM      7  O   LIG d   1      -4.058  78.241 117.540  0.00  0.00    -0.368 OA
BRANCH   7   8
ATOM      8  C   LIG d   1      -2.965  78.037 116.611  0.00  0.00     0.119 C 
BRANCH   8   9
ATOM      9  C   LIG d   1      -1.746  78.806 117.154  0.00  0.00     0.028 C 
ATOM     10  C   LIG d   1      -2.076  79.609 118.424  0.00  0.00     0.006 C 
ENDBRANCH   8   9
BRANCH   8  11
ATOM     11  C   LIG d   1      -3.268  78.666 115.248  0.00  0.00     0.028 C 
ATOM     12  C   LIG d   1      -2.836  77.776 114.072  0.00  0.00     0.006 C 
ENDBRANCH   8  11
ENDBRANCH   7   8
ENDBRANCH   1   7
BRANCH   6  13
ATOM     13  N   LIG d   1      -5.793  75.960 116.609  0.00  0.00    -0.311 N 
ATOM     14  C   LIG d   1      -5.857  75.890 115.280  0.00  0.00     0.210 C 
ATOM     15  C   LIG d   1      -5.360  74.572 114.678  0.00  0.00     0.109 C 
ATOM     16  O   LIG d   1      -6.249  76.806 114.542  0.00  0.00    -0.276 OA
ATOM     17  H   LIG d   1      -5.432  75.183 117.127  0.00  0.00     0.149 HD
ENDBRANCH   6  13
BRANCH   5  18
ATOM     18  N   LIG d   1      -8.615  76.354 117.710  0.00  0.00     0.381 N 
ATOM     19  H   LIG d   1      -8.064  75.685 118.210  0.00  0.00    -0.090 HD
ATOM     20  H   LIG d   1      -9.046  75.888 116.931  0.00  0.00    -0.090 HD
ATOM     21  H   LIG d   1      -9.316  76.732 118.309  0.00  0.00    -0.090 HD
ENDBRANCH   5  18
BRANCH   3  22
ATOM     22  C   LIG d   1      -7.787  81.071 117.738  0.00  0.00     0.382 C 
ATOM     23  O   LIG d   1      -7.542  81.904 116.832  0.00  0.00    -0.241 OA
ATOM     24  O   LIG d   1      -8.464  81.418 118.724  0.00  0.00    -0.241 OA
ENDBRANCH   3  22
TORSDOF 7
ENDMDL
