MODEL 1
REMARK VINA RESULT:      -5.3      0.000      0.000
REMARK  7 active torsions:
REMARK  status: ('A' for Active; 'I' for Inactive)
REMARK    1  A    between atoms: C_2  and  C_3 
REMARK    2  A    between atoms: C_3  and  O_6 
REMARK    3  A    between atoms: C_3  and  C_4 
REMARK    4  A    between atoms: C_7  and  O_6 
REMARK    5  A    between atoms: C_9  and  C_10 
REMARK    6  A    between atoms: N_15  and  C_14 
REMARK    7  A    between atoms: N_20  and  C_19 
REMARK       I    between atoms: C_22  and  N_20 
ROOT
ATOM      1  C   LIG d   1      -2.459  78.467 115.119  0.00  0.00     0.161 C 
ATOM      2  C   LIG d   1      -2.771  79.686 114.496  0.00  0.00     0.016 C 
ATOM      3  C   LIG d   1      -2.613  79.914 113.109  0.00  0.00     0.038 C 
ATOM      4  C   LIG d   1      -2.273  78.881 112.222  0.00  0.00     0.028 C 
ATOM      5  C   LIG d   1      -1.462  77.766 112.873  0.00  0.00    -0.047 C 
ATOM      6  C   LIG d   1      -2.192  77.295 114.152  0.00  0.00     0.091 C 
ENDROOT
BRANCH   1   7
ATOM      7  O   LIG d   1      -3.497  78.117 116.056  0.00  0.00    -0.368 OA
BRANCH   7   8
ATOM      8  C   LIG d   1      -3.117  78.104 117.454  0.00  0.00     0.119 C 
BRANCH   8   9
ATOM      9  C   LIG d   1      -3.892  79.237 118.155  0.00  0.00     0.028 C 
ATOM     10  C   LIG d   1      -5.165  79.638 117.390  0.00  0.00     0.006 C 
ENDBRANCH   8   9
BRANCH   8  11
ATOM     11  C   LIG d   1      -1.637  78.455 117.632  0.00  0.00     0.028 C 
ATOM     12  C   LIG d   1      -0.845  77.350 118.349  0.00  0.00     0.006 C 
ENDBRANCH   8  11
ENDBRANCH   7   8
ENDBRANCH   1   7
BRANCH   6  13
ATOM     13  N   LIG d   1      -1.424  76.263 114.896  0.00  0.00    -0.311 N 
ATOM     14  C   LIG d   1      -1.938  75.091 115.266  0.00  0.00     0.210 C 
ATOM     15  C   LIG d   1      -0.980  74.181 116.041  0.00  0.00     0.109 C 
ATOM     16  O   LIG d   1      -3.085  74.706 114.997  0.00  0.00    -0.276 OA
ATOM     17  H   LIG d   1      -0.474  76.480 115.128  0.00  0.00     0.149 HD
ENDBRANCH   6  13
BRANCH   5  18
ATOM     18  N   LIG d   1      -1.296  76.694 111.874  0.00  0.00     0.381 N 
ATOM     19  H   LIG d   1      -1.808  75.883 112.159  0.00  0.00    -0.090 HD
ATOM     20  H   LIG d   1      -0.323  76.449 111.819  0.00  0.00    -0.090 HD
ATOM     21  H   LIG d   1      -1.619  77.004 110.984  0.00  0.00    -0.090 HD
ENDBRANCH   5  18
BRANCH   3  22
ATOM     22  C   LIG d   1      -2.758  81.196 112.602  0.00  0.00     0.382 C 
ATOM     23  O   LIG d   1      -1.758  81.813 112.161  0.00  0.00    -0.241 OA
ATOM     24  O   LIG d   1      -3.868  81.761 112.621  0.00  0.00    -0.241 OA
ENDBRANCH   3  22
TORSDOF 7
ENDMDL
MODEL 2
REMARK VINA RESULT:      -5.2      0.850      1.697
REMARK  7 active torsions:
REMARK  status: ('A' for Active; 'I' for Inactive)
REMARK    1  A    between atoms: C_2  and  C_3 
REMARK    2  A    between atoms: C_3  and  O_6 
REMARK    3  A    between atoms: C_3  and  C_4 
REMARK    4  A    between atoms: C_7  and  O_6 
REMARK    5  A    between atoms: C_9  and  C_10 
REMARK    6  A    between atoms: N_15  and  C_14 
REMARK    7  A    between atoms: N_20  and  C_19 
REMARK       I    between atoms: C_22  and  N_20 
ROOT
ATOM      1  C   LIG d   1      -2.602  78.662 115.487  0.00  0.00     0.161 C 
ATOM      2  C   LIG d   1      -2.856  79.819 114.731  0.00  0.00     0.016 C 
ATOM      3  C   LIG d   1      -2.638  79.900 113.336  0.00  0.00     0.038 C 
ATOM      4  C   LIG d   1      -2.292  78.775 112.573  0.00  0.00     0.028 C 
ATOM      5  C   LIG d   1      -1.537  77.714 113.367  0.00  0.00    -0.047 C 
ATOM      6  C   LIG d   1      -2.329  77.392 114.654  0.00  0.00     0.091 C 
ENDROOT
BRANCH   1   7
ATOM      7  O   LIG d   1      -3.685  78.434 116.410  0.00  0.00    -0.368 OA
BRANCH   7   8
ATOM      8  C   LIG d   1      -3.382  78.639 117.811  0.00  0.00     0.119 C 
BRANCH   8   9
ATOM      9  C   LIG d   1      -3.552  77.284 118.525  0.00  0.00     0.028 C 
ATOM     10  C   LIG d   1      -4.565  76.370 117.815  0.00  0.00     0.006 C 
ENDBRANCH   8   9
BRANCH   8  11
ATOM     11  C   LIG d   1      -4.401  79.574 118.470  0.00  0.00     0.028 C 
ATOM     12  C   LIG d   1      -5.452  80.102 117.481  0.00  0.00     0.006 C 
ENDBRANCH   8  11
ENDBRANCH   7   8
ENDBRANCH   1   7
BRANCH   6  13
ATOM     13  N   LIG d   1      -1.618  76.424 115.530  0.00  0.00    -0.311 N 
ATOM     14  C   LIG d   1      -1.926  75.130 115.594  0.00  0.00     0.210 C 
ATOM     15  C   LIG d   1      -1.082  74.312 116.576  0.00  0.00     0.109 C 
ATOM     16  O   LIG d   1      -2.797  74.576 114.906  0.00  0.00    -0.276 OA
ATOM     17  H   LIG d   1      -0.877  76.783 116.099  0.00  0.00     0.149 HD
ENDBRANCH   6  13
BRANCH   5  18
ATOM     18  N   LIG d   1      -1.360  76.542 112.488  0.00  0.00     0.381 N 
ATOM     19  H   LIG d   1      -1.142  75.736 113.039  0.00  0.00    -0.090 HD
ATOM     20  H   LIG d   1      -0.591  76.716 111.865  0.00  0.00    -0.090 HD
ATOM     21  H   LIG d   1      -2.192  76.380 111.965  0.00  0.00    -0.090 HD
ENDBRANCH   5  18
BRANCH   3  22
ATOM     22  C   LIG d   1      -2.729  81.127 112.697  0.00  0.00     0.382 C 
ATOM     23  O   LIG d   1      -1.703  81.653 112.201  0.00  0.00    -0.241 OA
ATOM     24  O   LIG d   1      -3.814  81.735 112.648  0.00  0.00    -0.241 OA
ENDBRANCH   3  22
TORSDOF 7
ENDMDL
MODEL 3
REMARK VINA RESULT:      -4.9      2.735      5.660
REMARK  7 active torsions:
REMARK  status: ('A' for Active; 'I' for Inactive)
REMARK    1  A    between atoms: C_2  and  C_3 
REMARK    2  A    between atoms: C_3  and  O_6 
REMARK    3  A    between atoms: C_3  and  C_4 
REMARK    4  A    between atoms: C_7  and  O_6 
REMARK    5  A    between atoms: C_9  and  C_10 
REMARK    6  A    between atoms: N_15  and  C_14 
REMARK    7  A    between atoms: N_20  and  C_19 
REMARK       I    between atoms: C_22  and  N_20 
ROOT
ATOM      1  C   LIG d   1      -1.759  75.161 115.509  0.00  0.00     0.161 C 
ATOM      2  C   LIG d   1      -1.521  74.857 116.859  0.00  0.00     0.016 C 
ATOM      3  C   LIG d   1      -1.071  75.808 117.804  0.00  0.00     0.038 C 
ATOM      4  C   LIG d   1      -0.974  77.172 117.493  0.00  0.00     0.028 C 
ATOM      5  C   LIG d   1      -0.719  77.440 116.013  0.00  0.00    -0.047 C 
ATOM      6  C   LIG d   1      -1.765  76.668 115.177  0.00  0.00     0.091 C 
ENDROOT
BRANCH   1   7
ATOM      7  O   LIG d   1      -2.991  74.549 115.080  0.00  0.00    -0.368 OA
BRANCH   7   8
ATOM      8  C   LIG d   1      -4.203  75.295 115.354  0.00  0.00     0.119 C 
BRANCH   8   9
ATOM      9  C   LIG d   1      -4.713  74.856 116.740  0.00  0.00     0.028 C 
ATOM     10  C   LIG d   1      -4.902  76.044 117.699  0.00  0.00     0.006 C 
ENDBRANCH   8   9
BRANCH   8  11
ATOM     11  C   LIG d   1      -5.320  74.923 114.375  0.00  0.00     0.028 C 
ATOM     12  C   LIG d   1      -6.437  75.977 114.317  0.00  0.00     0.006 C 
ENDBRANCH   8  11
ENDBRANCH   7   8
ENDBRANCH   1   7
BRANCH   6  13
ATOM     13  N   LIG d   1      -1.535  76.807 113.715  0.00  0.00    -0.311 N 
ATOM     14  C   LIG d   1      -2.357  77.472 112.904  0.00  0.00     0.210 C 
ATOM     15  C   LIG d   1      -1.945  77.476 111.428  0.00  0.00     0.109 C 
ATOM     16  O   LIG d   1      -3.370  78.085 113.272  0.00  0.00    -0.276 OA
ATOM     17  H   LIG d   1      -0.720  76.367 113.337  0.00  0.00     0.149 HD
ENDBRANCH   6  13
BRANCH   5  18
ATOM     18  N   LIG d   1      -0.777  78.899 115.808  0.00  0.00     0.381 N 
ATOM     19  H   LIG d   1      -1.717  79.175 115.603  0.00  0.00    -0.090 HD
ATOM     20  H   LIG d   1      -0.199  79.140 115.022  0.00  0.00    -0.090 HD
ATOM     21  H   LIG d   1      -0.455  79.372 116.624  0.00  0.00    -0.090 HD
ENDBRANCH   5  18
BRANCH   3  22
ATOM     22  C   LIG d   1      -0.676  75.390 119.065  0.00  0.00     0.382 C 
ATOM     23  O   LIG d   1       0.440  75.740 119.520  0.00  0.00    -0.241 OA
ATOM     24  O   LIG d   1      -1.401  74.631 119.736  0.00  0.00    -0.241 OA
ENDBRANCH   3  22
TORSDOF 7
ENDMDL
MODEL 4
REMARK VINA RESULT:      -4.8      4.254      5.925
REMARK  7 active torsions:
REMARK  status: ('A' for Active; 'I' for Inactive)
REMARK    1  A    between atoms: C_2  and  C_3 
REMARK    2  A    between atoms: C_3  and  O_6 
REMARK    3  A    between atoms: C_3  and  C_4 
REMARK    4  A    between atoms: C_7  and  O_6 
REMARK    5  A    between atoms: C_9  and  C_10 
REMARK    6  A    between atoms: N_15  and  C_14 
REMARK    7  A    between atoms: N_20  and  C_19 
REMARK       I    between atoms: C_22  and  N_20 
ROOT
ATOM      1  C   LIG d   1      -6.385  76.800 118.356  0.00  0.00     0.161 C 
ATOM      2  C   LIG d   1      -7.306  77.861 118.352  0.00  0.00     0.016 C 
ATOM      3  C   LIG d   1      -6.966  79.185 117.990  0.00  0.00     0.038 C 
ATOM      4  C   LIG d   1      -5.709  79.509 117.459  0.00  0.00     0.028 C 
ATOM      5  C   LIG d   1      -4.597  78.572 117.921  0.00  0.00    -0.047 C 
ATOM      6  C   LIG d   1      -5.037  77.111 117.674  0.00  0.00     0.091 C 
ENDROOT
BRANCH   1   7
ATOM      7  O   LIG d   1      -6.986  75.629 117.768  0.00  0.00    -0.368 OA
BRANCH   7   8
ATOM      8  C   LIG d   1      -7.904  75.866 116.672  0.00  0.00     0.119 C 
BRANCH   8   9
ATOM      9  C   LIG d   1      -9.033  74.823 116.781  0.00  0.00     0.028 C 
ATOM     10  C   LIG d   1     -10.014  75.136 117.923  0.00  0.00     0.006 C 
ENDBRANCH   8   9
BRANCH   8  11
ATOM     11  C   LIG d   1      -7.237  75.602 115.320  0.00  0.00     0.028 C 
ATOM     12  C   LIG d   1      -6.229  74.443 115.368  0.00  0.00     0.006 C 
ENDBRANCH   8  11
ENDBRANCH   7   8
ENDBRANCH   1   7
BRANCH   6  13
ATOM     13  N   LIG d   1      -4.042  76.128 118.174  0.00  0.00    -0.311 N 
ATOM     14  C   LIG d   1      -3.104  75.577 117.405  0.00  0.00     0.210 C 
ATOM     15  C   LIG d   1      -2.192  74.572 118.116  0.00  0.00     0.109 C 
ATOM     16  O   LIG d   1      -2.920  75.850 116.209  0.00  0.00    -0.276 OA
ATOM     17  H   LIG d   1      -4.099  75.873 119.141  0.00  0.00     0.149 HD
ENDBRANCH   6  13
BRANCH   5  18
ATOM     18  N   LIG d   1      -3.372  78.939 117.186  0.00  0.00     0.381 N 
ATOM     19  H   LIG d   1      -3.474  79.854 116.793  0.00  0.00    -0.090 HD
ATOM     20  H   LIG d   1      -3.236  78.287 116.434  0.00  0.00    -0.090 HD
ATOM     21  H   LIG d   1      -2.587  78.919 117.799  0.00  0.00    -0.090 HD
ENDBRANCH   5  18
BRANCH   3  22
ATOM     22  C   LIG d   1      -7.878  80.209 118.196  0.00  0.00     0.382 C 
ATOM     23  O   LIG d   1      -7.821  81.249 117.497  0.00  0.00    -0.241 OA
ATOM     24  O   LIG d   1      -8.729  80.125 119.102  0.00  0.00    -0.241 OA
ENDBRANCH   3  22
TORSDOF 7
ENDMDL
MODEL 5
REMARK VINA RESULT:      -4.5      3.821      5.311
REMARK  7 active torsions:
REMARK  status: ('A' for Active; 'I' for Inactive)
REMARK    1  A    between atoms: C_2  and  C_3 
REMARK    2  A    between atoms: C_3  and  O_6 
REMARK    3  A    between atoms: C_3  and  C_4 
REMARK    4  A    between atoms: C_7  and  O_6 
REMARK    5  A    between atoms: C_9  and  C_10 
REMARK    6  A    between atoms: N_15  and  C_14 
REMARK    7  A    between atoms: N_20  and  C_19 
REMARK       I    between atoms: C_22  and  N_20 
ROOT
ATOM      1  C   LIG d   1      -5.177  75.395 116.909  0.00  0.00     0.161 C 
ATOM      2  C   LIG d   1      -3.910  75.710 116.390  0.00  0.00     0.016 C 
ATOM      3  C   LIG d   1      -3.697  76.124 115.056  0.00  0.00     0.038 C 
ATOM      4  C   LIG d   1      -4.763  76.399 114.186  0.00  0.00     0.028 C 
ATOM      5  C   LIG d   1      -6.028  75.612 114.510  0.00  0.00    -0.047 C 
ATOM      6  C   LIG d   1      -6.363  75.795 116.008  0.00  0.00     0.091 C 
ENDROOT
BRANCH   1   7
ATOM      7  O   LIG d   1      -5.326  75.975 118.220  0.00  0.00    -0.368 OA
BRANCH   7   8
ATOM      8  C   LIG d   1      -4.648  77.236 118.440  0.00  0.00     0.119 C 
BRANCH   8   9
ATOM      9  C   LIG d   1      -4.022  77.187 119.847  0.00  0.00     0.028 C 
ATOM     10  C   LIG d   1      -2.610  76.577 119.841  0.00  0.00     0.006 C 
ENDBRANCH   8   9
BRANCH   8  11
ATOM     11  C   LIG d   1      -5.639  78.403 118.477  0.00  0.00     0.028 C 
ATOM     12  C   LIG d   1      -5.521  79.326 117.254  0.00  0.00     0.006 C 
ENDBRANCH   8  11
ENDBRANCH   7   8
ENDBRANCH   1   7
BRANCH   6  13
ATOM     13  N   LIG d   1      -7.540  74.990 116.428  0.00  0.00    -0.311 N 
ATOM     14  C   LIG d   1      -8.567  75.494 117.110  0.00  0.00     0.210 C 
ATOM     15  C   LIG d   1      -9.667  74.487 117.460  0.00  0.00     0.109 C 
ATOM     16  O   LIG d   1      -8.687  76.687 117.429  0.00  0.00    -0.276 OA
ATOM     17  H   LIG d   1      -7.540  74.020 116.183  0.00  0.00     0.149 HD
ENDBRANCH   6  13
BRANCH   5  18
ATOM     18  N   LIG d   1      -7.096  76.096 113.615  0.00  0.00     0.381 N 
ATOM     19  H   LIG d   1      -7.912  75.527 113.723  0.00  0.00    -0.090 HD
ATOM     20  H   LIG d   1      -6.782  76.019 112.663  0.00  0.00    -0.090 HD
ATOM     21  H   LIG d   1      -7.313  77.045 113.825  0.00  0.00    -0.090 HD
ENDBRANCH   5  18
BRANCH   3  22
ATOM     22  C   LIG d   1      -2.404  76.229 114.567  0.00  0.00     0.382 C 
ATOM     23  O   LIG d   1      -1.432  76.226 115.360  0.00  0.00    -0.241 OA
ATOM     24  O   LIG d   1      -2.200  76.371 113.346  0.00  0.00    -0.241 OA
ENDBRANCH   3  22
TORSDOF 7
ENDMDL
MODEL 6
REMARK VINA RESULT:      -4.5      4.338      6.686
REMARK  7 active torsions:
REMARK  status: ('A' for Active; 'I' for Inactive)
REMARK    1  A    between atoms: C_2  and  C_3 
REMARK    2  A    between atoms: C_3  and  O_6 
REMARK    3  A    between atoms: C_3  and  C_4 
REMARK    4  A    between atoms: C_7  and  O_6 
REMARK    5  A    between atoms: C_9  and  C_10 
REMARK    6  A    between atoms: N_15  and  C_14 
REMARK    7  A    between atoms: N_20  and  C_19 
REMARK       I    between atoms: C_22  and  N_20 
ROOT
ATOM      1  C   LIG d   1      -6.738  76.757 117.567  0.00  0.00     0.161 C 
ATOM      2  C   LIG d   1      -6.396  76.132 116.357  0.00  0.00     0.016 C 
ATOM      3  C   LIG d   1      -5.236  76.454 115.615  0.00  0.00     0.038 C 
ATOM      4  C   LIG d   1      -4.255  77.323 116.114  0.00  0.00     0.028 C 
ATOM      5  C   LIG d   1      -4.801  78.355 117.094  0.00  0.00    -0.047 C 
ATOM      6  C   LIG d   1      -5.623  77.628 118.183  0.00  0.00     0.091 C 
ENDROOT
BRANCH   1   7
ATOM      7  O   LIG d   1      -7.185  75.770 118.518  0.00  0.00    -0.368 OA
BRANCH   7   8
ATOM      8  C   LIG d   1      -8.608  75.747 118.791  0.00  0.00     0.119 C 
BRANCH   8   9
ATOM      9  C   LIG d   1      -9.185  74.478 118.134  0.00  0.00     0.028 C 
ATOM     10  C   LIG d   1     -10.060  74.797 116.910  0.00  0.00     0.006 C 
ENDBRANCH   8   9
BRANCH   8  11
ATOM     11  C   LIG d   1      -9.325  76.917 118.112  0.00  0.00     0.028 C 
ATOM     12  C   LIG d   1     -10.053  77.830 119.111  0.00  0.00     0.006 C 
ENDBRANCH   8  11
ENDBRANCH   7   8
ENDBRANCH   1   7
BRANCH   6  13
ATOM     13  N   LIG d   1      -6.264  78.572 119.135  0.00  0.00    -0.311 N 
ATOM     14  C   LIG d   1      -6.957  79.643 118.751  0.00  0.00     0.210 C 
ATOM     15  C   LIG d   1      -7.517  80.494 119.895  0.00  0.00     0.109 C 
ATOM     16  O   LIG d   1      -7.189  79.950 117.572  0.00  0.00    -0.276 OA
ATOM     17  H   LIG d   1      -6.152  78.381 120.112  0.00  0.00     0.149 HD
ENDBRANCH   6  13
BRANCH   5  18
ATOM     18  N   LIG d   1      -3.653  79.104 117.640  0.00  0.00     0.381 N 
ATOM     19  H   LIG d   1      -3.427  79.866 117.033  0.00  0.00    -0.090 HD
ATOM     20  H   LIG d   1      -2.858  78.491 117.686  0.00  0.00    -0.090 HD
ATOM     21  H   LIG d   1      -3.871  79.447 118.549  0.00  0.00    -0.090 HD
ENDBRANCH   5  18
BRANCH   3  22
ATOM     22  C   LIG d   1      -5.069  75.933 114.341  0.00  0.00     0.382 C 
ATOM     23  O   LIG d   1      -4.970  76.705 113.356  0.00  0.00    -0.241 OA
ATOM     24  O   LIG d   1      -5.060  74.701 114.157  0.00  0.00    -0.241 OA
ENDBRANCH   3  22
TORSDOF 7
ENDMDL
MODEL 7
REMARK VINA RESULT:      -4.4      2.305      4.634
REMARK  7 active torsions:
REMARK  status: ('A' for Active; 'I' for Inactive)
REMARK    1  A    between atoms: C_2  and  C_3 
REMARK    2  A    between atoms: C_3  and  O_6 
REMARK    3  A    between atoms: C_3  and  C_4 
REMARK    4  A    between atoms: C_7  and  O_6 
REMARK    5  A    between atoms: C_9  and  C_10 
REMARK    6  A    between atoms: N_15  and  C_14 
REMARK    7  A    between atoms: N_20  and  C_19 
REMARK       I    between atoms: C_22  and  N_20 
ROOT
ATOM      1  C   LIG d   1      -2.801  78.677 115.727  0.00  0.00     0.161 C 
ATOM      2  C   LIG d   1      -1.840  79.586 116.197  0.00  0.00     0.016 C 
ATOM      3  C   LIG d   1      -0.765  79.217 117.038  0.00  0.00     0.038 C 
ATOM      4  C   LIG d   1      -0.491  77.876 117.346  0.00  0.00     0.028 C 
ATOM      5  C   LIG d   1      -1.726  76.981 117.308  0.00  0.00    -0.047 C 
ATOM      6  C   LIG d   1      -2.456  77.191 115.962  0.00  0.00     0.091 C 
ENDROOT
BRANCH   1   7
ATOM      7  O   LIG d   1      -3.059  78.917 114.330  0.00  0.00    -0.368 OA
BRANCH   7   8
ATOM      8  C   LIG d   1      -1.945  78.698 113.429  0.00  0.00     0.119 C 
BRANCH   8   9
ATOM      9  C   LIG d   1      -1.832  79.939 112.522  0.00  0.00     0.028 C 
ATOM     10  C   LIG d   1      -2.900  80.998 112.842  0.00  0.00     0.006 C 
ENDBRANCH   8   9
BRANCH   8  11
ATOM     11  C   LIG d   1      -2.216  77.526 112.482  0.00  0.00     0.028 C 
ATOM     12  C   LIG d   1      -2.035  77.902 111.002  0.00  0.00     0.006 C 
ENDBRANCH   8  11
ENDBRANCH   7   8
ENDBRANCH   1   7
BRANCH   6  13
ATOM     13  N   LIG d   1      -3.721  76.416 115.876  0.00  0.00    -0.311 N 
ATOM     14  C   LIG d   1      -3.807  75.214 115.309  0.00  0.00     0.210 C 
ATOM     15  C   LIG d   1      -5.210  74.598 115.310  0.00  0.00     0.109 C 
ATOM     16  O   LIG d   1      -2.850  74.586 114.834  0.00  0.00    -0.276 OA
ATOM     17  H   LIG d   1      -4.542  76.838 116.265  0.00  0.00     0.149 HD
ENDBRANCH   6  13
BRANCH   5  18
ATOM     18  N   LIG d   1      -1.275  75.591 117.511  0.00  0.00     0.381 N 
ATOM     19  H   LIG d   1      -1.316  75.361 118.484  0.00  0.00    -0.090 HD
ATOM     20  H   LIG d   1      -0.321  75.511 117.207  0.00  0.00    -0.090 HD
ATOM     21  H   LIG d   1      -1.851  74.967 116.990  0.00  0.00    -0.090 HD
ENDBRANCH   5  18
BRANCH   3  22
ATOM     22  C   LIG d   1       0.026  80.199 117.614  0.00  0.00     0.382 C 
ATOM     23  O   LIG d   1       0.392  81.188 116.934  0.00  0.00    -0.241 OA
ATOM     24  O   LIG d   1       0.416  80.087 118.792  0.00  0.00    -0.241 OA
ENDBRANCH   3  22
TORSDOF 7
ENDMDL
MODEL 8
REMARK VINA RESULT:      -4.4      2.833      3.708
REMARK  7 active torsions:
REMARK  status: ('A' for Active; 'I' for Inactive)
REMARK    1  A    between atoms: C_2  and  C_3 
REMARK    2  A    between atoms: C_3  and  O_6 
REMARK    3  A    between atoms: C_3  and  C_4 
REMARK    4  A    between atoms: C_7  and  O_6 
REMARK    5  A    between atoms: C_9  and  C_10 
REMARK    6  A    between atoms: N_15  and  C_14 
REMARK    7  A    between atoms: N_20  and  C_19 
REMARK       I    between atoms: C_22  and  N_20 
ROOT
ATOM      1  C   LIG d   1      -3.769  75.903 115.503  0.00  0.00     0.161 C 
ATOM      2  C   LIG d   1      -3.882  76.720 114.366  0.00  0.00     0.016 C 
ATOM      3  C   LIG d   1      -2.794  77.028 113.518  0.00  0.00     0.038 C 
ATOM      4  C   LIG d   1      -1.542  76.413 113.666  0.00  0.00     0.028 C 
ATOM      5  C   LIG d   1      -1.248  75.973 115.096  0.00  0.00    -0.047 C 
ATOM      6  C   LIG d   1      -2.437  75.134 115.617  0.00  0.00     0.091 C 
ENDROOT
BRANCH   1   7
ATOM      7  O   LIG d   1      -4.882  74.989 115.560  0.00  0.00    -0.368 OA
BRANCH   7   8
ATOM      8  C   LIG d   1      -5.959  75.350 116.460  0.00  0.00     0.119 C 
BRANCH   8   9
ATOM      9  C   LIG d   1      -7.208  75.625 115.601  0.00  0.00     0.028 C 
ATOM     10  C   LIG d   1      -8.507  75.583 116.424  0.00  0.00     0.006 C 
ENDBRANCH   8   9
BRANCH   8  11
ATOM     11  C   LIG d   1      -5.664  76.670 117.180  0.00  0.00     0.028 C 
ATOM     12  C   LIG d   1      -5.659  76.525 118.711  0.00  0.00     0.006 C 
ENDBRANCH   8  11
ENDBRANCH   7   8
ENDBRANCH   1   7
BRANCH   6  13
ATOM     13  N   LIG d   1      -2.268  74.734 117.038  0.00  0.00    -0.311 N 
ATOM     14  C   LIG d   1      -2.071  75.604 118.027  0.00  0.00     0.210 C 
ATOM     15  C   LIG d   1      -1.902  74.979 119.415  0.00  0.00     0.109 C 
ATOM     16  O   LIG d   1      -2.052  76.837 117.890  0.00  0.00    -0.276 OA
ATOM     17  H   LIG d   1      -2.301  73.754 117.244  0.00  0.00     0.149 HD
ENDBRANCH   6  13
BRANCH   5  18
ATOM     18  N   LIG d   1       0.024  75.226 115.080  0.00  0.00     0.381 N 
ATOM     19  H   LIG d   1       0.081  74.671 114.249  0.00  0.00    -0.090 HD
ATOM     20  H   LIG d   1       0.049  74.609 115.873  0.00  0.00    -0.090 HD
ATOM     21  H   LIG d   1       0.792  75.859 115.118  0.00  0.00    -0.090 HD
ENDBRANCH   5  18
BRANCH   3  22
ATOM     22  C   LIG d   1      -2.942  77.992 112.532  0.00  0.00     0.382 C 
ATOM     23  O   LIG d   1      -2.807  77.680 111.325  0.00  0.00    -0.241 OA
ATOM     24  O   LIG d   1      -3.165  79.179 112.838  0.00  0.00    -0.241 OA
ENDBRANCH   3  22
TORSDOF 7
ENDMDL
MODEL 9
REMARK VINA RESULT:      -4.2      2.532      4.909
REMARK  7 active torsions:
REMARK  status: ('A' for Active; 'I' for Inactive)
REMARK    1  A    between atoms: C_2  and  C_3 
REMARK    2  A    between atoms: C_3  and  O_6 
REMARK    3  A    between atoms: C_3  and  C_4 
REMARK    4  A    between atoms: C_7  and  O_6 
REMARK    5  A    between atoms: C_9  and  C_10 
REMARK    6  A    between atoms: N_15  and  C_14 
REMARK    7  A    between atoms: N_20  and  C_19 
REMARK       I    between atoms: C_22  and  N_20 
ROOT
ATOM      1  C   LIG d   1      -2.799  77.711 115.592  0.00  0.00     0.161 C 
ATOM      2  C   LIG d   1      -2.657  77.973 116.965  0.00  0.00     0.016 C 
ATOM      3  C   LIG d   1      -1.714  78.888 117.489  0.00  0.00     0.038 C 
ATOM      4  C   LIG d   1      -0.948  79.720 116.660  0.00  0.00     0.028 C 
ATOM      5  C   LIG d   1      -0.698  79.131 115.276  0.00  0.00    -0.047 C 
ATOM      6  C   LIG d   1      -2.048  78.691 114.666  0.00  0.00     0.091 C 
ENDROOT
BRANCH   1   7
ATOM      7  O   LIG d   1      -4.197  77.666 115.246  0.00  0.00    -0.368 OA
BRANCH   7   8
ATOM      8  C   LIG d   1      -4.950  76.549 115.780  0.00  0.00     0.119 C 
BRANCH   8   9
ATOM      9  C   LIG d   1      -5.470  75.727 114.585  0.00  0.00     0.028 C 
ATOM     10  C   LIG d   1      -5.217  74.220 114.755  0.00  0.00     0.006 C 
ENDBRANCH   8   9
BRANCH   8  11
ATOM     11  C   LIG d   1      -6.203  77.025 116.521  0.00  0.00     0.028 C 
ATOM     12  C   LIG d   1      -6.118  76.804 118.039  0.00  0.00     0.006 C 
ENDBRANCH   8  11
ENDBRANCH   7   8
ENDBRANCH   1   7
BRANCH   6  13
ATOM     13  N   LIG d   1      -1.885  78.027 113.346  0.00  0.00    -0.311 N 
ATOM     14  C   LIG d   1      -1.978  78.672 112.185  0.00  0.00     0.210 C 
ATOM     15  C   LIG d   1      -1.797  77.795 110.942  0.00  0.00     0.109 C 
ATOM     16  O   LIG d   1      -2.162  79.893 112.066  0.00  0.00    -0.276 OA
ATOM     17  H   LIG d   1      -1.702  77.043 113.351  0.00  0.00     0.149 HD
ENDBRANCH   6  13
BRANCH   5  18
ATOM     18  N   LIG d   1      -0.008  80.158 114.473  0.00  0.00     0.381 N 
ATOM     19  H   LIG d   1      -0.544  80.364 113.654  0.00  0.00    -0.090 HD
ATOM     20  H   LIG d   1       0.885  79.799 114.183  0.00  0.00    -0.090 HD
ATOM     21  H   LIG d   1       0.119  80.986 115.013  0.00  0.00    -0.090 HD
ENDBRANCH   5  18
BRANCH   3  22
ATOM     22  C   LIG d   1      -1.503  78.947 118.859  0.00  0.00     0.382 C 
ATOM     23  O   LIG d   1      -0.671  79.760 119.330  0.00  0.00    -0.241 OA
ATOM     24  O   LIG d   1      -2.101  78.168 119.625  0.00  0.00    -0.241 OA
ENDBRANCH   3  22
TORSDOF 7
ENDMDL
