MODEL 1
REMARK VINA RESULT:      -5.0      0.000      0.000
REMARK  7 active torsions:
REMARK  status: ('A' for Active; 'I' for Inactive)
REMARK    1  A    between atoms: C_2  and  C_3 
REMARK    2  A    between atoms: C_3  and  O_6 
REMARK    3  A    between atoms: C_3  and  C_4 
REMARK    4  A    between atoms: C_7  and  O_6 
REMARK    5  A    between atoms: C_9  and  C_10 
REMARK    6  A    between atoms: N_15  and  C_14 
REMARK    7  A    between atoms: N_20  and  C_19 
REMARK       I    between atoms: C_22  and  N_20 
ROOT
ATOM      1  C   LIG d   1      -2.669  78.331 115.134  0.00  0.00     0.161 C 
ATOM      2  C   LIG d   1      -2.898  79.520 114.421  0.00  0.00     0.016 C 
ATOM      3  C   LIG d   1      -2.287  79.814 113.180  0.00  0.00     0.038 C 
ATOM      4  C   LIG d   1      -1.518  78.865 112.490  0.00  0.00     0.028 C 
ATOM      5  C   LIG d   1      -0.851  77.844 113.405  0.00  0.00    -0.047 C 
ATOM      6  C   LIG d   1      -1.919  77.238 114.344  0.00  0.00     0.091 C 
ENDROOT
BRANCH   1   7
ATOM      7  O   LIG d   1      -3.916  77.817 115.641  0.00  0.00    -0.368 OA
BRANCH   7   8
ATOM      8  C   LIG d   1      -4.289  78.248 116.972  0.00  0.00     0.119 C 
BRANCH   8   9
ATOM      9  C   LIG d   1      -3.666  77.255 117.972  0.00  0.00     0.028 C 
ATOM     10  C   LIG d   1      -4.444  75.930 118.045  0.00  0.00     0.006 C 
ENDBRANCH   8   9
BRANCH   8  11
ATOM     11  C   LIG d   1      -5.802  78.146 117.188  0.00  0.00     0.028 C 
ATOM     12  C   LIG d   1      -6.441  79.488 117.576  0.00  0.00     0.006 C 
ENDBRANCH   8  11
ENDBRANCH   7   8
ENDBRANCH   1   7
BRANCH   6  13
ATOM     13  N   LIG d   1      -1.336  76.291 115.329  0.00  0.00    -0.311 N 
ATOM     14  C   LIG d   1      -1.811  75.064 115.536  0.00  0.00     0.210 C 
ATOM     15  C   LIG d   1      -1.075  74.258 116.612  0.00  0.00     0.109 C 
ATOM     16  O   LIG d   1      -2.752  74.554 114.908  0.00  0.00    -0.276 OA
ATOM     17  H   LIG d   1      -0.550  76.611 115.860  0.00  0.00     0.149 HD
ENDBRANCH   6  13
BRANCH   5  18
ATOM     18  N   LIG d   1      -0.196  76.838 112.548  0.00  0.00     0.381 N 
ATOM     19  H   LIG d   1      -0.558  76.899 111.618  0.00  0.00    -0.090 HD
ATOM     20  H   LIG d   1      -0.401  75.922 112.908  0.00  0.00    -0.090 HD
ATOM     21  H   LIG d   1       0.789  76.986 112.540  0.00  0.00    -0.090 HD
ENDBRANCH   5  18
BRANCH   3  22
ATOM     22  C   LIG d   1      -2.412  81.083 112.636  0.00  0.00     0.382 C 
ATOM     23  O   LIG d   1      -1.492  81.554 111.925  0.00  0.00    -0.241 OA
ATOM     24  O   LIG d   1      -3.414  81.780 112.883  0.00  0.00    -0.241 OA
ENDBRANCH   3  22
TORSDOF 7
ENDMDL
MODEL 2
REMARK VINA RESULT:      -4.8      2.542      3.253
REMARK  7 active torsions:
REMARK  status: ('A' for Active; 'I' for Inactive)
REMARK    1  A    between atoms: C_2  and  C_3 
REMARK    2  A    between atoms: C_3  and  O_6 
REMARK    3  A    between atoms: C_3  and  C_4 
REMARK    4  A    between atoms: C_7  and  O_6 
REMARK    5  A    between atoms: C_9  and  C_10 
REMARK    6  A    between atoms: N_15  and  C_14 
REMARK    7  A    between atoms: N_20  and  C_19 
REMARK       I    between atoms: C_22  and  N_20 
ROOT
ATOM      1  C   LIG d   1      -3.145  77.533 114.709  0.00  0.00     0.161 C 
ATOM      2  C   LIG d   1      -3.094  77.965 113.373  0.00  0.00     0.016 C 
ATOM      3  C   LIG d   1      -1.966  77.785 112.539  0.00  0.00     0.038 C 
ATOM      4  C   LIG d   1      -0.861  77.020 112.942  0.00  0.00     0.028 C 
ATOM      5  C   LIG d   1      -0.660  76.996 114.454  0.00  0.00    -0.047 C 
ATOM      6  C   LIG d   1      -1.991  76.599 115.131  0.00  0.00     0.091 C 
ENDROOT
BRANCH   1   7
ATOM      7  O   LIG d   1      -4.417  76.908 114.972  0.00  0.00    -0.368 OA
BRANCH   7   8
ATOM      8  C   LIG d   1      -4.796  75.833 114.078  0.00  0.00     0.119 C 
BRANCH   8   9
ATOM      9  C   LIG d   1      -6.263  76.069 113.666  0.00  0.00     0.028 C 
ATOM     10  C   LIG d   1      -6.391  76.589 112.225  0.00  0.00     0.006 C 
ENDBRANCH   8   9
BRANCH   8  11
ATOM     11  C   LIG d   1      -4.790  74.481 114.797  0.00  0.00     0.028 C 
ATOM     12  C   LIG d   1      -6.116  74.180 115.512  0.00  0.00     0.006 C 
ENDBRANCH   8  11
ENDBRANCH   7   8
ENDBRANCH   1   7
BRANCH   6  13
ATOM     13  N   LIG d   1      -1.905  76.633 116.614  0.00  0.00    -0.311 N 
ATOM     14  C   LIG d   1      -1.645  75.560 117.358  0.00  0.00     0.210 C 
ATOM     15  C   LIG d   1      -1.621  75.810 118.869  0.00  0.00     0.109 C 
ATOM     16  O   LIG d   1      -1.400  74.430 116.909  0.00  0.00    -0.276 OA
ATOM     17  H   LIG d   1      -2.059  77.516 117.060  0.00  0.00     0.149 HD
ENDBRANCH   6  13
BRANCH   5  18
ATOM     18  N   LIG d   1       0.439  76.055 114.742  0.00  0.00     0.381 N 
ATOM     19  H   LIG d   1       0.168  75.128 114.480  0.00  0.00    -0.090 HD
ATOM     20  H   LIG d   1       0.623  76.063 115.730  0.00  0.00    -0.090 HD
ATOM     21  H   LIG d   1       1.258  76.324 114.242  0.00  0.00    -0.090 HD
ENDBRANCH   5  18
BRANCH   3  22
ATOM     22  C   LIG d   1      -1.921  78.407 111.301  0.00  0.00     0.382 C 
ATOM     23  O   LIG d   1      -1.421  79.553 111.193  0.00  0.00    -0.241 OA
ATOM     24  O   LIG d   1      -2.413  77.855 110.299  0.00  0.00    -0.241 OA
ENDBRANCH   3  22
TORSDOF 7
ENDMDL
MODEL 3
REMARK VINA RESULT:      -4.6      3.733      5.926
REMARK  7 active torsions:
REMARK  status: ('A' for Active; 'I' for Inactive)
REMARK    1  A    between atoms: C_2  and  C_3 
REMARK    2  A    between atoms: C_3  and  O_6 
REMARK    3  A    between atoms: C_3  and  C_4 
REMARK    4  A    between atoms: C_7  and  O_6 
REMARK    5  A    between atoms: C_9  and  C_10 
REMARK    6  A    between atoms: N_15  and  C_14 
REMARK    7  A    between atoms: N_20  and  C_19 
REMARK       I    between atoms: C_22  and  N_20 
ROOT
ATOM      1  C   LIG d   1      -6.716  77.187 116.920  0.00  0.00     0.161 C 
ATOM      2  C   LIG d   1      -6.526  76.433 115.750  0.00  0.00     0.016 C 
ATOM      3  C   LIG d   1      -5.254  76.175 115.189  0.00  0.00     0.038 C 
ATOM      4  C   LIG d   1      -4.068  76.530 115.847  0.00  0.00     0.028 C 
ATOM      5  C   LIG d   1      -4.224  77.732 116.773  0.00  0.00    -0.047 C 
ATOM      6  C   LIG d   1      -5.427  77.488 117.712  0.00  0.00     0.091 C 
ENDROOT
BRANCH   1   7
ATOM      7  O   LIG d   1      -7.686  76.539 117.767  0.00  0.00    -0.368 OA
BRANCH   7   8
ATOM      8  C   LIG d   1      -8.938  76.173 117.138  0.00  0.00     0.119 C 
BRANCH   8   9
ATOM      9  C   LIG d   1     -10.059  76.959 117.847  0.00  0.00     0.028 C 
ATOM     10  C   LIG d   1      -9.565  78.297 118.420  0.00  0.00     0.006 C 
ENDBRANCH   8   9
BRANCH   8  11
ATOM     11  C   LIG d   1      -9.269  74.696 117.372  0.00  0.00     0.028 C 
ATOM     12  C   LIG d   1      -9.030  74.255 118.824  0.00  0.00     0.006 C 
ENDBRANCH   8  11
ENDBRANCH   7   8
ENDBRANCH   1   7
BRANCH   6  13
ATOM     13  N   LIG d   1      -5.702  78.652 118.594  0.00  0.00    -0.311 N 
ATOM     14  C   LIG d   1      -5.998  79.867 118.135  0.00  0.00     0.210 C 
ATOM     15  C   LIG d   1      -6.226  80.929 119.214  0.00  0.00     0.109 C 
ATOM     16  O   LIG d   1      -6.124  80.158 116.936  0.00  0.00    -0.276 OA
ATOM     17  H   LIG d   1      -5.652  78.498 119.582  0.00  0.00     0.149 HD
ENDBRANCH   6  13
BRANCH   5  18
ATOM     18  N   LIG d   1      -2.951  77.906 117.497  0.00  0.00     0.381 N 
ATOM     19  H   LIG d   1      -2.391  77.082 117.401  0.00  0.00    -0.090 HD
ATOM     20  H   LIG d   1      -3.148  78.041 118.473  0.00  0.00    -0.090 HD
ATOM     21  H   LIG d   1      -2.459  78.694 117.137  0.00  0.00    -0.090 HD
ENDBRANCH   5  18
BRANCH   3  22
ATOM     22  C   LIG d   1      -5.162  75.591 113.935  0.00  0.00     0.382 C 
ATOM     23  O   LIG d   1      -5.500  76.239 112.915  0.00  0.00    -0.241 OA
ATOM     24  O   LIG d   1      -4.789  74.409 113.814  0.00  0.00    -0.241 OA
ENDBRANCH   3  22
TORSDOF 7
ENDMDL
MODEL 4
REMARK VINA RESULT:      -4.4      2.431      3.123
REMARK  7 active torsions:
REMARK  status: ('A' for Active; 'I' for Inactive)
REMARK    1  A    between atoms: C_2  and  C_3 
REMARK    2  A    between atoms: C_3  and  O_6 
REMARK    3  A    between atoms: C_3  and  C_4 
REMARK    4  A    between atoms: C_7  and  O_6 
REMARK    5  A    between atoms: C_9  and  C_10 
REMARK    6  A    between atoms: N_15  and  C_14 
REMARK    7  A    between atoms: N_20  and  C_19 
REMARK       I    between atoms: C_22  and  N_20 
ROOT
ATOM      1  C   LIG d   1      -2.992  77.118 114.985  0.00  0.00     0.161 C 
ATOM      2  C   LIG d   1      -2.987  77.329 113.596  0.00  0.00     0.016 C 
ATOM      3  C   LIG d   1      -1.974  78.050 112.922  0.00  0.00     0.038 C 
ATOM      4  C   LIG d   1      -0.811  78.483 113.577  0.00  0.00     0.028 C 
ATOM      5  C   LIG d   1      -1.013  78.733 115.068  0.00  0.00    -0.047 C 
ATOM      6  C   LIG d   1      -1.676  77.487 115.700  0.00  0.00     0.091 C 
ENDROOT
BRANCH   1   7
ATOM      7  O   LIG d   1      -3.351  75.752 115.270  0.00  0.00    -0.368 OA
BRANCH   7   8
ATOM      8  C   LIG d   1      -4.651  75.547 115.877  0.00  0.00     0.119 C 
BRANCH   8   9
ATOM      9  C   LIG d   1      -4.418  74.951 117.279  0.00  0.00     0.028 C 
ATOM     10  C   LIG d   1      -4.865  75.901 118.403  0.00  0.00     0.006 C 
ENDBRANCH   8   9
BRANCH   8  11
ATOM     11  C   LIG d   1      -5.462  74.494 115.118  0.00  0.00     0.028 C 
ATOM     12  C   LIG d   1      -6.809  74.182 115.788  0.00  0.00     0.006 C 
ENDBRANCH   8  11
ENDBRANCH   7   8
ENDBRANCH   1   7
BRANCH   6  13
ATOM     13  N   LIG d   1      -1.985  77.679 117.141  0.00  0.00    -0.311 N 
ATOM     14  C   LIG d   1      -1.185  77.270 118.124  0.00  0.00     0.210 C 
ATOM     15  C   LIG d   1      -1.703  77.550 119.538  0.00  0.00     0.109 C 
ATOM     16  O   LIG d   1      -0.080  76.732 117.958  0.00  0.00    -0.276 OA
ATOM     17  H   LIG d   1      -2.848  78.136 117.365  0.00  0.00     0.149 HD
ENDBRANCH   6  13
BRANCH   5  18
ATOM     18  N   LIG d   1       0.306  79.044 115.651  0.00  0.00     0.381 N 
ATOM     19  H   LIG d   1       0.426  80.036 115.705  0.00  0.00    -0.090 HD
ATOM     20  H   LIG d   1       1.022  78.672 115.052  0.00  0.00    -0.090 HD
ATOM     21  H   LIG d   1       0.381  78.643 116.559  0.00  0.00    -0.090 HD
ENDBRANCH   5  18
BRANCH   3  22
ATOM     22  C   LIG d   1      -2.138  78.380 111.586  0.00  0.00     0.382 C 
ATOM     23  O   LIG d   1      -1.549  79.380 111.109  0.00  0.00    -0.241 OA
ATOM     24  O   LIG d   1      -2.904  77.716 110.861  0.00  0.00    -0.241 OA
ENDBRANCH   3  22
TORSDOF 7
ENDMDL
MODEL 5
REMARK VINA RESULT:      -4.3      2.577      5.048
REMARK  7 active torsions:
REMARK  status: ('A' for Active; 'I' for Inactive)
REMARK    1  A    between atoms: C_2  and  C_3 
REMARK    2  A    between atoms: C_3  and  O_6 
REMARK    3  A    between atoms: C_3  and  C_4 
REMARK    4  A    between atoms: C_7  and  O_6 
REMARK    5  A    between atoms: C_9  and  C_10 
REMARK    6  A    between atoms: N_15  and  C_14 
REMARK    7  A    between atoms: N_20  and  C_19 
REMARK       I    between atoms: C_22  and  N_20 
ROOT
ATOM      1  C   LIG d   1      -2.028  75.792 114.995  0.00  0.00     0.161 C 
ATOM      2  C   LIG d   1      -1.862  75.355 116.320  0.00  0.00     0.016 C 
ATOM      3  C   LIG d   1      -1.137  76.080 117.293  0.00  0.00     0.038 C 
ATOM      4  C   LIG d   1      -0.654  77.373 117.046  0.00  0.00     0.028 C 
ATOM      5  C   LIG d   1      -0.362  77.640 115.573  0.00  0.00    -0.047 C 
ATOM      6  C   LIG d   1      -1.603  77.252 114.737  0.00  0.00     0.091 C 
ENDROOT
BRANCH   1   7
ATOM      7  O   LIG d   1      -3.394  75.587 114.581  0.00  0.00    -0.368 OA
BRANCH   7   8
ATOM      8  C   LIG d   1      -4.350  75.336 115.640  0.00  0.00     0.119 C 
BRANCH   8   9
ATOM      9  C   LIG d   1      -5.259  74.181 115.178  0.00  0.00     0.028 C 
ATOM     10  C   LIG d   1      -6.688  74.300 115.733  0.00  0.00     0.006 C 
ENDBRANCH   8   9
BRANCH   8  11
ATOM     11  C   LIG d   1      -5.286  76.532 115.841  0.00  0.00     0.028 C 
ATOM     12  C   LIG d   1      -4.803  77.487 116.944  0.00  0.00     0.006 C 
ENDBRANCH   8  11
ENDBRANCH   7   8
ENDBRANCH   1   7
BRANCH   6  13
ATOM     13  N   LIG d   1      -1.372  77.403 113.277  0.00  0.00    -0.311 N 
ATOM     14  C   LIG d   1      -2.232  78.005 112.457  0.00  0.00     0.210 C 
ATOM     15  C   LIG d   1      -1.810  78.034 110.985  0.00  0.00     0.109 C 
ATOM     16  O   LIG d   1      -3.289  78.546 112.814  0.00  0.00    -0.276 OA
ATOM     17  H   LIG d   1      -0.524  77.020 112.907  0.00  0.00     0.149 HD
ENDBRANCH   6  13
BRANCH   5  18
ATOM     18  N   LIG d   1       0.003  79.063 115.442  0.00  0.00     0.381 N 
ATOM     19  H   LIG d   1      -0.116  79.357 114.493  0.00  0.00    -0.090 HD
ATOM     20  H   LIG d   1       0.970  79.175 115.688  0.00  0.00    -0.090 HD
ATOM     21  H   LIG d   1      -0.567  79.618 116.042  0.00  0.00    -0.090 HD
ENDBRANCH   5  18
BRANCH   3  22
ATOM     22  C   LIG d   1      -0.855  75.494 118.518  0.00  0.00     0.382 C 
ATOM     23  O   LIG d   1      -1.345  75.972 119.569  0.00  0.00    -0.241 OA
ATOM     24  O   LIG d   1      -0.081  74.520 118.589  0.00  0.00    -0.241 OA
ENDBRANCH   3  22
TORSDOF 7
ENDMDL
MODEL 6
REMARK VINA RESULT:      -4.2      3.070      4.712
REMARK  7 active torsions:
REMARK  status: ('A' for Active; 'I' for Inactive)
REMARK    1  A    between atoms: C_2  and  C_3 
REMARK    2  A    between atoms: C_3  and  O_6 
REMARK    3  A    between atoms: C_3  and  C_4 
REMARK    4  A    between atoms: C_7  and  O_6 
REMARK    5  A    between atoms: C_9  and  C_10 
REMARK    6  A    between atoms: N_15  and  C_14 
REMARK    7  A    between atoms: N_20  and  C_19 
REMARK       I    between atoms: C_22  and  N_20 
ROOT
ATOM      1  C   LIG d   1      -5.522  78.029 117.223  0.00  0.00     0.161 C 
ATOM      2  C   LIG d   1      -4.364  78.763 116.917  0.00  0.00     0.016 C 
ATOM      3  C   LIG d   1      -3.259  78.219 116.223  0.00  0.00     0.038 C 
ATOM      4  C   LIG d   1      -3.300  76.939 115.650  0.00  0.00     0.028 C 
ATOM      5  C   LIG d   1      -4.249  75.985 116.368  0.00  0.00    -0.047 C 
ATOM      6  C   LIG d   1      -5.630  76.664 116.511  0.00  0.00     0.091 C 
ENDROOT
BRANCH   1   7
ATOM      7  O   LIG d   1      -6.692  78.827 116.956  0.00  0.00    -0.368 OA
BRANCH   7   8
ATOM      8  C   LIG d   1      -7.360  79.386 118.114  0.00  0.00     0.119 C 
BRANCH   8   9
ATOM      9  C   LIG d   1      -8.794  78.823 118.138  0.00  0.00     0.028 C 
ATOM     10  C   LIG d   1      -9.114  78.089 119.451  0.00  0.00     0.006 C 
ENDBRANCH   8   9
BRANCH   8  11
ATOM     11  C   LIG d   1      -7.522  80.904 117.985  0.00  0.00     0.028 C 
ATOM     12  C   LIG d   1      -6.606  81.685 118.941  0.00  0.00     0.006 C 
ENDBRANCH   8  11
ENDBRANCH   7   8
ENDBRANCH   1   7
BRANCH   6  13
ATOM     13  N   LIG d   1      -6.595  75.832 117.276  0.00  0.00    -0.311 N 
ATOM     14  C   LIG d   1      -7.826  75.557 116.849  0.00  0.00     0.210 C 
ATOM     15  C   LIG d   1      -8.664  74.698 117.801  0.00  0.00     0.109 C 
ATOM     16  O   LIG d   1      -8.292  75.916 115.757  0.00  0.00    -0.276 OA
ATOM     17  H   LIG d   1      -6.288  75.474 118.159  0.00  0.00     0.149 HD
ENDBRANCH   6  13
BRANCH   5  18
ATOM     18  N   LIG d   1      -4.298  74.734 115.587  0.00  0.00     0.381 N 
ATOM     19  H   LIG d   1      -3.380  74.340 115.521  0.00  0.00    -0.090 HD
ATOM     20  H   LIG d   1      -4.619  74.943 114.658  0.00  0.00    -0.090 HD
ATOM     21  H   LIG d   1      -4.915  74.085 116.022  0.00  0.00    -0.090 HD
ENDBRANCH   5  18
BRANCH   3  22
ATOM     22  C   LIG d   1      -2.082  78.946 116.129  0.00  0.00     0.382 C 
ATOM     23  O   LIG d   1      -1.558  79.149 115.007  0.00  0.00    -0.241 OA
ATOM     24  O   LIG d   1      -1.513  79.362 117.156  0.00  0.00    -0.241 OA
ENDBRANCH   3  22
TORSDOF 7
ENDMDL
MODEL 7
REMARK VINA RESULT:      -4.1      3.186      5.733
REMARK  7 active torsions:
REMARK  status: ('A' for Active; 'I' for Inactive)
REMARK    1  A    between atoms: C_2  and  C_3 
REMARK    2  A    between atoms: C_3  and  O_6 
REMARK    3  A    between atoms: C_3  and  C_4 
REMARK    4  A    between atoms: C_7  and  O_6 
REMARK    5  A    between atoms: C_9  and  C_10 
REMARK    6  A    between atoms: N_15  and  C_14 
REMARK    7  A    between atoms: N_20  and  C_19 
REMARK       I    between atoms: C_22  and  N_20 
ROOT
ATOM      1  C   LIG d   1      -5.903  77.188 116.677  0.00  0.00     0.161 C 
ATOM      2  C   LIG d   1      -7.127  76.693 117.158  0.00  0.00     0.016 C 
ATOM      3  C   LIG d   1      -7.683  75.460 116.745  0.00  0.00     0.038 C 
ATOM      4  C   LIG d   1      -6.976  74.563 115.932  0.00  0.00     0.028 C 
ATOM      5  C   LIG d   1      -5.959  75.242 115.022  0.00  0.00    -0.047 C 
ATOM      6  C   LIG d   1      -5.065  76.172 115.874  0.00  0.00     0.091 C 
ENDROOT
BRANCH   1   7
ATOM      7  O   LIG d   1      -5.130  77.724 117.769  0.00  0.00    -0.368 OA
BRANCH   7   8
ATOM      8  C   LIG d   1      -4.870  79.149 117.727  0.00  0.00     0.119 C 
BRANCH   8   9
ATOM      9  C   LIG d   1      -3.500  79.389 118.389  0.00  0.00     0.028 C 
ATOM     10  C   LIG d   1      -2.332  78.901 117.515  0.00  0.00     0.006 C 
ENDBRANCH   8   9
BRANCH   8  11
ATOM     11  C   LIG d   1      -5.876  79.924 118.583  0.00  0.00     0.028 C 
ATOM     12  C   LIG d   1      -6.929  80.663 117.743  0.00  0.00     0.006 C 
ENDBRANCH   8  11
ENDBRANCH   7   8
ENDBRANCH   1   7
BRANCH   6  13
ATOM     13  N   LIG d   1      -4.097  76.940 115.049  0.00  0.00    -0.311 N 
ATOM     14  C   LIG d   1      -2.891  76.481 114.717  0.00  0.00     0.210 C 
ATOM     15  C   LIG d   1      -2.043  77.442 113.877  0.00  0.00     0.109 C 
ATOM     16  O   LIG d   1      -2.455  75.358 115.011  0.00  0.00    -0.276 OA
ATOM     17  H   LIG d   1      -4.380  77.849 114.741  0.00  0.00     0.149 HD
ENDBRANCH   6  13
BRANCH   5  18
ATOM     18  N   LIG d   1      -5.199  74.182 114.332  0.00  0.00     0.381 N 
ATOM     19  H   LIG d   1      -4.255  74.172 114.663  0.00  0.00    -0.090 HD
ATOM     20  H   LIG d   1      -5.187  74.380 113.347  0.00  0.00    -0.090 HD
ATOM     21  H   LIG d   1      -5.625  73.297 114.495  0.00  0.00    -0.090 HD
ENDBRANCH   5  18
BRANCH   3  22
ATOM     22  C   LIG d   1      -8.979  75.133 117.116  0.00  0.00     0.382 C 
ATOM     23  O   LIG d   1      -9.926  75.319 116.314  0.00  0.00    -0.241 OA
ATOM     24  O   LIG d   1      -9.218  74.695 118.257  0.00  0.00    -0.241 OA
ENDBRANCH   3  22
TORSDOF 7
ENDMDL
MODEL 8
REMARK VINA RESULT:      -4.1      3.200      5.673
REMARK  7 active torsions:
REMARK  status: ('A' for Active; 'I' for Inactive)
REMARK    1  A    between atoms: C_2  and  C_3 
REMARK    2  A    between atoms: C_3  and  O_6 
REMARK    3  A    between atoms: C_3  and  C_4 
REMARK    4  A    between atoms: C_7  and  O_6 
REMARK    5  A    between atoms: C_9  and  C_10 
REMARK    6  A    between atoms: N_15  and  C_14 
REMARK    7  A    between atoms: N_20  and  C_19 
REMARK       I    between atoms: C_22  and  N_20 
ROOT
ATOM      1  C   LIG d   1      -3.409  74.942 115.573  0.00  0.00     0.161 C 
ATOM      2  C   LIG d   1      -4.624  75.287 114.959  0.00  0.00     0.016 C 
ATOM      3  C   LIG d   1      -5.688  75.921 115.641  0.00  0.00     0.038 C 
ATOM      4  C   LIG d   1      -5.550  76.392 116.955  0.00  0.00     0.028 C 
ATOM      5  C   LIG d   1      -4.521  75.617 117.772  0.00  0.00    -0.047 C 
ATOM      6  C   LIG d   1      -3.198  75.549 116.976  0.00  0.00     0.091 C 
ENDROOT
BRANCH   1   7
ATOM      7  O   LIG d   1      -2.309  75.288 114.708  0.00  0.00    -0.368 OA
BRANCH   7   8
ATOM      8  C   LIG d   1      -1.801  76.639 114.831  0.00  0.00     0.119 C 
BRANCH   8   9
ATOM      9  C   LIG d   1      -2.178  77.395 113.542  0.00  0.00     0.028 C 
ATOM     10  C   LIG d   1      -0.943  77.819 112.729  0.00  0.00     0.006 C 
ENDBRANCH   8   9
BRANCH   8  11
ATOM     11  C   LIG d   1      -0.270  76.657 114.879  0.00  0.00     0.028 C 
ATOM     12  C   LIG d   1       0.337  75.254 115.038  0.00  0.00     0.006 C 
ENDBRANCH   8  11
ENDBRANCH   7   8
ENDBRANCH   1   7
BRANCH   6  13
ATOM     13  N   LIG d   1      -2.163  74.736 117.667  0.00  0.00    -0.311 N 
ATOM     14  C   LIG d   1      -1.218  75.260 118.445  0.00  0.00     0.210 C 
ATOM     15  C   LIG d   1      -0.238  74.246 119.045  0.00  0.00     0.109 C 
ATOM     16  O   LIG d   1      -1.118  76.465 118.723  0.00  0.00    -0.276 OA
ATOM     17  H   LIG d   1      -2.189  73.746 117.522  0.00  0.00     0.149 HD
ENDBRANCH   6  13
BRANCH   5  18
ATOM     18  N   LIG d   1      -4.380  76.299 119.072  0.00  0.00     0.381 N 
ATOM     19  H   LIG d   1      -5.262  76.677 119.355  0.00  0.00    -0.090 HD
ATOM     20  H   LIG d   1      -3.729  77.059 118.972  0.00  0.00    -0.090 HD
ATOM     21  H   LIG d   1      -4.049  75.658 119.759  0.00  0.00    -0.090 HD
ENDBRANCH   5  18
BRANCH   3  22
ATOM     22  C   LIG d   1      -6.921  76.052 115.020  0.00  0.00     0.382 C 
ATOM     23  O   LIG d   1      -7.974  75.819 115.661  0.00  0.00    -0.241 OA
ATOM     24  O   LIG d   1      -6.992  76.358 113.815  0.00  0.00    -0.241 OA
ENDBRANCH   3  22
TORSDOF 7
ENDMDL
MODEL 9
REMARK VINA RESULT:      -4.0      4.221      6.211
REMARK  7 active torsions:
REMARK  status: ('A' for Active; 'I' for Inactive)
REMARK    1  A    between atoms: C_2  and  C_3 
REMARK    2  A    between atoms: C_3  and  O_6 
REMARK    3  A    between atoms: C_3  and  C_4 
REMARK    4  A    between atoms: C_7  and  O_6 
REMARK    5  A    between atoms: C_9  and  C_10 
REMARK    6  A    between atoms: N_15  and  C_14 
REMARK    7  A    between atoms: N_20  and  C_19 
REMARK       I    between atoms: C_22  and  N_20 
ROOT
ATOM      1  C   LIG d   1      -6.258  77.873 117.373  0.00  0.00     0.161 C 
ATOM      2  C   LIG d   1      -6.938  79.073 117.638  0.00  0.00     0.016 C 
ATOM      3  C   LIG d   1      -8.321  79.138 117.924  0.00  0.00     0.038 C 
ATOM      4  C   LIG d   1      -9.093  77.982 118.114  0.00  0.00     0.028 C 
ATOM      5  C   LIG d   1      -8.562  76.768 117.360  0.00  0.00    -0.047 C 
ATOM      6  C   LIG d   1      -7.061  76.593 117.685  0.00  0.00     0.091 C 
ENDROOT
BRANCH   1   7
ATOM      7  O   LIG d   1      -4.999  77.859 118.075  0.00  0.00    -0.368 OA
BRANCH   7   8
ATOM      8  C   LIG d   1      -3.841  78.281 117.315  0.00  0.00     0.119 C 
BRANCH   8   9
ATOM      9  C   LIG d   1      -3.039  77.016 116.951  0.00  0.00     0.028 C 
ATOM     10  C   LIG d   1      -3.042  75.975 118.083  0.00  0.00     0.006 C 
ENDBRANCH   8   9
BRANCH   8  11
ATOM     11  C   LIG d   1      -2.894  79.130 118.168  0.00  0.00     0.028 C 
ATOM     12  C   LIG d   1      -3.631  79.959 119.231  0.00  0.00     0.006 C 
ENDBRANCH   8  11
ENDBRANCH   7   8
ENDBRANCH   1   7
BRANCH   6  13
ATOM     13  N   LIG d   1      -6.442  75.477 116.923  0.00  0.00    -0.311 N 
ATOM     14  C   LIG d   1      -6.224  75.519 115.609  0.00  0.00     0.210 C 
ATOM     15  C   LIG d   1      -5.594  74.254 115.018  0.00  0.00     0.109 C 
ATOM     16  O   LIG d   1      -6.462  76.495 114.883  0.00  0.00    -0.276 OA
ATOM     17  H   LIG d   1      -6.189  74.657 117.439  0.00  0.00     0.149 HD
ENDBRANCH   6  13
BRANCH   5  18
ATOM     18  N   LIG d   1      -9.378  75.605 117.755  0.00  0.00     0.381 N 
ATOM     19  H   LIG d   1      -9.895  75.820 118.585  0.00  0.00    -0.090 HD
ATOM     20  H   LIG d   1      -8.768  74.832 117.955  0.00  0.00    -0.090 HD
ATOM     21  H   LIG d   1     -10.005  75.361 117.020  0.00  0.00    -0.090 HD
ENDBRANCH   5  18
BRANCH   3  22
ATOM     22  C   LIG d   1      -8.954  80.370 117.983  0.00  0.00     0.382 C 
ATOM     23  O   LIG d   1      -8.570  81.308 117.244  0.00  0.00    -0.241 OA
ATOM     24  O   LIG d   1      -9.876  80.568 118.797  0.00  0.00    -0.241 OA
ENDBRANCH   3  22
TORSDOF 7
ENDMDL
