MODEL 1
REMARK VINA RESULT:      -5.2      0.000      0.000
REMARK  7 active torsions:
REMARK  status: ('A' for Active; 'I' for Inactive)
REMARK    1  A    between atoms: C_2  and  C_3 
REMARK    2  A    between atoms: C_3  and  O_6 
REMARK    3  A    between atoms: C_3  and  C_4 
REMARK    4  A    between atoms: C_7  and  O_6 
REMARK    5  A    between atoms: C_9  and  C_10 
REMARK    6  A    between atoms: N_15  and  C_14 
REMARK    7  A    between atoms: N_20  and  C_19 
REMARK       I    between atoms: C_22  and  N_20 
ROOT
ATOM      1  C   LIG d   1      -1.830  80.678 114.231  0.00  0.00     0.161 C 
ATOM      2  C   LIG d   1      -1.612  82.044 113.985  0.00  0.00     0.016 C 
ATOM      3  C   LIG d   1      -1.007  82.535 112.806  0.00  0.00     0.038 C 
ATOM      4  C   LIG d   1      -0.714  81.698 111.719  0.00  0.00     0.028 C 
ATOM      5  C   LIG d   1      -0.453  80.251 112.122  0.00  0.00    -0.047 C 
ATOM      6  C   LIG d   1      -1.619  79.759 113.010  0.00  0.00     0.091 C 
ENDROOT
BRANCH   1   7
ATOM      7  O   LIG d   1      -3.149  80.485 114.781  0.00  0.00    -0.368 OA
BRANCH   7   8
ATOM      8  C   LIG d   1      -3.207  80.080 116.171  0.00  0.00     0.119 C 
BRANCH   8   9
ATOM      9  C   LIG d   1      -3.651  81.305 116.992  0.00  0.00     0.028 C 
ATOM     10  C   LIG d   1      -2.471  82.004 117.689  0.00  0.00     0.006 C 
ENDBRANCH   8   9
BRANCH   8  11
ATOM     11  C   LIG d   1      -1.818  79.716 116.704  0.00  0.00     0.028 C 
ATOM     12  C   LIG d   1      -1.745  78.279 117.245  0.00  0.00     0.006 C 
ENDBRANCH   8  11
ENDBRANCH   7   8
ENDBRANCH   1   7
BRANCH   6  13
ATOM     13  N   LIG d   1      -1.402  78.379 113.517  0.00  0.00    -0.311 N 
ATOM     14  C   LIG d   1      -2.355  77.449 113.541  0.00  0.00     0.210 C 
ATOM     15  C   LIG d   1      -1.926  76.098 114.123  0.00  0.00     0.109 C 
ATOM     16  O   LIG d   1      -3.506  77.604 113.105  0.00  0.00    -0.276 OA
ATOM     17  H   LIG d   1      -0.489  78.158 113.861  0.00  0.00     0.149 HD
ENDBRANCH   6  13
BRANCH   5  18
ATOM     18  N   LIG d   1      -0.298  79.464 110.884  0.00  0.00     0.381 N 
ATOM     19  H   LIG d   1       0.253  79.976 110.224  0.00  0.00    -0.090 HD
ATOM     20  H   LIG d   1      -1.206  79.308 110.482  0.00  0.00    -0.090 HD
ATOM     21  H   LIG d   1       0.139  78.592 111.086  0.00  0.00    -0.090 HD
ENDBRANCH   5  18
BRANCH   3  22
ATOM     22  C   LIG d   1      -0.651  83.873 112.722  0.00  0.00     0.382 C 
ATOM     23  O   LIG d   1       0.082  84.269 111.784  0.00  0.00    -0.241 OA
ATOM     24  O   LIG d   1      -1.018  84.680 113.597  0.00  0.00    -0.241 OA
ENDBRANCH   3  22
TORSDOF 7
ENDMDL
MODEL 2
REMARK VINA RESULT:      -5.2      0.601      1.670
REMARK  7 active torsions:
REMARK  status: ('A' for Active; 'I' for Inactive)
REMARK    1  A    between atoms: C_2  and  C_3 
REMARK    2  A    between atoms: C_3  and  O_6 
REMARK    3  A    between atoms: C_3  and  C_4 
REMARK    4  A    between atoms: C_7  and  O_6 
REMARK    5  A    between atoms: C_9  and  C_10 
REMARK    6  A    between atoms: N_15  and  C_14 
REMARK    7  A    between atoms: N_20  and  C_19 
REMARK       I    between atoms: C_22  and  N_20 
ROOT
ATOM      1  C   LIG d   1      -1.824  80.643 114.353  0.00  0.00     0.161 C 
ATOM      2  C   LIG d   1      -1.623  82.014 114.126  0.00  0.00     0.016 C 
ATOM      3  C   LIG d   1      -1.052  82.531 112.941  0.00  0.00     0.038 C 
ATOM      4  C   LIG d   1      -0.781  81.716 111.832  0.00  0.00     0.028 C 
ATOM      5  C   LIG d   1      -0.499  80.264 112.202  0.00  0.00    -0.047 C 
ATOM      6  C   LIG d   1      -1.638  79.747 113.111  0.00  0.00     0.091 C 
ENDROOT
BRANCH   1   7
ATOM      7  O   LIG d   1      -3.126  80.429 114.933  0.00  0.00    -0.368 OA
BRANCH   7   8
ATOM      8  C   LIG d   1      -3.157  80.194 116.363  0.00  0.00     0.119 C 
BRANCH   8   9
ATOM      9  C   LIG d   1      -3.959  78.900 116.602  0.00  0.00     0.028 C 
ATOM     10  C   LIG d   1      -3.116  77.803 117.274  0.00  0.00     0.006 C 
ENDBRANCH   8   9
BRANCH   8  11
ATOM     11  C   LIG d   1      -3.934  81.294 117.092  0.00  0.00     0.028 C 
ATOM     12  C   LIG d   1      -3.628  81.341 118.598  0.00  0.00     0.006 C 
ENDBRANCH   8  11
ENDBRANCH   7   8
ENDBRANCH   1   7
BRANCH   6  13
ATOM     13  N   LIG d   1      -1.397  78.360 113.587  0.00  0.00    -0.311 N 
ATOM     14  C   LIG d   1      -2.334  77.413 113.591  0.00  0.00     0.210 C 
ATOM     15  C   LIG d   1      -1.881  76.058 114.143  0.00  0.00     0.109 C 
ATOM     16  O   LIG d   1      -3.488  77.558 113.159  0.00  0.00    -0.276 OA
ATOM     17  H   LIG d   1      -0.480  78.147 113.926  0.00  0.00     0.149 HD
ENDBRANCH   6  13
BRANCH   5  18
ATOM     18  N   LIG d   1      -0.370  79.501 110.946  0.00  0.00     0.381 N 
ATOM     19  H   LIG d   1      -1.276  79.225 110.623  0.00  0.00    -0.090 HD
ATOM     20  H   LIG d   1       0.167  78.670 111.124  0.00  0.00    -0.090 HD
ATOM     21  H   LIG d   1       0.083  80.056 110.254  0.00  0.00    -0.090 HD
ENDBRANCH   5  18
BRANCH   3  22
ATOM     22  C   LIG d   1      -0.709  83.873 112.871  0.00  0.00     0.382 C 
ATOM     23  O   LIG d   1      -1.102  84.667 113.759  0.00  0.00    -0.241 OA
ATOM     24  O   LIG d   1      -0.050  84.307 111.908  0.00  0.00    -0.241 OA
ENDBRANCH   3  22
TORSDOF 7
ENDMDL
MODEL 3
REMARK VINA RESULT:      -5.0      2.644      4.732
REMARK  7 active torsions:
REMARK  status: ('A' for Active; 'I' for Inactive)
REMARK    1  A    between atoms: C_2  and  C_3 
REMARK    2  A    between atoms: C_3  and  O_6 
REMARK    3  A    between atoms: C_3  and  C_4 
REMARK    4  A    between atoms: C_7  and  O_6 
REMARK    5  A    between atoms: C_9  and  C_10 
REMARK    6  A    between atoms: N_15  and  C_14 
REMARK    7  A    between atoms: N_20  and  C_19 
REMARK       I    between atoms: C_22  and  N_20 
ROOT
ATOM      1  C   LIG d   1      -2.073  78.247 114.886  0.00  0.00     0.161 C 
ATOM      2  C   LIG d   1      -2.277  79.104 113.792  0.00  0.00     0.016 C 
ATOM      3  C   LIG d   1      -2.330  80.512 113.905  0.00  0.00     0.038 C 
ATOM      4  C   LIG d   1      -2.029  81.170 115.107  0.00  0.00     0.028 C 
ATOM      5  C   LIG d   1      -2.315  80.329 116.347  0.00  0.00    -0.047 C 
ATOM      6  C   LIG d   1      -1.633  78.951 116.186  0.00  0.00     0.091 C 
ENDROOT
BRANCH   1   7
ATOM      7  O   LIG d   1      -1.129  77.216 114.530  0.00  0.00    -0.368 OA
BRANCH   7   8
ATOM      8  C   LIG d   1      -1.687  76.020 113.934  0.00  0.00     0.119 C 
BRANCH   8   9
ATOM      9  C   LIG d   1      -2.780  75.495 114.885  0.00  0.00     0.028 C 
ATOM     10  C   LIG d   1      -4.080  75.136 114.144  0.00  0.00     0.006 C 
ENDBRANCH   8   9
BRANCH   8  11
ATOM     11  C   LIG d   1      -0.646  74.899 113.855  0.00  0.00     0.028 C 
ATOM     12  C   LIG d   1       0.376  74.954 115.001  0.00  0.00     0.006 C 
ENDBRANCH   8  11
ENDBRANCH   7   8
ENDBRANCH   1   7
BRANCH   6  13
ATOM     13  N   LIG d   1      -1.932  78.036 117.318  0.00  0.00    -0.311 N 
ATOM     14  C   LIG d   1      -1.001  77.321 117.948  0.00  0.00     0.210 C 
ATOM     15  C   LIG d   1      -1.527  76.425 119.074  0.00  0.00     0.109 C 
ATOM     16  O   LIG d   1       0.214  77.368 117.703  0.00  0.00    -0.276 OA
ATOM     17  H   LIG d   1      -2.889  77.960 117.603  0.00  0.00     0.149 HD
ENDBRANCH   6  13
BRANCH   5  18
ATOM     18  N   LIG d   1      -1.829  81.082 117.518  0.00  0.00     0.381 N 
ATOM     19  H   LIG d   1      -2.600  81.516 117.986  0.00  0.00    -0.090 HD
ATOM     20  H   LIG d   1      -1.204  81.804 117.204  0.00  0.00    -0.090 HD
ATOM     21  H   LIG d   1      -1.353  80.470 118.144  0.00  0.00    -0.090 HD
ENDBRANCH   5  18
BRANCH   3  22
ATOM     22  C   LIG d   1      -2.725  81.275 112.817  0.00  0.00     0.382 C 
ATOM     23  O   LIG d   1      -1.897  82.019 112.239  0.00  0.00    -0.241 OA
ATOM     24  O   LIG d   1      -3.910  81.262 112.434  0.00  0.00    -0.241 OA
ENDBRANCH   3  22
TORSDOF 7
ENDMDL
MODEL 4
REMARK VINA RESULT:      -4.9      1.926      3.069
REMARK  7 active torsions:
REMARK  status: ('A' for Active; 'I' for Inactive)
REMARK    1  A    between atoms: C_2  and  C_3 
REMARK    2  A    between atoms: C_3  and  O_6 
REMARK    3  A    between atoms: C_3  and  C_4 
REMARK    4  A    between atoms: C_7  and  O_6 
REMARK    5  A    between atoms: C_9  and  C_10 
REMARK    6  A    between atoms: N_15  and  C_14 
REMARK    7  A    between atoms: N_20  and  C_19 
REMARK       I    between atoms: C_22  and  N_20 
ROOT
ATOM      1  C   LIG d   1      -1.904  78.883 115.355  0.00  0.00     0.161 C 
ATOM      2  C   LIG d   1      -2.286  80.227 115.503  0.00  0.00     0.016 C 
ATOM      3  C   LIG d   1      -2.468  81.108 114.412  0.00  0.00     0.038 C 
ATOM      4  C   LIG d   1      -2.429  80.661 113.083  0.00  0.00     0.028 C 
ATOM      5  C   LIG d   1      -1.552  79.430 112.884  0.00  0.00    -0.047 C 
ATOM      6  C   LIG d   1      -1.965  78.348 113.909  0.00  0.00     0.091 C 
ENDROOT
BRANCH   1   7
ATOM      7  O   LIG d   1      -2.693  78.052 116.230  0.00  0.00    -0.368 OA
BRANCH   7   8
ATOM      8  C   LIG d   1      -2.122  77.773 117.531  0.00  0.00     0.119 C 
BRANCH   8   9
ATOM      9  C   LIG d   1      -1.735  76.282 117.557  0.00  0.00     0.028 C 
ATOM     10  C   LIG d   1      -0.242  76.057 117.266  0.00  0.00     0.006 C 
ENDBRANCH   8   9
BRANCH   8  11
ATOM     11  C   LIG d   1      -3.160  77.942 118.644  0.00  0.00     0.028 C 
ATOM     12  C   LIG d   1      -4.536  78.377 118.114  0.00  0.00     0.006 C 
ENDBRANCH   8  11
ENDBRANCH   7   8
ENDBRANCH   1   7
BRANCH   6  13
ATOM     13  N   LIG d   1      -1.100  77.141 113.839  0.00  0.00    -0.311 N 
ATOM     14  C   LIG d   1      -1.578  75.901 113.752  0.00  0.00     0.210 C 
ATOM     15  C   LIG d   1      -0.515  74.800 113.711  0.00  0.00     0.109 C 
ATOM     16  O   LIG d   1      -2.781  75.611 113.672  0.00  0.00    -0.276 OA
ATOM     17  H   LIG d   1      -0.110  77.287 113.866  0.00  0.00     0.149 HD
ENDBRANCH   6  13
BRANCH   5  18
ATOM     18  N   LIG d   1      -1.710  78.991 111.485  0.00  0.00     0.381 N 
ATOM     19  H   LIG d   1      -1.604  79.773 110.870  0.00  0.00    -0.090 HD
ATOM     20  H   LIG d   1      -2.636  78.618 111.364  0.00  0.00    -0.090 HD
ATOM     21  H   LIG d   1      -1.033  78.294 111.267  0.00  0.00    -0.090 HD
ENDBRANCH   5  18
BRANCH   3  22
ATOM     22  C   LIG d   1      -2.655  82.462 114.647  0.00  0.00     0.382 C 
ATOM     23  O   LIG d   1      -3.769  82.882 115.044  0.00  0.00    -0.241 OA
ATOM     24  O   LIG d   1      -1.737  83.274 114.423  0.00  0.00    -0.241 OA
ENDBRANCH   3  22
TORSDOF 7
ENDMDL
MODEL 5
REMARK VINA RESULT:      -4.7      2.426      3.536
REMARK  7 active torsions:
REMARK  status: ('A' for Active; 'I' for Inactive)
REMARK    1  A    between atoms: C_2  and  C_3 
REMARK    2  A    between atoms: C_3  and  O_6 
REMARK    3  A    between atoms: C_3  and  C_4 
REMARK    4  A    between atoms: C_7  and  O_6 
REMARK    5  A    between atoms: C_9  and  C_10 
REMARK    6  A    between atoms: N_15  and  C_14 
REMARK    7  A    between atoms: N_20  and  C_19 
REMARK       I    between atoms: C_22  and  N_20 
ROOT
ATOM      1  C   LIG d   1      -2.150  80.138 116.401  0.00  0.00     0.161 C 
ATOM      2  C   LIG d   1      -2.592  80.894 115.303  0.00  0.00     0.016 C 
ATOM      3  C   LIG d   1      -2.542  80.431 113.968  0.00  0.00     0.038 C 
ATOM      4  C   LIG d   1      -2.184  79.112 113.654  0.00  0.00     0.028 C 
ATOM      5  C   LIG d   1      -1.251  78.477 114.680  0.00  0.00    -0.047 C 
ATOM      6  C   LIG d   1      -1.860  78.655 116.090  0.00  0.00     0.091 C 
ENDROOT
BRANCH   1   7
ATOM      7  O   LIG d   1      -3.097  80.247 117.483  0.00  0.00    -0.368 OA
BRANCH   7   8
ATOM      8  C   LIG d   1      -4.492  80.084 117.127  0.00  0.00     0.119 C 
BRANCH   8   9
ATOM      9  C   LIG d   1      -5.273  81.243 117.777  0.00  0.00     0.028 C 
ATOM     10  C   LIG d   1      -6.784  80.964 117.847  0.00  0.00     0.006 C 
ENDBRANCH   8   9
BRANCH   8  11
ATOM     11  C   LIG d   1      -5.077  78.807 117.738  0.00  0.00     0.028 C 
ATOM     12  C   LIG d   1      -4.316  78.343 118.991  0.00  0.00     0.006 C 
ENDBRANCH   8  11
ENDBRANCH   7   8
ENDBRANCH   1   7
BRANCH   6  13
ATOM     13  N   LIG d   1      -0.970  78.136 117.161  0.00  0.00    -0.311 N 
ATOM     14  C   LIG d   1      -1.078  76.913 117.676  0.00  0.00     0.210 C 
ATOM     15  C   LIG d   1      -0.073  76.587 118.785  0.00  0.00     0.109 C 
ATOM     16  O   LIG d   1      -1.891  76.056 117.298  0.00  0.00    -0.276 OA
ATOM     17  H   LIG d   1      -0.261  78.755 117.505  0.00  0.00     0.149 HD
ENDBRANCH   6  13
BRANCH   5  18
ATOM     18  N   LIG d   1      -1.070  77.063 114.303  0.00  0.00     0.381 N 
ATOM     19  H   LIG d   1      -1.415  76.913 113.376  0.00  0.00    -0.090 HD
ATOM     20  H   LIG d   1      -1.600  76.487 114.933  0.00  0.00    -0.090 HD
ATOM     21  H   LIG d   1      -0.105  76.818 114.349  0.00  0.00    -0.090 HD
ENDBRANCH   5  18
BRANCH   3  22
ATOM     22  C   LIG d   1      -2.815  81.305 112.927  0.00  0.00     0.382 C 
ATOM     23  O   LIG d   1      -3.940  81.286 112.371  0.00  0.00    -0.241 OA
ATOM     24  O   LIG d   1      -1.937  82.082 112.507  0.00  0.00    -0.241 OA
ENDBRANCH   3  22
TORSDOF 7
ENDMDL
MODEL 6
REMARK VINA RESULT:      -4.7      2.382      3.472
REMARK  7 active torsions:
REMARK  status: ('A' for Active; 'I' for Inactive)
REMARK    1  A    between atoms: C_2  and  C_3 
REMARK    2  A    between atoms: C_3  and  O_6 
REMARK    3  A    between atoms: C_3  and  C_4 
REMARK    4  A    between atoms: C_7  and  O_6 
REMARK    5  A    between atoms: C_9  and  C_10 
REMARK    6  A    between atoms: N_15  and  C_14 
REMARK    7  A    between atoms: N_20  and  C_19 
REMARK       I    between atoms: C_22  and  N_20 
ROOT
ATOM      1  C   LIG d   1      -0.890  80.008 115.834  0.00  0.00     0.161 C 
ATOM      2  C   LIG d   1      -1.478  80.866 114.889  0.00  0.00     0.016 C 
ATOM      3  C   LIG d   1      -2.319  80.415 113.846  0.00  0.00     0.038 C 
ATOM      4  C   LIG d   1      -2.755  79.084 113.768  0.00  0.00     0.028 C 
ATOM      5  C   LIG d   1      -1.786  78.091 114.401  0.00  0.00    -0.047 C 
ATOM      6  C   LIG d   1      -1.443  78.567 115.831  0.00  0.00     0.091 C 
ENDROOT
BRANCH   1   7
ATOM      7  O   LIG d   1      -0.999  80.583 117.151  0.00  0.00    -0.368 OA
BRANCH   7   8
ATOM      8  C   LIG d   1      -1.754  81.816 117.247  0.00  0.00     0.119 C 
BRANCH   8   9
ATOM      9  C   LIG d   1      -0.836  82.872 117.894  0.00  0.00     0.028 C 
ATOM     10  C   LIG d   1      -0.730  82.702 119.418  0.00  0.00     0.006 C 
ENDBRANCH   8   9
BRANCH   8  11
ATOM     11  C   LIG d   1      -2.941  81.670 118.204  0.00  0.00     0.028 C 
ATOM     12  C   LIG d   1      -4.178  81.058 117.529  0.00  0.00     0.006 C 
ENDBRANCH   8  11
ENDBRANCH   7   8
ENDBRANCH   1   7
BRANCH   6  13
ATOM     13  N   LIG d   1      -0.435  77.697 116.491  0.00  0.00    -0.311 N 
ATOM     14  C   LIG d   1      -0.753  76.703 117.318  0.00  0.00     0.210 C 
ATOM     15  C   LIG d   1       0.440  75.943 117.906  0.00  0.00     0.109 C 
ATOM     16  O   LIG d   1      -1.912  76.358 117.596  0.00  0.00    -0.276 OA
ATOM     17  H   LIG d   1       0.529  77.888 116.297  0.00  0.00     0.149 HD
ENDBRANCH   6  13
BRANCH   5  18
ATOM     18  N   LIG d   1      -2.426  76.763 114.371  0.00  0.00     0.381 N 
ATOM     19  H   LIG d   1      -2.756  76.525 115.286  0.00  0.00    -0.090 HD
ATOM     20  H   LIG d   1      -1.744  76.079 114.095  0.00  0.00    -0.090 HD
ATOM     21  H   LIG d   1      -3.186  76.764 113.727  0.00  0.00    -0.090 HD
ENDBRANCH   5  18
BRANCH   3  22
ATOM     22  C   LIG d   1      -2.702  81.293 112.844  0.00  0.00     0.382 C 
ATOM     23  O   LIG d   1      -1.858  82.069 112.334  0.00  0.00    -0.241 OA
ATOM     24  O   LIG d   1      -3.890  81.351 112.474  0.00  0.00    -0.241 OA
ENDBRANCH   3  22
TORSDOF 7
ENDMDL
MODEL 7
REMARK VINA RESULT:      -4.6      4.069      6.896
REMARK  7 active torsions:
REMARK  status: ('A' for Active; 'I' for Inactive)
REMARK    1  A    between atoms: C_2  and  C_3 
REMARK    2  A    between atoms: C_3  and  O_6 
REMARK    3  A    between atoms: C_3  and  C_4 
REMARK    4  A    between atoms: C_7  and  O_6 
REMARK    5  A    between atoms: C_9  and  C_10 
REMARK    6  A    between atoms: N_15  and  C_14 
REMARK    7  A    between atoms: N_20  and  C_19 
REMARK       I    between atoms: C_22  and  N_20 
ROOT
ATOM      1  C   LIG d   1      -4.874  78.003 116.927  0.00  0.00     0.161 C 
ATOM      2  C   LIG d   1      -6.235  78.274 117.142  0.00  0.00     0.016 C 
ATOM      3  C   LIG d   1      -6.704  79.444 117.782  0.00  0.00     0.038 C 
ATOM      4  C   LIG d   1      -5.844  80.501 118.118  0.00  0.00     0.028 C 
ATOM      5  C   LIG d   1      -4.409  80.054 118.378  0.00  0.00    -0.047 C 
ATOM      6  C   LIG d   1      -3.928  79.194 117.187  0.00  0.00     0.091 C 
ENDROOT
BRANCH   1   7
ATOM      7  O   LIG d   1      -4.682  77.492 115.593  0.00  0.00    -0.368 OA
BRANCH   7   8
ATOM      8  C   LIG d   1      -4.401  76.075 115.487  0.00  0.00     0.119 C 
BRANCH   8   9
ATOM      9  C   LIG d   1      -3.108  75.920 114.662  0.00  0.00     0.028 C 
ATOM     10  C   LIG d   1      -1.982  75.242 115.460  0.00  0.00     0.006 C 
ENDBRANCH   8   9
BRANCH   8  11
ATOM     11  C   LIG d   1      -5.485  75.351 114.682  0.00  0.00     0.028 C 
ATOM     12  C   LIG d   1      -5.448  75.699 113.186  0.00  0.00     0.006 C 
ENDBRANCH   8  11
ENDBRANCH   7   8
ENDBRANCH   1   7
BRANCH   6  13
ATOM     13  N   LIG d   1      -2.563  78.647 117.398  0.00  0.00    -0.311 N 
ATOM     14  C   LIG d   1      -1.558  78.833 116.544  0.00  0.00     0.210 C 
ATOM     15  C   LIG d   1      -0.238  78.166 116.943  0.00  0.00     0.109 C 
ATOM     16  O   LIG d   1      -1.626  79.515 115.510  0.00  0.00    -0.276 OA
ATOM     17  H   LIG d   1      -2.411  78.107 118.228  0.00  0.00     0.149 HD
ENDBRANCH   6  13
BRANCH   5  18
ATOM     18  N   LIG d   1      -3.595  81.268 118.580  0.00  0.00     0.381 N 
ATOM     19  H   LIG d   1      -4.152  82.081 118.410  0.00  0.00    -0.090 HD
ATOM     20  H   LIG d   1      -2.835  81.262 117.924  0.00  0.00    -0.090 HD
ATOM     21  H   LIG d   1      -3.240  81.288 119.511  0.00  0.00    -0.090 HD
ENDBRANCH   5  18
BRANCH   3  22
ATOM     22  C   LIG d   1      -8.043  79.549 118.129  0.00  0.00     0.382 C 
ATOM     23  O   LIG d   1      -8.720  80.526 117.727  0.00  0.00    -0.241 OA
ATOM     24  O   LIG d   1      -8.570  78.702 118.874  0.00  0.00    -0.241 OA
ENDBRANCH   3  22
TORSDOF 7
ENDMDL
MODEL 8
REMARK VINA RESULT:      -4.6      1.565      2.082
REMARK  7 active torsions:
REMARK  status: ('A' for Active; 'I' for Inactive)
REMARK    1  A    between atoms: C_2  and  C_3 
REMARK    2  A    between atoms: C_3  and  O_6 
REMARK    3  A    between atoms: C_3  and  C_4 
REMARK    4  A    between atoms: C_7  and  O_6 
REMARK    5  A    between atoms: C_9  and  C_10 
REMARK    6  A    between atoms: N_15  and  C_14 
REMARK    7  A    between atoms: N_20  and  C_19 
REMARK       I    between atoms: C_22  and  N_20 
ROOT
ATOM      1  C   LIG d   1      -2.808  80.485 115.730  0.00  0.00     0.161 C 
ATOM      2  C   LIG d   1      -2.401  81.819 115.563  0.00  0.00     0.016 C 
ATOM      3  C   LIG d   1      -1.635  82.267 114.462  0.00  0.00     0.038 C 
ATOM      4  C   LIG d   1      -1.350  81.434 113.370  0.00  0.00     0.028 C 
ATOM      5  C   LIG d   1      -1.307  79.953 113.731  0.00  0.00    -0.047 C 
ATOM      6  C   LIG d   1      -2.601  79.586 114.493  0.00  0.00     0.091 C 
ENDROOT
BRANCH   1   7
ATOM      7  O   LIG d   1      -4.185  80.443 116.155  0.00  0.00    -0.368 OA
BRANCH   7   8
ATOM      8  C   LIG d   1      -4.412  80.129 117.551  0.00  0.00     0.119 C 
BRANCH   8   9
ATOM      9  C   LIG d   1      -5.142  81.329 118.183  0.00  0.00     0.028 C 
ATOM     10  C   LIG d   1      -6.611  81.423 117.738  0.00  0.00     0.006 C 
ENDBRANCH   8   9
BRANCH   8  11
ATOM     11  C   LIG d   1      -3.091  80.008 118.317  0.00  0.00     0.028 C 
ATOM     12  C   LIG d   1      -2.894  81.132 119.346  0.00  0.00     0.006 C 
ENDBRANCH   8  11
ENDBRANCH   7   8
ENDBRANCH   1   7
BRANCH   6  13
ATOM     13  N   LIG d   1      -2.604  78.174 114.958  0.00  0.00    -0.311 N 
ATOM     14  C   LIG d   1      -3.155  77.176 114.269  0.00  0.00     0.210 C 
ATOM     15  C   LIG d   1      -3.064  75.801 114.938  0.00  0.00     0.109 C 
ATOM     16  O   LIG d   1      -3.682  77.294 113.153  0.00  0.00    -0.276 OA
ATOM     17  H   LIG d   1      -2.169  77.983 115.840  0.00  0.00     0.149 HD
ENDBRANCH   6  13
BRANCH   5  18
ATOM     18  N   LIG d   1      -1.138  79.193 112.479  0.00  0.00     0.381 N 
ATOM     19  H   LIG d   1      -0.449  78.479 112.606  0.00  0.00    -0.090 HD
ATOM     20  H   LIG d   1      -0.816  79.818 111.760  0.00  0.00    -0.090 HD
ATOM     21  H   LIG d   1      -2.005  78.784 112.208  0.00  0.00    -0.090 HD
ENDBRANCH   5  18
BRANCH   3  22
ATOM     22  C   LIG d   1      -1.111  83.550 114.466  0.00  0.00     0.382 C 
ATOM     23  O   LIG d   1      -1.004  84.187 113.390  0.00  0.00    -0.241 OA
ATOM     24  O   LIG d   1      -0.704  84.063 115.526  0.00  0.00    -0.241 OA
ENDBRANCH   3  22
TORSDOF 7
ENDMDL
MODEL 9
REMARK VINA RESULT:      -4.5      2.412      3.582
REMARK  7 active torsions:
REMARK  status: ('A' for Active; 'I' for Inactive)
REMARK    1  A    between atoms: C_2  and  C_3 
REMARK    2  A    between atoms: C_3  and  O_6 
REMARK    3  A    between atoms: C_3  and  C_4 
REMARK    4  A    between atoms: C_7  and  O_6 
REMARK    5  A    between atoms: C_9  and  C_10 
REMARK    6  A    between atoms: N_15  and  C_14 
REMARK    7  A    between atoms: N_20  and  C_19 
REMARK       I    between atoms: C_22  and  N_20 
ROOT
ATOM      1  C   LIG d   1      -2.147  79.586 116.145  0.00  0.00     0.161 C 
ATOM      2  C   LIG d   1      -2.536  80.449 115.107  0.00  0.00     0.016 C 
ATOM      3  C   LIG d   1      -2.524  80.079 113.742  0.00  0.00     0.038 C 
ATOM      4  C   LIG d   1      -2.264  78.763 113.333  0.00  0.00     0.028 C 
ATOM      5  C   LIG d   1      -1.377  77.990 114.304  0.00  0.00    -0.047 C 
ATOM      6  C   LIG d   1      -1.966  78.111 115.727  0.00  0.00     0.091 C 
ENDROOT
BRANCH   1   7
ATOM      7  O   LIG d   1      -3.080  79.686 117.239  0.00  0.00    -0.368 OA
BRANCH   7   8
ATOM      8  C   LIG d   1      -2.544  80.183 118.490  0.00  0.00     0.119 C 
BRANCH   8   9
ATOM      9  C   LIG d   1      -3.360  79.542 119.630  0.00  0.00     0.028 C 
ATOM     10  C   LIG d   1      -3.308  78.005 119.597  0.00  0.00     0.006 C 
ENDBRANCH   8   9
BRANCH   8  11
ATOM     11  C   LIG d   1      -2.765  81.692 118.632  0.00  0.00     0.028 C 
ATOM     12  C   LIG d   1      -1.500  82.510 118.328  0.00  0.00     0.006 C 
ENDBRANCH   8  11
ENDBRANCH   7   8
ENDBRANCH   1   7
BRANCH   6  13
ATOM     13  N   LIG d   1      -1.113  77.455 116.752  0.00  0.00    -0.311 N 
ATOM     14  C   LIG d   1      -1.213  76.166 117.072  0.00  0.00     0.210 C 
ATOM     15  C   LIG d   1      -0.252  75.696 118.169  0.00  0.00     0.109 C 
ATOM     16  O   LIG d   1      -1.984  75.360 116.530  0.00  0.00    -0.276 OA
ATOM     17  H   LIG d   1      -0.439  78.028 117.220  0.00  0.00     0.149 HD
ENDBRANCH   6  13
BRANCH   5  18
ATOM     18  N   LIG d   1      -1.300  76.597 113.826  0.00  0.00     0.381 N 
ATOM     19  H   LIG d   1      -1.217  76.585 112.829  0.00  0.00    -0.090 HD
ATOM     20  H   LIG d   1      -2.148  76.120 114.078  0.00  0.00    -0.090 HD
ATOM     21  H   LIG d   1      -0.518  76.138 114.237  0.00  0.00    -0.090 HD
ENDBRANCH   5  18
BRANCH   3  22
ATOM     22  C   LIG d   1      -2.735  81.042 112.767  0.00  0.00     0.382 C 
ATOM     23  O   LIG d   1      -3.905  81.373 112.456  0.00  0.00    -0.241 OA
ATOM     24  O   LIG d   1      -1.773  81.552 112.164  0.00  0.00    -0.241 OA
ENDBRANCH   3  22
TORSDOF 7
ENDMDL
