MODEL 1
REMARK VINA RESULT:      -5.2      0.000      0.000
REMARK  7 active torsions:
REMARK  status: ('A' for Active; 'I' for Inactive)
REMARK    1  A    between atoms: C_2  and  C_3 
REMARK    2  A    between atoms: C_3  and  O_6 
REMARK    3  A    between atoms: C_3  and  C_4 
REMARK    4  A    between atoms: C_7  and  O_6 
REMARK    5  A    between atoms: C_9  and  C_10 
REMARK    6  A    between atoms: N_15  and  C_14 
REMARK    7  A    between atoms: N_20  and  C_19 
REMARK       I    between atoms: C_22  and  N_20 
ROOT
ATOM      1  C   LIG d   1      -3.281  77.714 113.965  0.00  0.00     0.161 C 
ATOM      2  C   LIG d   1      -3.269  78.947 113.293  0.00  0.00     0.016 C 
ATOM      3  C   LIG d   1      -2.124  79.771 113.198  0.00  0.00     0.038 C 
ATOM      4  C   LIG d   1      -0.864  79.344 113.643  0.00  0.00     0.028 C 
ATOM      5  C   LIG d   1      -0.936  78.325 114.775  0.00  0.00    -0.047 C 
ATOM      6  C   LIG d   1      -1.888  77.180 114.361  0.00  0.00     0.091 C 
ENDROOT
BRANCH   1   7
ATOM      7  O   LIG d   1      -3.988  76.735 113.178  0.00  0.00    -0.368 OA
BRANCH   7   8
ATOM      8  C   LIG d   1      -5.292  76.341 113.672  0.00  0.00     0.119 C 
BRANCH   8   9
ATOM      9  C   LIG d   1      -5.134  74.969 114.354  0.00  0.00     0.028 C 
ATOM     10  C   LIG d   1      -5.556  74.996 115.833  0.00  0.00     0.006 C 
ENDBRANCH   8   9
BRANCH   8  11
ATOM     11  C   LIG d   1      -6.277  76.112 112.521  0.00  0.00     0.028 C 
ATOM     12  C   LIG d   1      -6.168  77.180 111.422  0.00  0.00     0.006 C 
ENDBRANCH   8  11
ENDBRANCH   7   8
ENDBRANCH   1   7
BRANCH   6  13
ATOM     13  N   LIG d   1      -2.081  76.182 115.446  0.00  0.00    -0.311 N 
ATOM     14  C   LIG d   1      -1.335  75.086 115.574  0.00  0.00     0.210 C 
ATOM     15  C   LIG d   1      -1.714  74.180 116.750  0.00  0.00     0.109 C 
ATOM     16  O   LIG d   1      -0.376  74.794 114.844  0.00  0.00    -0.276 OA
ATOM     17  H   LIG d   1      -2.817  76.357 116.101  0.00  0.00     0.149 HD
ENDBRANCH   6  13
BRANCH   5  18
ATOM     18  N   LIG d   1       0.439  77.863 115.047  0.00  0.00     0.381 N 
ATOM     19  H   LIG d   1       0.512  77.556 115.996  0.00  0.00    -0.090 HD
ATOM     20  H   LIG d   1       1.072  78.632 114.915  0.00  0.00    -0.090 HD
ATOM     21  H   LIG d   1       0.677  77.118 114.430  0.00  0.00    -0.090 HD
ENDBRANCH   5  18
BRANCH   3  22
ATOM     22  C   LIG d   1      -2.242  81.055 112.688  0.00  0.00     0.382 C 
ATOM     23  O   LIG d   1      -3.324  81.679 112.805  0.00  0.00    -0.241 OA
ATOM     24  O   LIG d   1      -1.294  81.580 112.073  0.00  0.00    -0.241 OA
ENDBRANCH   3  22
TORSDOF 7
ENDMDL
MODEL 2
REMARK VINA RESULT:      -5.2      1.974      2.584
REMARK  7 active torsions:
REMARK  status: ('A' for Active; 'I' for Inactive)
REMARK    1  A    between atoms: C_2  and  C_3 
REMARK    2  A    between atoms: C_3  and  O_6 
REMARK    3  A    between atoms: C_3  and  C_4 
REMARK    4  A    between atoms: C_7  and  O_6 
REMARK    5  A    between atoms: C_9  and  C_10 
REMARK    6  A    between atoms: N_15  and  C_14 
REMARK    7  A    between atoms: N_20  and  C_19 
REMARK       I    between atoms: C_22  and  N_20 
ROOT
ATOM      1  C   LIG d   1      -3.048  78.347 115.316  0.00  0.00     0.161 C 
ATOM      2  C   LIG d   1      -3.143  79.523 114.553  0.00  0.00     0.016 C 
ATOM      3  C   LIG d   1      -2.273  79.827 113.480  0.00  0.00     0.038 C 
ATOM      4  C   LIG d   1      -1.339  78.899 112.997  0.00  0.00     0.028 C 
ATOM      5  C   LIG d   1      -0.869  77.906 114.055  0.00  0.00    -0.047 C 
ATOM      6  C   LIG d   1      -2.106  77.273 114.733  0.00  0.00     0.091 C 
ENDROOT
BRANCH   1   7
ATOM      7  O   LIG d   1      -4.362  77.797 115.531  0.00  0.00    -0.368 OA
BRANCH   7   8
ATOM      8  C   LIG d   1      -4.829  77.779 116.903  0.00  0.00     0.119 C 
BRANCH   8   9
ATOM      9  C   LIG d   1      -5.522  76.424 117.139  0.00  0.00     0.028 C 
ATOM     10  C   LIG d   1      -5.924  75.733 115.824  0.00  0.00     0.006 C 
ENDBRANCH   8   9
BRANCH   8  11
ATOM     11  C   LIG d   1      -5.913  78.835 117.136  0.00  0.00     0.028 C 
ATOM     12  C   LIG d   1      -5.345  80.172 117.637  0.00  0.00     0.006 C 
ENDBRANCH   8  11
ENDBRANCH   7   8
ENDBRANCH   1   7
BRANCH   6  13
ATOM     13  N   LIG d   1      -1.736  76.351 115.839  0.00  0.00    -0.311 N 
ATOM     14  C   LIG d   1      -2.098  75.070 115.877  0.00  0.00     0.210 C 
ATOM     15  C   LIG d   1      -1.628  74.302 117.117  0.00  0.00     0.109 C 
ATOM     16  O   LIG d   1      -2.735  74.488 114.986  0.00  0.00    -0.276 OA
ATOM     17  H   LIG d   1      -1.193  76.733 116.588  0.00  0.00     0.149 HD
ENDBRANCH   6  13
BRANCH   5  18
ATOM     18  N   LIG d   1      -0.007  76.915 113.384  0.00  0.00     0.381 N 
ATOM     19  H   LIG d   1       0.342  77.295 112.527  0.00  0.00    -0.090 HD
ATOM     20  H   LIG d   1      -0.554  76.100 113.169  0.00  0.00    -0.090 HD
ATOM     21  H   LIG d   1       0.753  76.666 113.979  0.00  0.00    -0.090 HD
ENDBRANCH   5  18
BRANCH   3  22
ATOM     22  C   LIG d   1      -2.308  81.088 112.904  0.00  0.00     0.382 C 
ATOM     23  O   LIG d   1      -1.264  81.581 112.412  0.00  0.00    -0.241 OA
ATOM     24  O   LIG d   1      -3.359  81.757 112.909  0.00  0.00    -0.241 OA
ENDBRANCH   3  22
TORSDOF 7
ENDMDL
MODEL 3
REMARK VINA RESULT:      -5.0      3.968      6.074
REMARK  7 active torsions:
REMARK  status: ('A' for Active; 'I' for Inactive)
REMARK    1  A    between atoms: C_2  and  C_3 
REMARK    2  A    between atoms: C_3  and  O_6 
REMARK    3  A    between atoms: C_3  and  C_4 
REMARK    4  A    between atoms: C_7  and  O_6 
REMARK    5  A    between atoms: C_9  and  C_10 
REMARK    6  A    between atoms: N_15  and  C_14 
REMARK    7  A    between atoms: N_20  and  C_19 
REMARK       I    between atoms: C_22  and  N_20 
ROOT
ATOM      1  C   LIG d   1      -5.437  77.603 116.464  0.00  0.00     0.161 C 
ATOM      2  C   LIG d   1      -6.747  77.183 116.747  0.00  0.00     0.016 C 
ATOM      3  C   LIG d   1      -7.609  77.865 117.636  0.00  0.00     0.038 C 
ATOM      4  C   LIG d   1      -7.268  79.108 118.191  0.00  0.00     0.028 C 
ATOM      5  C   LIG d   1      -5.764  79.316 118.331  0.00  0.00    -0.047 C 
ATOM      6  C   LIG d   1      -5.087  79.016 116.974  0.00  0.00     0.091 C 
ENDROOT
BRANCH   1   7
ATOM      7  O   LIG d   1      -5.187  77.505 115.048  0.00  0.00    -0.368 OA
BRANCH   7   8
ATOM      8  C   LIG d   1      -4.334  76.414 114.625  0.00  0.00     0.119 C 
BRANCH   8   9
ATOM      9  C   LIG d   1      -5.233  75.354 113.960  0.00  0.00     0.028 C 
ATOM     10  C   LIG d   1      -5.552  74.180 114.902  0.00  0.00     0.006 C 
ENDBRANCH   8   9
BRANCH   8  11
ATOM     11  C   LIG d   1      -3.695  75.708 115.825  0.00  0.00     0.028 C 
ATOM     12  C   LIG d   1      -2.173  75.913 115.896  0.00  0.00     0.006 C 
ENDBRANCH   8  11
ENDBRANCH   7   8
ENDBRANCH   1   7
BRANCH   6  13
ATOM     13  N   LIG d   1      -3.606  79.115 117.046  0.00  0.00    -0.311 N 
ATOM     14  C   LIG d   1      -2.860  79.662 116.087  0.00  0.00     0.210 C 
ATOM     15  C   LIG d   1      -1.351  79.644 116.351  0.00  0.00     0.109 C 
ATOM     16  O   LIG d   1      -3.308  80.189 115.057  0.00  0.00    -0.276 OA
ATOM     17  H   LIG d   1      -3.162  78.740 117.861  0.00  0.00     0.149 HD
ENDBRANCH   6  13
BRANCH   5  18
ATOM     18  N   LIG d   1      -5.547  80.701 118.792  0.00  0.00     0.381 N 
ATOM     19  H   LIG d   1      -6.428  81.139 118.973  0.00  0.00    -0.090 HD
ATOM     20  H   LIG d   1      -5.082  81.216 118.066  0.00  0.00    -0.090 HD
ATOM     21  H   LIG d   1      -4.991  80.702 119.619  0.00  0.00    -0.090 HD
ENDBRANCH   5  18
BRANCH   3  22
ATOM     22  C   LIG d   1      -8.811  77.284 118.009  0.00  0.00     0.382 C 
ATOM     23  O   LIG d   1      -8.956  76.040 117.935  0.00  0.00    -0.241 OA
ATOM     24  O   LIG d   1      -9.767  77.993 118.377  0.00  0.00    -0.241 OA
ENDBRANCH   3  22
TORSDOF 7
ENDMDL
MODEL 4
REMARK VINA RESULT:      -4.9      2.609      3.667
REMARK  7 active torsions:
REMARK  status: ('A' for Active; 'I' for Inactive)
REMARK    1  A    between atoms: C_2  and  C_3 
REMARK    2  A    between atoms: C_3  and  O_6 
REMARK    3  A    between atoms: C_3  and  C_4 
REMARK    4  A    between atoms: C_7  and  O_6 
REMARK    5  A    between atoms: C_9  and  C_10 
REMARK    6  A    between atoms: N_15  and  C_14 
REMARK    7  A    between atoms: N_20  and  C_19 
REMARK       I    between atoms: C_22  and  N_20 
ROOT
ATOM      1  C   LIG d   1      -3.189  77.134 114.137  0.00  0.00     0.161 C 
ATOM      2  C   LIG d   1      -3.843  77.592 115.293  0.00  0.00     0.016 C 
ATOM      3  C   LIG d   1      -3.579  78.845 115.892  0.00  0.00     0.038 C 
ATOM      4  C   LIG d   1      -2.746  79.796 115.285  0.00  0.00     0.028 C 
ATOM      5  C   LIG d   1      -1.679  79.180 114.385  0.00  0.00    -0.047 C 
ATOM      6  C   LIG d   1      -2.358  78.203 113.398  0.00  0.00     0.091 C 
ENDROOT
BRANCH   1   7
ATOM      7  O   LIG d   1      -4.145  76.534 113.241  0.00  0.00    -0.368 OA
BRANCH   7   8
ATOM      8  C   LIG d   1      -5.439  76.215 113.809  0.00  0.00     0.119 C 
BRANCH   8   9
ATOM      9  C   LIG d   1      -5.544  74.680 113.888  0.00  0.00     0.028 C 
ATOM     10  C   LIG d   1      -5.767  74.181 115.326  0.00  0.00     0.006 C 
ENDBRANCH   8   9
BRANCH   8  11
ATOM     11  C   LIG d   1      -6.577  76.652 112.882  0.00  0.00     0.028 C 
ATOM     12  C   LIG d   1      -6.107  76.911 111.442  0.00  0.00     0.006 C 
ENDBRANCH   8  11
ENDBRANCH   7   8
ENDBRANCH   1   7
BRANCH   6  13
ATOM     13  N   LIG d   1      -1.376  77.494 112.537  0.00  0.00    -0.311 N 
ATOM     14  C   LIG d   1      -0.992  77.940 111.343  0.00  0.00     0.210 C 
ATOM     15  C   LIG d   1       0.014  77.046 110.612  0.00  0.00     0.109 C 
ATOM     16  O   LIG d   1      -1.364  79.008 110.833  0.00  0.00    -0.276 OA
ATOM     17  H   LIG d   1      -1.000  76.635 112.887  0.00  0.00     0.149 HD
ENDBRANCH   6  13
BRANCH   5  18
ATOM     18  N   LIG d   1      -0.973  80.286 113.711  0.00  0.00     0.381 N 
ATOM     19  H   LIG d   1      -1.470  81.142 113.854  0.00  0.00    -0.090 HD
ATOM     20  H   LIG d   1      -0.944  80.099 112.724  0.00  0.00    -0.090 HD
ATOM     21  H   LIG d   1      -0.047  80.367 114.068  0.00  0.00    -0.090 HD
ENDBRANCH   5  18
BRANCH   3  22
ATOM     22  C   LIG d   1      -4.122  79.142 117.133  0.00  0.00     0.382 C 
ATOM     23  O   LIG d   1      -3.488  78.860 118.178  0.00  0.00    -0.241 OA
ATOM     24  O   LIG d   1      -5.257  79.647 117.222  0.00  0.00    -0.241 OA
ENDBRANCH   3  22
TORSDOF 7
ENDMDL
MODEL 5
REMARK VINA RESULT:      -4.7      2.263      5.066
REMARK  7 active torsions:
REMARK  status: ('A' for Active; 'I' for Inactive)
REMARK    1  A    between atoms: C_2  and  C_3 
REMARK    2  A    between atoms: C_3  and  O_6 
REMARK    3  A    between atoms: C_3  and  C_4 
REMARK    4  A    between atoms: C_7  and  O_6 
REMARK    5  A    between atoms: C_9  and  C_10 
REMARK    6  A    between atoms: N_15  and  C_14 
REMARK    7  A    between atoms: N_20  and  C_19 
REMARK       I    between atoms: C_22  and  N_20 
ROOT
ATOM      1  C   LIG d   1      -0.550  77.340 114.355  0.00  0.00     0.161 C 
ATOM      2  C   LIG d   1      -0.735  76.521 115.481  0.00  0.00     0.016 C 
ATOM      3  C   LIG d   1      -0.735  77.010 116.808  0.00  0.00     0.038 C 
ATOM      4  C   LIG d   1      -0.700  78.383 117.092  0.00  0.00     0.028 C 
ATOM      5  C   LIG d   1      -0.006  79.207 116.013  0.00  0.00    -0.047 C 
ATOM      6  C   LIG d   1      -0.621  78.855 114.639  0.00  0.00     0.091 C 
ENDROOT
BRANCH   1   7
ATOM      7  O   LIG d   1      -1.493  76.978 113.327  0.00  0.00    -0.368 OA
BRANCH   7   8
ATOM      8  C   LIG d   1      -2.754  77.691 113.339  0.00  0.00     0.119 C 
BRANCH   8   9
ATOM      9  C   LIG d   1      -3.832  76.717 113.851  0.00  0.00     0.028 C 
ATOM     10  C   LIG d   1      -4.328  77.078 115.261  0.00  0.00     0.006 C 
ENDBRANCH   8   9
BRANCH   8  11
ATOM     11  C   LIG d   1      -3.192  78.072 111.922  0.00  0.00     0.028 C 
ATOM     12  C   LIG d   1      -2.072  77.894 110.884  0.00  0.00     0.006 C 
ENDBRANCH   8  11
ENDBRANCH   7   8
ENDBRANCH   1   7
BRANCH   6  13
ATOM     13  N   LIG d   1       0.059  79.555 113.518  0.00  0.00    -0.311 N 
ATOM     14  C   LIG d   1      -0.495  80.556 112.835  0.00  0.00     0.210 C 
ATOM     15  C   LIG d   1       0.369  81.123 111.705  0.00  0.00     0.109 C 
ATOM     16  O   LIG d   1      -1.607  81.048 113.080  0.00  0.00    -0.276 OA
ATOM     17  H   LIG d   1       0.977  79.240 113.273  0.00  0.00     0.149 HD
ENDBRANCH   6  13
BRANCH   5  18
ATOM     18  N   LIG d   1      -0.162  80.630 116.369  0.00  0.00     0.381 N 
ATOM     19  H   LIG d   1       0.568  80.905 116.995  0.00  0.00    -0.090 HD
ATOM     20  H   LIG d   1      -1.042  80.753 116.838  0.00  0.00    -0.090 HD
ATOM     21  H   LIG d   1      -0.134  81.192 115.547  0.00  0.00    -0.090 HD
ENDBRANCH   5  18
BRANCH   3  22
ATOM     22  C   LIG d   1      -0.731  76.117 117.869  0.00  0.00     0.382 C 
ATOM     23  O   LIG d   1      -1.793  75.541 118.208  0.00  0.00    -0.241 OA
ATOM     24  O   LIG d   1       0.311  75.915 118.521  0.00  0.00    -0.241 OA
ENDBRANCH   3  22
TORSDOF 7
ENDMDL
MODEL 6
REMARK VINA RESULT:      -4.6      3.877      6.163
REMARK  7 active torsions:
REMARK  status: ('A' for Active; 'I' for Inactive)
REMARK    1  A    between atoms: C_2  and  C_3 
REMARK    2  A    between atoms: C_3  and  O_6 
REMARK    3  A    between atoms: C_3  and  C_4 
REMARK    4  A    between atoms: C_7  and  O_6 
REMARK    5  A    between atoms: C_9  and  C_10 
REMARK    6  A    between atoms: N_15  and  C_14 
REMARK    7  A    between atoms: N_20  and  C_19 
REMARK       I    between atoms: C_22  and  N_20 
ROOT
ATOM      1  C   LIG d   1      -5.352  76.842 116.984  0.00  0.00     0.161 C 
ATOM      2  C   LIG d   1      -6.609  76.231 117.126  0.00  0.00     0.016 C 
ATOM      3  C   LIG d   1      -7.771  76.927 117.529  0.00  0.00     0.038 C 
ATOM      4  C   LIG d   1      -7.788  78.323 117.673  0.00  0.00     0.028 C 
ATOM      5  C   LIG d   1      -6.427  78.910 118.031  0.00  0.00    -0.047 C 
ATOM      6  C   LIG d   1      -5.374  78.384 117.029  0.00  0.00     0.091 C 
ENDROOT
BRANCH   1   7
ATOM      7  O   LIG d   1      -4.720  76.385 115.772  0.00  0.00    -0.368 OA
BRANCH   7   8
ATOM      8  C   LIG d   1      -5.076  75.051 115.332  0.00  0.00     0.119 C 
BRANCH   8   9
ATOM      9  C   LIG d   1      -3.808  74.180 115.422  0.00  0.00     0.028 C 
ATOM     10  C   LIG d   1      -2.550  75.006 115.736  0.00  0.00     0.006 C 
ENDBRANCH   8   9
BRANCH   8  11
ATOM     11  C   LIG d   1      -5.471  75.039 113.852  0.00  0.00     0.028 C 
ATOM     12  C   LIG d   1      -6.207  76.318 113.422  0.00  0.00     0.006 C 
ENDBRANCH   8  11
ENDBRANCH   7   8
ENDBRANCH   1   7
BRANCH   6  13
ATOM     13  N   LIG d   1      -3.999  78.844 117.358  0.00  0.00    -0.311 N 
ATOM     14  C   LIG d   1      -3.195  79.439 116.478  0.00  0.00     0.210 C 
ATOM     15  C   LIG d   1      -1.812  79.816 117.018  0.00  0.00     0.109 C 
ATOM     16  O   LIG d   1      -3.508  79.720 115.311  0.00  0.00    -0.276 OA
ATOM     17  H   LIG d   1      -3.676  78.684 118.292  0.00  0.00     0.149 HD
ENDBRANCH   6  13
BRANCH   5  18
ATOM     18  N   LIG d   1      -6.558  80.380 118.014  0.00  0.00     0.381 N 
ATOM     19  H   LIG d   1      -6.927  80.677 117.133  0.00  0.00    -0.090 HD
ATOM     20  H   LIG d   1      -5.647  80.788 118.127  0.00  0.00    -0.090 HD
ATOM     21  H   LIG d   1      -7.158  80.677 118.751  0.00  0.00    -0.090 HD
ENDBRANCH   5  18
BRANCH   3  22
ATOM     22  C   LIG d   1      -8.925  76.220 117.832  0.00  0.00     0.382 C 
ATOM     23  O   LIG d   1     -10.042  76.791 117.780  0.00  0.00    -0.241 OA
ATOM     24  O   LIG d   1      -8.860  75.032 118.199  0.00  0.00    -0.241 OA
ENDBRANCH   3  22
TORSDOF 7
ENDMDL
MODEL 7
REMARK VINA RESULT:      -4.5      2.486      4.701
REMARK  7 active torsions:
REMARK  status: ('A' for Active; 'I' for Inactive)
REMARK    1  A    between atoms: C_2  and  C_3 
REMARK    2  A    between atoms: C_3  and  O_6 
REMARK    3  A    between atoms: C_3  and  C_4 
REMARK    4  A    between atoms: C_7  and  O_6 
REMARK    5  A    between atoms: C_9  and  C_10 
REMARK    6  A    between atoms: N_15  and  C_14 
REMARK    7  A    between atoms: N_20  and  C_19 
REMARK       I    between atoms: C_22  and  N_20 
ROOT
ATOM      1  C   LIG d   1      -1.211  76.611 114.738  0.00  0.00     0.161 C 
ATOM      2  C   LIG d   1      -1.096  76.388 116.120  0.00  0.00     0.016 C 
ATOM      3  C   LIG d   1      -0.624  77.363 117.029  0.00  0.00     0.038 C 
ATOM      4  C   LIG d   1      -0.376  78.686 116.634  0.00  0.00     0.028 C 
ATOM      5  C   LIG d   1       0.004  78.818 115.163  0.00  0.00    -0.047 C 
ATOM      6  C   LIG d   1      -1.051  78.083 114.304  0.00  0.00     0.091 C 
ENDROOT
BRANCH   1   7
ATOM      7  O   LIG d   1      -2.463  76.081 114.260  0.00  0.00    -0.368 OA
BRANCH   7   8
ATOM      8  C   LIG d   1      -3.495  75.885 115.258  0.00  0.00     0.119 C 
BRANCH   8   9
ATOM      9  C   LIG d   1      -4.220  74.567 114.922  0.00  0.00     0.028 C 
ATOM     10  C   LIG d   1      -5.501  74.795 114.102  0.00  0.00     0.006 C 
ENDBRANCH   8   9
BRANCH   8  11
ATOM     11  C   LIG d   1      -4.569  76.973 115.172  0.00  0.00     0.028 C 
ATOM     12  C   LIG d   1      -4.440  78.027 116.282  0.00  0.00     0.006 C 
ENDBRANCH   8  11
ENDBRANCH   7   8
ENDBRANCH   1   7
BRANCH   6  13
ATOM     13  N   LIG d   1      -0.709  78.091 112.858  0.00  0.00    -0.311 N 
ATOM     14  C   LIG d   1      -1.490  78.631 111.923  0.00  0.00     0.210 C 
ATOM     15  C   LIG d   1      -0.960  78.514 110.491  0.00  0.00     0.109 C 
ATOM     16  O   LIG d   1      -2.556  79.224 112.148  0.00  0.00    -0.276 OA
ATOM     17  H   LIG d   1       0.153  77.658 112.590  0.00  0.00     0.149 HD
ENDBRANCH   6  13
BRANCH   5  18
ATOM     18  N   LIG d   1       0.099  80.258 114.855  0.00  0.00     0.381 N 
ATOM     19  H   LIG d   1      -0.403  80.785 115.541  0.00  0.00    -0.090 HD
ATOM     20  H   LIG d   1      -0.322  80.426 113.958  0.00  0.00    -0.090 HD
ATOM     21  H   LIG d   1       1.054  80.541 114.840  0.00  0.00    -0.090 HD
ENDBRANCH   5  18
BRANCH   3  22
ATOM     22  C   LIG d   1      -0.358  77.007 118.342  0.00  0.00     0.382 C 
ATOM     23  O   LIG d   1      -0.151  77.895 119.203  0.00  0.00    -0.241 OA
ATOM     24  O   LIG d   1      -0.278  75.807 118.667  0.00  0.00    -0.241 OA
ENDBRANCH   3  22
TORSDOF 7
ENDMDL
MODEL 8
REMARK VINA RESULT:      -4.4      2.806      5.980
REMARK  7 active torsions:
REMARK  status: ('A' for Active; 'I' for Inactive)
REMARK    1  A    between atoms: C_2  and  C_3 
REMARK    2  A    between atoms: C_3  and  O_6 
REMARK    3  A    between atoms: C_3  and  C_4 
REMARK    4  A    between atoms: C_7  and  O_6 
REMARK    5  A    between atoms: C_9  and  C_10 
REMARK    6  A    between atoms: N_15  and  C_14 
REMARK    7  A    between atoms: N_20  and  C_19 
REMARK       I    between atoms: C_22  and  N_20 
ROOT
ATOM      1  C   LIG d   1      -1.488  80.105 113.780  0.00  0.00     0.161 C 
ATOM      2  C   LIG d   1      -2.463  79.095 113.837  0.00  0.00     0.016 C 
ATOM      3  C   LIG d   1      -2.573  78.065 112.875  0.00  0.00     0.038 C 
ATOM      4  C   LIG d   1      -1.613  77.886 111.867  0.00  0.00     0.028 C 
ATOM      5  C   LIG d   1      -0.901  79.175 111.474  0.00  0.00    -0.047 C 
ATOM      6  C   LIG d   1      -0.365  79.863 112.750  0.00  0.00     0.091 C 
ENDROOT
BRANCH   1   7
ATOM      7  O   LIG d   1      -0.929  80.318 115.091  0.00  0.00    -0.368 OA
BRANCH   7   8
ATOM      8  C   LIG d   1      -1.156  79.264 116.060  0.00  0.00     0.119 C 
BRANCH   8   9
ATOM      9  C   LIG d   1      -1.605  79.932 117.374  0.00  0.00     0.028 C 
ATOM     10  C   LIG d   1      -0.573  80.943 117.901  0.00  0.00     0.006 C 
ENDBRANCH   8   9
BRANCH   8  11
ATOM     11  C   LIG d   1       0.145  78.532 116.401  0.00  0.00     0.028 C 
ATOM     12  C   LIG d   1       0.404  77.321 115.492  0.00  0.00     0.006 C 
ENDBRANCH   8  11
ENDBRANCH   7   8
ENDBRANCH   1   7
BRANCH   6  13
ATOM     13  N   LIG d   1       0.273  81.174 112.463  0.00  0.00    -0.311 N 
ATOM     14  C   LIG d   1      -0.414  82.266 112.132  0.00  0.00     0.210 C 
ATOM     15  C   LIG d   1       0.440  83.508 111.858  0.00  0.00     0.109 C 
ATOM     16  O   LIG d   1      -1.651  82.333 112.072  0.00  0.00    -0.276 OA
ATOM     17  H   LIG d   1       1.271  81.218 112.520  0.00  0.00     0.149 HD
ENDBRANCH   6  13
BRANCH   5  18
ATOM     18  N   LIG d   1       0.165  78.822 110.517  0.00  0.00     0.381 N 
ATOM     19  H   LIG d   1      -0.187  78.172 109.843  0.00  0.00    -0.090 HD
ATOM     20  H   LIG d   1       0.917  78.382 111.016  0.00  0.00    -0.090 HD
ATOM     21  H   LIG d   1       0.496  79.641 110.057  0.00  0.00    -0.090 HD
ENDBRANCH   5  18
BRANCH   3  22
ATOM     22  C   LIG d   1      -3.674  77.222 112.892  0.00  0.00     0.382 C 
ATOM     23  O   LIG d   1      -3.684  76.219 113.645  0.00  0.00    -0.241 OA
ATOM     24  O   LIG d   1      -4.639  77.429 112.133  0.00  0.00    -0.241 OA
ENDBRANCH   3  22
TORSDOF 7
ENDMDL
MODEL 9
REMARK VINA RESULT:      -4.4      2.346      3.137
REMARK  7 active torsions:
REMARK  status: ('A' for Active; 'I' for Inactive)
REMARK    1  A    between atoms: C_2  and  C_3 
REMARK    2  A    between atoms: C_3  and  O_6 
REMARK    3  A    between atoms: C_3  and  C_4 
REMARK    4  A    between atoms: C_7  and  O_6 
REMARK    5  A    between atoms: C_9  and  C_10 
REMARK    6  A    between atoms: N_15  and  C_14 
REMARK    7  A    between atoms: N_20  and  C_19 
REMARK       I    between atoms: C_22  and  N_20 
ROOT
ATOM      1  C   LIG d   1      -3.204  78.107 114.287  0.00  0.00     0.161 C 
ATOM      2  C   LIG d   1      -2.825  77.939 112.945  0.00  0.00     0.016 C 
ATOM      3  C   LIG d   1      -1.504  77.639 112.542  0.00  0.00     0.038 C 
ATOM      4  C   LIG d   1      -0.496  77.334 113.469  0.00  0.00     0.028 C 
ATOM      5  C   LIG d   1      -0.711  77.985 114.832  0.00  0.00    -0.047 C 
ATOM      6  C   LIG d   1      -2.143  77.669 115.319  0.00  0.00     0.091 C 
ENDROOT
BRANCH   1   7
ATOM      7  O   LIG d   1      -4.451  77.426 114.532  0.00  0.00    -0.368 OA
BRANCH   7   8
ATOM      8  C   LIG d   1      -4.385  75.980 114.597  0.00  0.00     0.119 C 
BRANCH   8   9
ATOM      9  C   LIG d   1      -5.558  75.425 113.766  0.00  0.00     0.028 C 
ATOM     10  C   LIG d   1      -6.300  76.526 112.989  0.00  0.00     0.006 C 
ENDBRANCH   8   9
BRANCH   8  11
ATOM     11  C   LIG d   1      -4.624  75.475 116.023  0.00  0.00     0.028 C 
ATOM     12  C   LIG d   1      -5.664  76.311 116.785  0.00  0.00     0.006 C 
ENDBRANCH   8  11
ENDBRANCH   7   8
ENDBRANCH   1   7
BRANCH   6  13
ATOM     13  N   LIG d   1      -2.465  78.338 116.606  0.00  0.00    -0.311 N 
ATOM     14  C   LIG d   1      -2.311  77.755 117.794  0.00  0.00     0.210 C 
ATOM     15  C   LIG d   1      -2.721  78.615 118.994  0.00  0.00     0.109 C 
ATOM     16  O   LIG d   1      -1.845  76.619 117.969  0.00  0.00    -0.276 OA
ATOM     17  H   LIG d   1      -2.819  79.273 116.558  0.00  0.00     0.149 HD
ENDBRANCH   6  13
BRANCH   5  18
ATOM     18  N   LIG d   1       0.335  77.474 115.739  0.00  0.00     0.381 N 
ATOM     19  H   LIG d   1      -0.080  76.891 116.438  0.00  0.00    -0.090 HD
ATOM     20  H   LIG d   1       0.775  78.252 116.197  0.00  0.00    -0.090 HD
ATOM     21  H   LIG d   1       1.011  76.957 115.222  0.00  0.00    -0.090 HD
ENDBRANCH   5  18
BRANCH   3  22
ATOM     22  C   LIG d   1      -1.170  77.680 111.196  0.00  0.00     0.382 C 
ATOM     23  O   LIG d   1      -0.617  76.691 110.657  0.00  0.00    -0.241 OA
ATOM     24  O   LIG d   1      -1.374  78.709 110.526  0.00  0.00    -0.241 OA
ENDBRANCH   3  22
TORSDOF 7
ENDMDL
