MODEL 1
REMARK VINA RESULT:      -5.5      0.000      0.000
REMARK  7 active torsions:
REMARK  status: ('A' for Active; 'I' for Inactive)
REMARK    1  A    between atoms: C_2  and  C_3 
REMARK    2  A    between atoms: C_3  and  O_6 
REMARK    3  A    between atoms: C_3  and  C_4 
REMARK    4  A    between atoms: C_7  and  O_6 
REMARK    5  A    between atoms: C_9  and  C_10 
REMARK    6  A    between atoms: N_15  and  C_14 
REMARK    7  A    between atoms: N_20  and  C_19 
REMARK       I    between atoms: C_22  and  N_20 
ROOT
ATOM      1  C   LIG d   1      -2.247  75.804 115.046  0.00  0.00     0.161 C 
ATOM      2  C   LIG d   1      -2.082  75.403 116.382  0.00  0.00     0.016 C 
ATOM      3  C   LIG d   1      -1.383  76.168 117.344  0.00  0.00     0.038 C 
ATOM      4  C   LIG d   1      -0.929  77.467 117.070  0.00  0.00     0.028 C 
ATOM      5  C   LIG d   1      -0.631  77.706 115.594  0.00  0.00    -0.047 C 
ATOM      6  C   LIG d   1      -1.856  77.268 114.758  0.00  0.00     0.091 C 
ENDROOT
BRANCH   1   7
ATOM      7  O   LIG d   1      -3.604  75.557 114.626  0.00  0.00    -0.368 OA
BRANCH   7   8
ATOM      8  C   LIG d   1      -4.585  75.425 115.685  0.00  0.00     0.119 C 
BRANCH   8   9
ATOM      9  C   LIG d   1      -5.551  74.294 115.283  0.00  0.00     0.028 C 
ATOM     10  C   LIG d   1      -6.751  74.180 116.238  0.00  0.00     0.006 C 
ENDBRANCH   8   9
BRANCH   8  11
ATOM     11  C   LIG d   1      -5.455  76.681 115.797  0.00  0.00     0.028 C 
ATOM     12  C   LIG d   1      -5.113  77.535 117.028  0.00  0.00     0.006 C 
ENDBRANCH   8  11
ENDBRANCH   7   8
ENDBRANCH   1   7
BRANCH   6  13
ATOM     13  N   LIG d   1      -1.617  77.390 113.296  0.00  0.00    -0.311 N 
ATOM     14  C   LIG d   1      -2.369  78.137 112.490  0.00  0.00     0.210 C 
ATOM     15  C   LIG d   1      -1.962  78.107 111.013  0.00  0.00     0.109 C 
ATOM     16  O   LIG d   1      -3.316  78.847 112.862  0.00  0.00    -0.276 OA
ATOM     17  H   LIG d   1      -0.849  76.872 112.914  0.00  0.00     0.149 HD
ENDBRANCH   6  13
BRANCH   5  18
ATOM     18  N   LIG d   1      -0.301  79.135 115.431  0.00  0.00     0.381 N 
ATOM     19  H   LIG d   1      -0.708  79.663 116.177  0.00  0.00    -0.090 HD
ATOM     20  H   LIG d   1      -0.690  79.462 114.564  0.00  0.00    -0.090 HD
ATOM     21  H   LIG d   1       0.688  79.258 115.428  0.00  0.00    -0.090 HD
ENDBRANCH   5  18
BRANCH   3  22
ATOM     22  C   LIG d   1      -1.097  75.618 118.584  0.00  0.00     0.382 C 
ATOM     23  O   LIG d   1      -1.356  74.412 118.810  0.00  0.00    -0.241 OA
ATOM     24  O   LIG d   1      -0.623  76.325 119.494  0.00  0.00    -0.241 OA
ENDBRANCH   3  22
TORSDOF 7
ENDMDL
MODEL 2
REMARK VINA RESULT:      -5.4      1.606      4.911
REMARK  7 active torsions:
REMARK  status: ('A' for Active; 'I' for Inactive)
REMARK    1  A    between atoms: C_2  and  C_3 
REMARK    2  A    between atoms: C_3  and  O_6 
REMARK    3  A    between atoms: C_3  and  C_4 
REMARK    4  A    between atoms: C_7  and  O_6 
REMARK    5  A    between atoms: C_9  and  C_10 
REMARK    6  A    between atoms: N_15  and  C_14 
REMARK    7  A    between atoms: N_20  and  C_19 
REMARK       I    between atoms: C_22  and  N_20 
ROOT
ATOM      1  C   LIG d   1      -3.440  76.439 115.181  0.00  0.00     0.161 C 
ATOM      2  C   LIG d   1      -3.628  77.113 113.963  0.00  0.00     0.016 C 
ATOM      3  C   LIG d   1      -2.566  77.639 113.193  0.00  0.00     0.038 C 
ATOM      4  C   LIG d   1      -1.223  77.394 113.516  0.00  0.00     0.028 C 
ATOM      5  C   LIG d   1      -0.993  77.152 115.003  0.00  0.00    -0.047 C 
ATOM      6  C   LIG d   1      -1.976  76.065 115.494  0.00  0.00     0.091 C 
ENDROOT
BRANCH   1   7
ATOM      7  O   LIG d   1      -4.277  75.267 115.226  0.00  0.00    -0.368 OA
BRANCH   7   8
ATOM      8  C   LIG d   1      -5.678  75.495 115.520  0.00  0.00     0.119 C 
BRANCH   8   9
ATOM      9  C   LIG d   1      -5.749  76.344 116.803  0.00  0.00     0.028 C 
ATOM     10  C   LIG d   1      -6.388  77.722 116.561  0.00  0.00     0.006 C 
ENDBRANCH   8   9
BRANCH   8  11
ATOM     11  C   LIG d   1      -6.396  74.185 115.860  0.00  0.00     0.028 C 
ATOM     12  C   LIG d   1      -7.568  74.384 116.833  0.00  0.00     0.006 C 
ENDBRANCH   8  11
ENDBRANCH   7   8
ENDBRANCH   1   7
BRANCH   6  13
ATOM     13  N   LIG d   1      -1.875  75.827 116.957  0.00  0.00    -0.311 N 
ATOM     14  C   LIG d   1      -1.079  74.906 117.497  0.00  0.00     0.210 C 
ATOM     15  C   LIG d   1      -1.141  74.812 119.025  0.00  0.00     0.109 C 
ATOM     16  O   LIG d   1      -0.302  74.180 116.858  0.00  0.00    -0.276 OA
ATOM     17  H   LIG d   1      -2.447  76.394 117.552  0.00  0.00     0.149 HD
ENDBRANCH   6  13
BRANCH   5  18
ATOM     18  N   LIG d   1       0.422  76.774 115.180  0.00  0.00     0.381 N 
ATOM     19  H   LIG d   1       0.627  75.964 114.629  0.00  0.00    -0.090 HD
ATOM     20  H   LIG d   1       0.580  76.546 116.145  0.00  0.00    -0.090 HD
ATOM     21  H   LIG d   1       1.013  77.528 114.907  0.00  0.00    -0.090 HD
ENDBRANCH   5  18
BRANCH   3  22
ATOM     22  C   LIG d   1      -2.844  78.455 112.106  0.00  0.00     0.382 C 
ATOM     23  O   LIG d   1      -3.294  79.612 112.290  0.00  0.00    -0.241 OA
ATOM     24  O   LIG d   1      -2.692  78.033 110.944  0.00  0.00    -0.241 OA
ENDBRANCH   3  22
TORSDOF 7
ENDMDL
MODEL 3
REMARK VINA RESULT:      -4.7      3.242      5.669
REMARK  7 active torsions:
REMARK  status: ('A' for Active; 'I' for Inactive)
REMARK    1  A    between atoms: C_2  and  C_3 
REMARK    2  A    between atoms: C_3  and  O_6 
REMARK    3  A    between atoms: C_3  and  C_4 
REMARK    4  A    between atoms: C_7  and  O_6 
REMARK    5  A    between atoms: C_9  and  C_10 
REMARK    6  A    between atoms: N_15  and  C_14 
REMARK    7  A    between atoms: N_20  and  C_19 
REMARK       I    between atoms: C_22  and  N_20 
ROOT
ATOM      1  C   LIG d   1      -4.877  77.827 117.193  0.00  0.00     0.161 C 
ATOM      2  C   LIG d   1      -6.215  77.841 117.621  0.00  0.00     0.016 C 
ATOM      3  C   LIG d   1      -7.237  77.082 117.005  0.00  0.00     0.038 C 
ATOM      4  C   LIG d   1      -6.958  76.136 116.007  0.00  0.00     0.028 C 
ATOM      5  C   LIG d   1      -5.703  76.456 115.202  0.00  0.00    -0.047 C 
ATOM      6  C   LIG d   1      -4.534  76.717 116.178  0.00  0.00     0.091 C 
ENDROOT
BRANCH   1   7
ATOM      7  O   LIG d   1      -4.000  77.751 118.335  0.00  0.00    -0.368 OA
BRANCH   7   8
ATOM      8  C   LIG d   1      -3.124  78.886 118.543  0.00  0.00     0.119 C 
BRANCH   8   9
ATOM      9  C   LIG d   1      -1.810  78.352 119.144  0.00  0.00     0.028 C 
ATOM     10  C   LIG d   1      -1.456  76.947 118.627  0.00  0.00     0.006 C 
ENDBRANCH   8   9
BRANCH   8  11
ATOM     11  C   LIG d   1      -3.692  79.843 119.595  0.00  0.00     0.028 C 
ATOM     12  C   LIG d   1      -2.952  81.189 119.638  0.00  0.00     0.006 C 
ENDBRANCH   8  11
ENDBRANCH   7   8
ENDBRANCH   1   7
BRANCH   6  13
ATOM     13  N   LIG d   1      -3.288  77.119 115.475  0.00  0.00    -0.311 N 
ATOM     14  C   LIG d   1      -2.348  76.255 115.097  0.00  0.00     0.210 C 
ATOM     15  C   LIG d   1      -1.134  76.883 114.404  0.00  0.00     0.109 C 
ATOM     16  O   LIG d   1      -2.418  75.025 115.240  0.00  0.00    -0.276 OA
ATOM     17  H   LIG d   1      -3.163  78.096 115.291  0.00  0.00     0.149 HD
ENDBRANCH   6  13
BRANCH   5  18
ATOM     18  N   LIG d   1      -5.456  75.321 114.293  0.00  0.00     0.381 N 
ATOM     19  H   LIG d   1      -5.663  75.589 113.352  0.00  0.00    -0.090 HD
ATOM     20  H   LIG d   1      -6.065  74.562 114.546  0.00  0.00    -0.090 HD
ATOM     21  H   LIG d   1      -4.505  75.030 114.361  0.00  0.00    -0.090 HD
ENDBRANCH   5  18
BRANCH   3  22
ATOM     22  C   LIG d   1      -8.560  77.296 117.359  0.00  0.00     0.382 C 
ATOM     23  O   LIG d   1      -8.920  78.417 117.792  0.00  0.00    -0.241 OA
ATOM     24  O   LIG d   1      -9.390  76.369 117.292  0.00  0.00    -0.241 OA
ENDBRANCH   3  22
TORSDOF 7
ENDMDL
MODEL 4
REMARK VINA RESULT:      -4.6      2.707      5.347
REMARK  7 active torsions:
REMARK  status: ('A' for Active; 'I' for Inactive)
REMARK    1  A    between atoms: C_2  and  C_3 
REMARK    2  A    between atoms: C_3  and  O_6 
REMARK    3  A    between atoms: C_3  and  C_4 
REMARK    4  A    between atoms: C_7  and  O_6 
REMARK    5  A    between atoms: C_9  and  C_10 
REMARK    6  A    between atoms: N_15  and  C_14 
REMARK    7  A    between atoms: N_20  and  C_19 
REMARK       I    between atoms: C_22  and  N_20 
ROOT
ATOM      1  C   LIG d   1      -4.748  77.850 117.174  0.00  0.00     0.161 C 
ATOM      2  C   LIG d   1      -5.336  77.076 116.160  0.00  0.00     0.016 C 
ATOM      3  C   LIG d   1      -4.613  76.156 115.366  0.00  0.00     0.038 C 
ATOM      4  C   LIG d   1      -3.274  75.836 115.634  0.00  0.00     0.028 C 
ATOM      5  C   LIG d   1      -2.509  76.962 116.322  0.00  0.00    -0.047 C 
ATOM      6  C   LIG d   1      -3.312  77.434 117.556  0.00  0.00     0.091 C 
ENDROOT
BRANCH   1   7
ATOM      7  O   LIG d   1      -5.596  77.853 118.340  0.00  0.00    -0.368 OA
BRANCH   7   8
ATOM      8  C   LIG d   1      -7.019  77.963 118.093  0.00  0.00     0.119 C 
BRANCH   8   9
ATOM      9  C   LIG d   1      -7.485  79.315 118.669  0.00  0.00     0.028 C 
ATOM     10  C   LIG d   1      -8.732  79.859 117.952  0.00  0.00     0.006 C 
ENDBRANCH   8   9
BRANCH   8  11
ATOM     11  C   LIG d   1      -7.803  76.900 118.868  0.00  0.00     0.028 C 
ATOM     12  C   LIG d   1      -8.603  75.962 117.950  0.00  0.00     0.006 C 
ENDBRANCH   8  11
ENDBRANCH   7   8
ENDBRANCH   1   7
BRANCH   6  13
ATOM     13  N   LIG d   1      -2.675  78.590 118.239  0.00  0.00    -0.311 N 
ATOM     14  C   LIG d   1      -1.835  78.464 119.264  0.00  0.00     0.210 C 
ATOM     15  C   LIG d   1      -1.308  79.784 119.834  0.00  0.00     0.109 C 
ATOM     16  O   LIG d   1      -1.452  77.383 119.736  0.00  0.00    -0.276 OA
ATOM     17  H   LIG d   1      -2.906  79.504 117.900  0.00  0.00     0.149 HD
ENDBRANCH   6  13
BRANCH   5  18
ATOM     18  N   LIG d   1      -1.171  76.445 116.667  0.00  0.00     0.381 N 
ATOM     19  H   LIG d   1      -0.508  77.195 116.667  0.00  0.00    -0.090 HD
ATOM     20  H   LIG d   1      -0.891  75.777 115.971  0.00  0.00    -0.090 HD
ATOM     21  H   LIG d   1      -1.193  76.012 117.564  0.00  0.00    -0.090 HD
ENDBRANCH   5  18
BRANCH   3  22
ATOM     22  C   LIG d   1      -5.221  75.575 114.263  0.00  0.00     0.382 C 
ATOM     23  O   LIG d   1      -5.090  74.345 114.051  0.00  0.00    -0.241 OA
ATOM     24  O   LIG d   1      -5.861  76.272 113.453  0.00  0.00    -0.241 OA
ENDBRANCH   3  22
TORSDOF 7
ENDMDL
MODEL 5
REMARK VINA RESULT:      -4.4      3.158      6.168
REMARK  7 active torsions:
REMARK  status: ('A' for Active; 'I' for Inactive)
REMARK    1  A    between atoms: C_2  and  C_3 
REMARK    2  A    between atoms: C_3  and  O_6 
REMARK    3  A    between atoms: C_3  and  C_4 
REMARK    4  A    between atoms: C_7  and  O_6 
REMARK    5  A    between atoms: C_9  and  C_10 
REMARK    6  A    between atoms: N_15  and  C_14 
REMARK    7  A    between atoms: N_20  and  C_19 
REMARK       I    between atoms: C_22  and  N_20 
ROOT
ATOM      1  C   LIG d   1      -0.307  79.457 114.538  0.00  0.00     0.161 C 
ATOM      2  C   LIG d   1      -0.457  80.770 114.060  0.00  0.00     0.016 C 
ATOM      3  C   LIG d   1      -1.032  81.080 112.806  0.00  0.00     0.038 C 
ATOM      4  C   LIG d   1      -1.638  80.101 112.005  0.00  0.00     0.028 C 
ATOM      5  C   LIG d   1      -1.061  78.705 112.215  0.00  0.00    -0.047 C 
ATOM      6  C   LIG d   1      -1.062  78.384 113.727  0.00  0.00     0.091 C 
ENDROOT
BRANCH   1   7
ATOM      7  O   LIG d   1      -0.688  79.397 115.927  0.00  0.00    -0.368 OA
BRANCH   7   8
ATOM      8  C   LIG d   1       0.372  79.089 116.865  0.00  0.00     0.119 C 
BRANCH   8   9
ATOM      9  C   LIG d   1       0.008  77.761 117.557  0.00  0.00     0.028 C 
ATOM     10  C   LIG d   1      -1.509  77.599 117.752  0.00  0.00     0.006 C 
ENDBRANCH   8   9
BRANCH   8  11
ATOM     11  C   LIG d   1       0.440  80.127 117.990  0.00  0.00     0.028 C 
ATOM     12  C   LIG d   1      -0.717  81.137 117.938  0.00  0.00     0.006 C 
ENDBRANCH   8  11
ENDBRANCH   7   8
ENDBRANCH   1   7
BRANCH   6  13
ATOM     13  N   LIG d   1      -0.436  77.070 114.028  0.00  0.00    -0.311 N 
ATOM     14  C   LIG d   1      -1.115  76.024 114.495  0.00  0.00     0.210 C 
ATOM     15  C   LIG d   1      -0.274  74.771 114.757  0.00  0.00     0.109 C 
ATOM     16  O   LIG d   1      -2.341  76.004 114.687  0.00  0.00    -0.276 OA
ATOM     17  H   LIG d   1       0.549  76.988 113.872  0.00  0.00     0.149 HD
ENDBRANCH   6  13
BRANCH   5  18
ATOM     18  N   LIG d   1      -1.873  77.763 111.423  0.00  0.00     0.381 N 
ATOM     19  H   LIG d   1      -2.580  77.355 112.002  0.00  0.00    -0.090 HD
ATOM     20  H   LIG d   1      -1.280  77.027 111.084  0.00  0.00    -0.090 HD
ATOM     21  H   LIG d   1      -2.296  78.238 110.656  0.00  0.00    -0.090 HD
ENDBRANCH   5  18
BRANCH   3  22
ATOM     22  C   LIG d   1      -0.969  82.379 112.324  0.00  0.00     0.382 C 
ATOM     23  O   LIG d   1      -1.812  82.777 111.484  0.00  0.00    -0.241 OA
ATOM     24  O   LIG d   1      -0.054  83.143 112.685  0.00  0.00    -0.241 OA
ENDBRANCH   3  22
TORSDOF 7
ENDMDL
MODEL 6
REMARK VINA RESULT:      -4.3      2.790      5.619
REMARK  7 active torsions:
REMARK  status: ('A' for Active; 'I' for Inactive)
REMARK    1  A    between atoms: C_2  and  C_3 
REMARK    2  A    between atoms: C_3  and  O_6 
REMARK    3  A    between atoms: C_3  and  C_4 
REMARK    4  A    between atoms: C_7  and  O_6 
REMARK    5  A    between atoms: C_9  and  C_10 
REMARK    6  A    between atoms: N_15  and  C_14 
REMARK    7  A    between atoms: N_20  and  C_19 
REMARK       I    between atoms: C_22  and  N_20 
ROOT
ATOM      1  C   LIG d   1      -3.716  77.117 116.930  0.00  0.00     0.161 C 
ATOM      2  C   LIG d   1      -4.963  77.629 117.327  0.00  0.00     0.016 C 
ATOM      3  C   LIG d   1      -6.197  77.132 116.848  0.00  0.00     0.038 C 
ATOM      4  C   LIG d   1      -6.272  75.982 116.049  0.00  0.00     0.028 C 
ATOM      5  C   LIG d   1      -5.018  75.738 115.217  0.00  0.00    -0.047 C 
ATOM      6  C   LIG d   1      -3.783  75.790 116.145  0.00  0.00     0.091 C 
ENDROOT
BRANCH   1   7
ATOM      7  O   LIG d   1      -2.857  76.978 118.078  0.00  0.00    -0.368 OA
BRANCH   7   8
ATOM      8  C   LIG d   1      -2.092  78.151 118.448  0.00  0.00     0.119 C 
BRANCH   8   9
ATOM      9  C   LIG d   1      -1.147  78.477 117.275  0.00  0.00     0.028 C 
ATOM     10  C   LIG d   1      -0.557  79.894 117.372  0.00  0.00     0.006 C 
ENDBRANCH   8   9
BRANCH   8  11
ATOM     11  C   LIG d   1      -1.174  77.865 119.641  0.00  0.00     0.028 C 
ATOM     12  C   LIG d   1      -0.638  76.425 119.647  0.00  0.00     0.006 C 
ENDBRANCH   8  11
ENDBRANCH   7   8
ENDBRANCH   1   7
BRANCH   6  13
ATOM     13  N   LIG d   1      -2.506  75.645 115.398  0.00  0.00    -0.311 N 
ATOM     14  C   LIG d   1      -1.495  74.885 115.815  0.00  0.00     0.210 C 
ATOM     15  C   LIG d   1      -0.262  74.892 114.905  0.00  0.00     0.109 C 
ATOM     16  O   LIG d   1      -1.513  74.181 116.836  0.00  0.00    -0.276 OA
ATOM     17  H   LIG d   1      -2.417  76.158 114.542  0.00  0.00     0.149 HD
ENDBRANCH   6  13
BRANCH   5  18
ATOM     18  N   LIG d   1      -5.177  74.437 114.540  0.00  0.00     0.381 N 
ATOM     19  H   LIG d   1      -5.839  74.523 113.794  0.00  0.00    -0.090 HD
ATOM     20  H   LIG d   1      -5.532  73.768 115.201  0.00  0.00    -0.090 HD
ATOM     21  H   LIG d   1      -4.300  74.129 114.182  0.00  0.00    -0.090 HD
ENDBRANCH   5  18
BRANCH   3  22
ATOM     22  C   LIG d   1      -7.370  77.813 117.135  0.00  0.00     0.382 C 
ATOM     23  O   LIG d   1      -8.462  77.195 117.164  0.00  0.00    -0.241 OA
ATOM     24  O   LIG d   1      -7.356  79.044 117.323  0.00  0.00    -0.241 OA
ENDBRANCH   3  22
TORSDOF 7
ENDMDL
MODEL 7
REMARK VINA RESULT:      -4.2      2.396      6.085
REMARK  7 active torsions:
REMARK  status: ('A' for Active; 'I' for Inactive)
REMARK    1  A    between atoms: C_2  and  C_3 
REMARK    2  A    between atoms: C_3  and  O_6 
REMARK    3  A    between atoms: C_3  and  C_4 
REMARK    4  A    between atoms: C_7  and  O_6 
REMARK    5  A    between atoms: C_9  and  C_10 
REMARK    6  A    between atoms: N_15  and  C_14 
REMARK    7  A    between atoms: N_20  and  C_19 
REMARK       I    between atoms: C_22  and  N_20 
ROOT
ATOM      1  C   LIG d   1      -0.416  77.188 115.173  0.00  0.00     0.161 C 
ATOM      2  C   LIG d   1      -1.057  77.801 114.083  0.00  0.00     0.016 C 
ATOM      3  C   LIG d   1      -2.400  77.543 113.724  0.00  0.00     0.038 C 
ATOM      4  C   LIG d   1      -3.245  76.763 114.527  0.00  0.00     0.028 C 
ATOM      5  C   LIG d   1      -2.502  75.723 115.357  0.00  0.00    -0.047 C 
ATOM      6  C   LIG d   1      -1.356  76.420 116.126  0.00  0.00     0.091 C 
ENDROOT
BRANCH   1   7
ATOM      7  O   LIG d   1       0.348  78.167 115.904  0.00  0.00    -0.368 OA
BRANCH   7   8
ATOM      8  C   LIG d   1      -0.378  79.340 116.349  0.00  0.00     0.119 C 
BRANCH   8   9
ATOM      9  C   LIG d   1       0.439  80.577 115.928  0.00  0.00     0.028 C 
ATOM     10  C   LIG d   1       0.174  80.986 114.469  0.00  0.00     0.006 C 
ENDBRANCH   8   9
BRANCH   8  11
ATOM     11  C   LIG d   1      -0.451  79.403 117.877  0.00  0.00     0.028 C 
ATOM     12  C   LIG d   1      -1.890  79.306 118.409  0.00  0.00     0.006 C 
ENDBRANCH   8  11
ENDBRANCH   7   8
ENDBRANCH   1   7
BRANCH   6  13
ATOM     13  N   LIG d   1      -0.525  75.459 116.898  0.00  0.00    -0.311 N 
ATOM     14  C   LIG d   1      -0.660  75.261 118.208  0.00  0.00     0.210 C 
ATOM     15  C   LIG d   1       0.311  74.241 118.811  0.00  0.00     0.109 C 
ATOM     16  O   LIG d   1      -1.512  75.810 118.922  0.00  0.00    -0.276 OA
ATOM     17  H   LIG d   1       0.171  74.948 116.391  0.00  0.00     0.149 HD
ENDBRANCH   6  13
BRANCH   5  18
ATOM     18  N   LIG d   1      -3.485  75.077 116.247  0.00  0.00     0.381 N 
ATOM     19  H   LIG d   1      -3.011  74.502 116.915  0.00  0.00    -0.090 HD
ATOM     20  H   LIG d   1      -4.086  74.489 115.695  0.00  0.00    -0.090 HD
ATOM     21  H   LIG d   1      -4.026  75.769 116.717  0.00  0.00    -0.090 HD
ENDBRANCH   5  18
BRANCH   3  22
ATOM     22  C   LIG d   1      -2.898  78.037 112.528  0.00  0.00     0.382 C 
ATOM     23  O   LIG d   1      -2.224  78.856 111.858  0.00  0.00    -0.241 OA
ATOM     24  O   LIG d   1      -4.033  77.708 112.132  0.00  0.00    -0.241 OA
ENDBRANCH   3  22
TORSDOF 7
ENDMDL
MODEL 8
REMARK VINA RESULT:      -4.1      3.316      5.613
REMARK  7 active torsions:
REMARK  status: ('A' for Active; 'I' for Inactive)
REMARK    1  A    between atoms: C_2  and  C_3 
REMARK    2  A    between atoms: C_3  and  O_6 
REMARK    3  A    between atoms: C_3  and  C_4 
REMARK    4  A    between atoms: C_7  and  O_6 
REMARK    5  A    between atoms: C_9  and  C_10 
REMARK    6  A    between atoms: N_15  and  C_14 
REMARK    7  A    between atoms: N_20  and  C_19 
REMARK       I    between atoms: C_22  and  N_20 
ROOT
ATOM      1  C   LIG d   1      -3.861  77.359 117.457  0.00  0.00     0.161 C 
ATOM      2  C   LIG d   1      -2.735  77.076 116.665  0.00  0.00     0.016 C 
ATOM      3  C   LIG d   1      -2.818  76.555 115.354  0.00  0.00     0.038 C 
ATOM      4  C   LIG d   1      -4.044  76.424 114.684  0.00  0.00     0.028 C 
ATOM      5  C   LIG d   1      -5.228  76.222 115.623  0.00  0.00    -0.047 C 
ATOM      6  C   LIG d   1      -5.207  77.327 116.703  0.00  0.00     0.091 C 
ENDROOT
BRANCH   1   7
ATOM      7  O   LIG d   1      -3.686  78.629 118.117  0.00  0.00    -0.368 OA
BRANCH   7   8
ATOM      8  C   LIG d   1      -2.338  78.947 118.541  0.00  0.00     0.119 C 
BRANCH   8   9
ATOM      9  C   LIG d   1      -2.110  78.269 119.906  0.00  0.00     0.028 C 
ATOM     10  C   LIG d   1      -0.833  77.412 119.930  0.00  0.00     0.006 C 
ENDBRANCH   8   9
BRANCH   8  11
ATOM     11  C   LIG d   1      -2.175  80.447 118.801  0.00  0.00     0.028 C 
ATOM     12  C   LIG d   1      -3.243  81.007 119.754  0.00  0.00     0.006 C 
ENDBRANCH   8  11
ENDBRANCH   7   8
ENDBRANCH   1   7
BRANCH   6  13
ATOM     13  N   LIG d   1      -6.284  77.154 117.713  0.00  0.00    -0.311 N 
ATOM     14  C   LIG d   1      -7.249  78.049 117.915  0.00  0.00     0.210 C 
ATOM     15  C   LIG d   1      -8.248  77.684 119.018  0.00  0.00     0.109 C 
ATOM     16  O   LIG d   1      -7.392  79.095 117.264  0.00  0.00    -0.276 OA
ATOM     17  H   LIG d   1      -6.262  76.318 118.264  0.00  0.00     0.149 HD
ENDBRANCH   6  13
BRANCH   5  18
ATOM     18  N   LIG d   1      -6.454  76.238 114.803  0.00  0.00     0.381 N 
ATOM     19  H   LIG d   1      -6.350  76.888 114.050  0.00  0.00    -0.090 HD
ATOM     20  H   LIG d   1      -7.224  76.540 115.375  0.00  0.00    -0.090 HD
ATOM     21  H   LIG d   1      -6.636  75.327 114.443  0.00  0.00    -0.090 HD
ENDBRANCH   5  18
BRANCH   3  22
ATOM     22  C   LIG d   1      -1.667  76.122 114.712  0.00  0.00     0.382 C 
ATOM     23  O   LIG d   1      -1.315  74.921 114.800  0.00  0.00    -0.241 OA
ATOM     24  O   LIG d   1      -0.954  76.927 114.084  0.00  0.00    -0.241 OA
ENDBRANCH   3  22
TORSDOF 7
ENDMDL
MODEL 9
REMARK VINA RESULT:      -4.1      3.007      4.862
REMARK  7 active torsions:
REMARK  status: ('A' for Active; 'I' for Inactive)
REMARK    1  A    between atoms: C_2  and  C_3 
REMARK    2  A    between atoms: C_3  and  O_6 
REMARK    3  A    between atoms: C_3  and  C_4 
REMARK    4  A    between atoms: C_7  and  O_6 
REMARK    5  A    between atoms: C_9  and  C_10 
REMARK    6  A    between atoms: N_15  and  C_14 
REMARK    7  A    between atoms: N_20  and  C_19 
REMARK       I    between atoms: C_22  and  N_20 
ROOT
ATOM      1  C   LIG d   1      -4.196  77.198 117.525  0.00  0.00     0.161 C 
ATOM      2  C   LIG d   1      -2.802  77.282 117.368  0.00  0.00     0.016 C 
ATOM      3  C   LIG d   1      -2.096  76.637 116.327  0.00  0.00     0.038 C 
ATOM      4  C   LIG d   1      -2.757  75.983 115.277  0.00  0.00     0.028 C 
ATOM      5  C   LIG d   1      -4.129  75.445 115.667  0.00  0.00    -0.047 C 
ATOM      6  C   LIG d   1      -4.945  76.580 116.326  0.00  0.00     0.091 C 
ENDROOT
BRANCH   1   7
ATOM      7  O   LIG d   1      -4.732  78.499 117.835  0.00  0.00    -0.368 OA
BRANCH   7   8
ATOM      8  C   LIG d   1      -5.108  78.721 119.217  0.00  0.00     0.119 C 
BRANCH   8   9
ATOM      9  C   LIG d   1      -6.647  78.772 119.276  0.00  0.00     0.028 C 
ATOM     10  C   LIG d   1      -7.267  79.306 117.974  0.00  0.00     0.006 C 
ENDBRANCH   8   9
BRANCH   8  11
ATOM     11  C   LIG d   1      -4.638  80.093 119.708  0.00  0.00     0.028 C 
ATOM     12  C   LIG d   1      -3.138  80.329 119.472  0.00  0.00     0.006 C 
ENDBRANCH   8  11
ENDBRANCH   7   8
ENDBRANCH   1   7
BRANCH   6  13
ATOM     13  N   LIG d   1      -6.270  76.117 116.814  0.00  0.00    -0.311 N 
ATOM     14  C   LIG d   1      -7.367  76.107 116.058  0.00  0.00     0.210 C 
ATOM     15  C   LIG d   1      -8.633  75.609 116.763  0.00  0.00     0.109 C 
ATOM     16  O   LIG d   1      -7.405  76.432 114.862  0.00  0.00    -0.276 OA
ATOM     17  H   LIG d   1      -6.323  75.806 117.764  0.00  0.00     0.149 HD
ENDBRANCH   6  13
BRANCH   5  18
ATOM     18  N   LIG d   1      -4.762  74.911 114.447  0.00  0.00     0.381 N 
ATOM     19  H   LIG d   1      -4.066  74.501 113.856  0.00  0.00    -0.090 HD
ATOM     20  H   LIG d   1      -5.194  75.668 113.947  0.00  0.00    -0.090 HD
ATOM     21  H   LIG d   1      -5.447  74.229 114.688  0.00  0.00    -0.090 HD
ENDBRANCH   5  18
BRANCH   3  22
ATOM     22  C   LIG d   1      -0.710  76.609 116.352  0.00  0.00     0.382 C 
ATOM     23  O   LIG d   1      -0.099  76.750 117.439  0.00  0.00    -0.241 OA
ATOM     24  O   LIG d   1      -0.061  76.490 115.295  0.00  0.00    -0.241 OA
ENDBRANCH   3  22
TORSDOF 7
ENDMDL
