MODEL 1
REMARK VINA RESULT:      -4.9      0.000      0.000
REMARK  7 active torsions:
REMARK  status: ('A' for Active; 'I' for Inactive)
REMARK    1  A    between atoms: C_2  and  C_3 
REMARK    2  A    between atoms: C_3  and  O_6 
REMARK    3  A    between atoms: C_3  and  C_4 
REMARK    4  A    between atoms: C_7  and  O_6 
REMARK    5  A    between atoms: C_9  and  C_10 
REMARK    6  A    between atoms: N_15  and  C_14 
REMARK    7  A    between atoms: N_20  and  C_19 
REMARK       I    between atoms: C_22  and  N_20 
ROOT
ATOM      1  C   LIG d   1      -2.480  80.892 114.731  0.00  0.00     0.161 C 
ATOM      2  C   LIG d   1      -2.110  81.936 113.867  0.00  0.00     0.016 C 
ATOM      3  C   LIG d   1      -1.491  81.726 112.613  0.00  0.00     0.038 C 
ATOM      4  C   LIG d   1      -1.336  80.443 112.068  0.00  0.00     0.028 C 
ATOM      5  C   LIG d   1      -1.235  79.346 113.123  0.00  0.00    -0.047 C 
ATOM      6  C   LIG d   1      -2.420  79.483 114.105  0.00  0.00     0.091 C 
ENDROOT
BRANCH   1   7
ATOM      7  O   LIG d   1      -3.793  81.145 115.270  0.00  0.00    -0.368 OA
BRANCH   7   8
ATOM      8  C   LIG d   1      -3.836  81.784 116.570  0.00  0.00     0.119 C 
BRANCH   8   9
ATOM      9  C   LIG d   1      -2.540  81.408 117.313  0.00  0.00     0.028 C 
ATOM     10  C   LIG d   1      -1.913  82.607 118.044  0.00  0.00     0.006 C 
ENDBRANCH   8   9
BRANCH   8  11
ATOM     11  C   LIG d   1      -4.973  81.223 117.428  0.00  0.00     0.028 C 
ATOM     12  C   LIG d   1      -5.218  79.725 117.189  0.00  0.00     0.006 C 
ENDBRANCH   8  11
ENDBRANCH   7   8
ENDBRANCH   1   7
BRANCH   6  13
ATOM     13  N   LIG d   1      -2.351  78.500 115.218  0.00  0.00    -0.311 N 
ATOM     14  C   LIG d   1      -2.955  77.313 115.186  0.00  0.00     0.210 C 
ATOM     15  C   LIG d   1      -2.772  76.461 116.446  0.00  0.00     0.109 C 
ATOM     16  O   LIG d   1      -3.598  76.872 114.221  0.00  0.00    -0.276 OA
ATOM     17  H   LIG d   1      -1.824  78.763 116.027  0.00  0.00     0.149 HD
ENDBRANCH   6  13
BRANCH   5  18
ATOM     18  N   LIG d   1      -1.215  78.050 112.417  0.00  0.00     0.381 N 
ATOM     19  H   LIG d   1      -1.606  77.340 113.003  0.00  0.00    -0.090 HD
ATOM     20  H   LIG d   1      -0.262  77.804 112.216  0.00  0.00    -0.090 HD
ATOM     21  H   LIG d   1      -1.736  78.115 111.570  0.00  0.00    -0.090 HD
ENDBRANCH   5  18
BRANCH   3  22
ATOM     22  C   LIG d   1      -0.984  82.807 111.908  0.00  0.00     0.382 C 
ATOM     23  O   LIG d   1      -0.975  83.948 112.429  0.00  0.00    -0.241 OA
ATOM     24  O   LIG d   1      -0.575  82.663 110.740  0.00  0.00    -0.241 OA
ENDBRANCH   3  22
TORSDOF 7
ENDMDL
MODEL 2
REMARK VINA RESULT:      -4.8      1.851      2.206
REMARK  7 active torsions:
REMARK  status: ('A' for Active; 'I' for Inactive)
REMARK    1  A    between atoms: C_2  and  C_3 
REMARK    2  A    between atoms: C_3  and  O_6 
REMARK    3  A    between atoms: C_3  and  C_4 
REMARK    4  A    between atoms: C_7  and  O_6 
REMARK    5  A    between atoms: C_9  and  C_10 
REMARK    6  A    between atoms: N_15  and  C_14 
REMARK    7  A    between atoms: N_20  and  C_19 
REMARK       I    between atoms: C_22  and  N_20 
ROOT
ATOM      1  C   LIG d   1       0.034  81.042 114.637  0.00  0.00     0.161 C 
ATOM      2  C   LIG d   1      -0.094  82.190 113.837  0.00  0.00     0.016 C 
ATOM      3  C   LIG d   1      -0.778  82.204 112.600  0.00  0.00     0.038 C 
ATOM      4  C   LIG d   1      -1.515  81.099 112.148  0.00  0.00     0.028 C 
ATOM      5  C   LIG d   1      -0.996  79.767 112.677  0.00  0.00    -0.047 C 
ATOM      6  C   LIG d   1      -0.858  79.856 114.214  0.00  0.00     0.091 C 
ENDROOT
BRANCH   1   7
ATOM      7  O   LIG d   1      -0.204  81.380 116.018  0.00  0.00    -0.368 OA
BRANCH   7   8
ATOM      8  C   LIG d   1      -0.967  82.588 116.256  0.00  0.00     0.119 C 
BRANCH   8   9
ATOM      9  C   LIG d   1      -0.318  83.319 117.447  0.00  0.00     0.028 C 
ATOM     10  C   LIG d   1       0.310  84.663 117.039  0.00  0.00     0.006 C 
ENDBRANCH   8   9
BRANCH   8  11
ATOM     11  C   LIG d   1      -2.395  82.265 116.708  0.00  0.00     0.028 C 
ATOM     12  C   LIG d   1      -3.410  82.309 115.555  0.00  0.00     0.006 C 
ENDBRANCH   8  11
ENDBRANCH   7   8
ENDBRANCH   1   7
BRANCH   6  13
ATOM     13  N   LIG d   1      -0.276  78.623 114.804  0.00  0.00    -0.311 N 
ATOM     14  C   LIG d   1      -1.011  77.605 115.247  0.00  0.00     0.210 C 
ATOM     15  C   LIG d   1      -0.212  76.438 115.836  0.00  0.00     0.109 C 
ATOM     16  O   LIG d   1      -2.248  77.543 115.180  0.00  0.00    -0.276 OA
ATOM     17  H   LIG d   1       0.722  78.575 114.868  0.00  0.00     0.149 HD
ENDBRANCH   6  13
BRANCH   5  18
ATOM     18  N   LIG d   1      -1.936  78.717 112.240  0.00  0.00     0.381 N 
ATOM     19  H   LIG d   1      -1.993  78.003 112.939  0.00  0.00    -0.090 HD
ATOM     20  H   LIG d   1      -1.589  78.302 111.393  0.00  0.00    -0.090 HD
ATOM     21  H   LIG d   1      -2.837  79.111 112.082  0.00  0.00    -0.090 HD
ENDBRANCH   5  18
BRANCH   3  22
ATOM     22  C   LIG d   1      -0.695  83.320 111.781  0.00  0.00     0.382 C 
ATOM     23  O   LIG d   1      -0.733  84.469 112.283  0.00  0.00    -0.241 OA
ATOM     24  O   LIG d   1      -0.628  83.193 110.544  0.00  0.00    -0.241 OA
ENDBRANCH   3  22
TORSDOF 7
ENDMDL
MODEL 3
REMARK VINA RESULT:      -4.8      4.521      7.439
REMARK  7 active torsions:
REMARK  status: ('A' for Active; 'I' for Inactive)
REMARK    1  A    between atoms: C_2  and  C_3 
REMARK    2  A    between atoms: C_3  and  O_6 
REMARK    3  A    between atoms: C_3  and  C_4 
REMARK    4  A    between atoms: C_7  and  O_6 
REMARK    5  A    between atoms: C_9  and  C_10 
REMARK    6  A    between atoms: N_15  and  C_14 
REMARK    7  A    between atoms: N_20  and  C_19 
REMARK       I    between atoms: C_22  and  N_20 
ROOT
ATOM      1  C   LIG d   1      -7.014  77.545 117.700  0.00  0.00     0.161 C 
ATOM      2  C   LIG d   1      -8.103  78.356 118.061  0.00  0.00     0.016 C 
ATOM      3  C   LIG d   1      -8.055  79.769 118.059  0.00  0.00     0.038 C 
ATOM      4  C   LIG d   1      -6.955  80.473 117.546  0.00  0.00     0.028 C 
ATOM      5  C   LIG d   1      -5.643  79.701 117.643  0.00  0.00    -0.047 C 
ATOM      6  C   LIG d   1      -5.842  78.295 117.032  0.00  0.00     0.091 C 
ENDROOT
BRANCH   1   7
ATOM      7  O   LIG d   1      -7.466  76.468 116.855  0.00  0.00    -0.368 OA
BRANCH   7   8
ATOM      8  C   LIG d   1      -7.280  75.129 117.376  0.00  0.00     0.119 C 
BRANCH   8   9
ATOM      9  C   LIG d   1      -7.014  74.199 116.176  0.00  0.00     0.028 C 
ATOM     10  C   LIG d   1      -6.315  74.925 115.015  0.00  0.00     0.006 C 
ENDBRANCH   8   9
BRANCH   8  11
ATOM     11  C   LIG d   1      -8.563  74.600 118.023  0.00  0.00     0.028 C 
ATOM     12  C   LIG d   1      -9.831  75.017 117.261  0.00  0.00     0.006 C 
ENDBRANCH   8  11
ENDBRANCH   7   8
ENDBRANCH   1   7
BRANCH   6  13
ATOM     13  N   LIG d   1      -4.631  77.444 117.162  0.00  0.00    -0.311 N 
ATOM     14  C   LIG d   1      -3.704  77.338 116.212  0.00  0.00     0.210 C 
ATOM     15  C   LIG d   1      -2.546  76.391 116.541  0.00  0.00     0.109 C 
ATOM     16  O   LIG d   1      -3.715  77.962 115.140  0.00  0.00    -0.276 OA
ATOM     17  H   LIG d   1      -4.526  76.927 118.013  0.00  0.00     0.149 HD
ENDBRANCH   6  13
BRANCH   5  18
ATOM     18  N   LIG d   1      -4.609  80.492 116.950  0.00  0.00     0.381 N 
ATOM     19  H   LIG d   1      -5.041  81.204 116.396  0.00  0.00    -0.090 HD
ATOM     20  H   LIG d   1      -4.093  79.886 116.337  0.00  0.00    -0.090 HD
ATOM     21  H   LIG d   1      -3.993  80.906 117.615  0.00  0.00    -0.090 HD
ENDBRANCH   5  18
BRANCH   3  22
ATOM     22  C   LIG d   1      -9.101  80.493 118.610  0.00  0.00     0.382 C 
ATOM     23  O   LIG d   1      -9.110  80.745 119.839  0.00  0.00    -0.241 OA
ATOM     24  O   LIG d   1     -10.058  80.860 117.902  0.00  0.00    -0.241 OA
ENDBRANCH   3  22
TORSDOF 7
ENDMDL
MODEL 4
REMARK VINA RESULT:      -4.7      3.711      7.369
REMARK  7 active torsions:
REMARK  status: ('A' for Active; 'I' for Inactive)
REMARK    1  A    between atoms: C_2  and  C_3 
REMARK    2  A    between atoms: C_3  and  O_6 
REMARK    3  A    between atoms: C_3  and  C_4 
REMARK    4  A    between atoms: C_7  and  O_6 
REMARK    5  A    between atoms: C_9  and  C_10 
REMARK    6  A    between atoms: N_15  and  C_14 
REMARK    7  A    between atoms: N_20  and  C_19 
REMARK       I    between atoms: C_22  and  N_20 
ROOT
ATOM      1  C   LIG d   1      -6.137  77.902 117.296  0.00  0.00     0.161 C 
ATOM      2  C   LIG d   1      -7.495  77.942 117.651  0.00  0.00     0.016 C 
ATOM      3  C   LIG d   1      -8.167  79.128 118.028  0.00  0.00     0.038 C 
ATOM      4  C   LIG d   1      -7.558  80.388 117.928  0.00  0.00     0.028 C 
ATOM      5  C   LIG d   1      -6.039  80.339 118.058  0.00  0.00    -0.047 C 
ATOM      6  C   LIG d   1      -5.485  79.283 117.075  0.00  0.00     0.091 C 
ENDROOT
BRANCH   1   7
ATOM      7  O   LIG d   1      -5.961  77.072 116.130  0.00  0.00    -0.368 OA
BRANCH   7   8
ATOM      8  C   LIG d   1      -5.346  75.780 116.355  0.00  0.00     0.119 C 
BRANCH   8   9
ATOM      9  C   LIG d   1      -4.017  75.757 115.575  0.00  0.00     0.028 C 
ATOM     10  C   LIG d   1      -2.865  75.153 116.396  0.00  0.00     0.006 C 
ENDBRANCH   8   9
BRANCH   8  11
ATOM     11  C   LIG d   1      -6.188  74.650 115.755  0.00  0.00     0.028 C 
ATOM     12  C   LIG d   1      -7.462  74.362 116.565  0.00  0.00     0.006 C 
ENDBRANCH   8  11
ENDBRANCH   7   8
ENDBRANCH   1   7
BRANCH   6  13
ATOM     13  N   LIG d   1      -4.014  79.111 117.197  0.00  0.00    -0.311 N 
ATOM     14  C   LIG d   1      -3.165  79.324 116.193  0.00  0.00     0.210 C 
ATOM     15  C   LIG d   1      -1.692  79.069 116.527  0.00  0.00     0.109 C 
ATOM     16  O   LIG d   1      -3.489  79.730 115.067  0.00  0.00    -0.276 OA
ATOM     17  H   LIG d   1      -3.662  78.813 118.086  0.00  0.00     0.149 HD
ENDBRANCH   6  13
BRANCH   5  18
ATOM     18  N   LIG d   1      -5.526  81.697 117.799  0.00  0.00     0.381 N 
ATOM     19  H   LIG d   1      -5.481  81.859 116.813  0.00  0.00    -0.090 HD
ATOM     20  H   LIG d   1      -4.596  81.770 118.173  0.00  0.00    -0.090 HD
ATOM     21  H   LIG d   1      -6.118  82.373 118.228  0.00  0.00    -0.090 HD
ENDBRANCH   5  18
BRANCH   3  22
ATOM     22  C   LIG d   1      -9.450  79.055 118.548  0.00  0.00     0.382 C 
ATOM     23  O   LIG d   1     -10.060  77.959 118.562  0.00  0.00    -0.241 OA
ATOM     24  O   LIG d   1     -10.022  80.081 118.962  0.00  0.00    -0.241 OA
ENDBRANCH   3  22
TORSDOF 7
ENDMDL
MODEL 5
REMARK VINA RESULT:      -4.5      3.617      7.274
REMARK  7 active torsions:
REMARK  status: ('A' for Active; 'I' for Inactive)
REMARK    1  A    between atoms: C_2  and  C_3 
REMARK    2  A    between atoms: C_3  and  O_6 
REMARK    3  A    between atoms: C_3  and  C_4 
REMARK    4  A    between atoms: C_7  and  O_6 
REMARK    5  A    between atoms: C_9  and  C_10 
REMARK    6  A    between atoms: N_15  and  C_14 
REMARK    7  A    between atoms: N_20  and  C_19 
REMARK       I    between atoms: C_22  and  N_20 
ROOT
ATOM      1  C   LIG d   1      -6.069  78.261 117.247  0.00  0.00     0.161 C 
ATOM      2  C   LIG d   1      -7.419  78.365 117.622  0.00  0.00     0.016 C 
ATOM      3  C   LIG d   1      -8.017  79.574 118.047  0.00  0.00     0.038 C 
ATOM      4  C   LIG d   1      -7.339  80.800 117.981  0.00  0.00     0.028 C 
ATOM      5  C   LIG d   1      -5.824  80.661 118.089  0.00  0.00    -0.047 C 
ATOM      6  C   LIG d   1      -5.343  79.610 117.063  0.00  0.00     0.091 C 
ENDROOT
BRANCH   1   7
ATOM      7  O   LIG d   1      -5.954  77.463 116.053  0.00  0.00    -0.368 OA
BRANCH   7   8
ATOM      8  C   LIG d   1      -5.221  76.220 116.185  0.00  0.00     0.119 C 
BRANCH   8   9
ATOM      9  C   LIG d   1      -6.096  75.101 115.586  0.00  0.00     0.028 C 
ATOM     10  C   LIG d   1      -7.192  74.630 116.557  0.00  0.00     0.006 C 
ENDBRANCH   8   9
BRANCH   8  11
ATOM     11  C   LIG d   1      -5.028  75.840 117.656  0.00  0.00     0.028 C 
ATOM     12  C   LIG d   1      -3.557  75.577 118.015  0.00  0.00     0.006 C 
ENDBRANCH   8  11
ENDBRANCH   7   8
ENDBRANCH   1   7
BRANCH   6  13
ATOM     13  N   LIG d   1      -3.883  79.351 117.159  0.00  0.00    -0.311 N 
ATOM     14  C   LIG d   1      -3.064  79.370 116.109  0.00  0.00     0.210 C 
ATOM     15  C   LIG d   1      -1.598  79.057 116.426  0.00  0.00     0.109 C 
ATOM     16  O   LIG d   1      -3.406  79.648 114.950  0.00  0.00    -0.276 OA
ATOM     17  H   LIG d   1      -3.514  79.148 118.068  0.00  0.00     0.149 HD
ENDBRANCH   6  13
BRANCH   5  18
ATOM     18  N   LIG d   1      -5.237  81.996 117.867  0.00  0.00     0.381 N 
ATOM     19  H   LIG d   1      -4.282  81.904 117.586  0.00  0.00    -0.090 HD
ATOM     20  H   LIG d   1      -5.264  82.510 118.730  0.00  0.00    -0.090 HD
ATOM     21  H   LIG d   1      -5.752  82.483 117.167  0.00  0.00    -0.090 HD
ENDBRANCH   5  18
BRANCH   3  22
ATOM     22  C   LIG d   1      -9.296  79.556 118.582  0.00  0.00     0.382 C 
ATOM     23  O   LIG d   1      -9.679  80.495 119.322  0.00  0.00    -0.241 OA
ATOM     24  O   LIG d   1     -10.057  78.593 118.371  0.00  0.00    -0.241 OA
ENDBRANCH   3  22
TORSDOF 7
ENDMDL
MODEL 6
REMARK VINA RESULT:      -4.5      3.406      5.655
REMARK  7 active torsions:
REMARK  status: ('A' for Active; 'I' for Inactive)
REMARK    1  A    between atoms: C_2  and  C_3 
REMARK    2  A    between atoms: C_3  and  O_6 
REMARK    3  A    between atoms: C_3  and  C_4 
REMARK    4  A    between atoms: C_7  and  O_6 
REMARK    5  A    between atoms: C_9  and  C_10 
REMARK    6  A    between atoms: N_15  and  C_14 
REMARK    7  A    between atoms: N_20  and  C_19 
REMARK       I    between atoms: C_22  and  N_20 
ROOT
ATOM      1  C   LIG d   1      -4.289  78.040 116.489  0.00  0.00     0.161 C 
ATOM      2  C   LIG d   1      -5.348  78.846 116.938  0.00  0.00     0.016 C 
ATOM      3  C   LIG d   1      -5.266  80.254 117.035  0.00  0.00     0.038 C 
ATOM      4  C   LIG d   1      -4.164  80.969 116.544  0.00  0.00     0.028 C 
ATOM      5  C   LIG d   1      -2.869  80.163 116.548  0.00  0.00    -0.047 C 
ATOM      6  C   LIG d   1      -3.118  78.810 115.844  0.00  0.00     0.091 C 
ENDROOT
BRANCH   1   7
ATOM      7  O   LIG d   1      -4.788  77.037 115.583  0.00  0.00    -0.368 OA
BRANCH   7   8
ATOM      8  C   LIG d   1      -5.127  75.757 116.172  0.00  0.00     0.119 C 
BRANCH   8   9
ATOM      9  C   LIG d   1      -3.874  74.863 116.088  0.00  0.00     0.028 C 
ATOM     10  C   LIG d   1      -3.268  74.572 117.471  0.00  0.00     0.006 C 
ENDBRANCH   8   9
BRANCH   8  11
ATOM     11  C   LIG d   1      -6.197  75.032 115.351  0.00  0.00     0.028 C 
ATOM     12  C   LIG d   1      -7.138  74.180 116.219  0.00  0.00     0.006 C 
ENDBRANCH   8  11
ENDBRANCH   7   8
ENDBRANCH   1   7
BRANCH   6  13
ATOM     13  N   LIG d   1      -1.924  77.925 115.879  0.00  0.00    -0.311 N 
ATOM     14  C   LIG d   1      -1.459  77.279 114.811  0.00  0.00     0.210 C 
ATOM     15  C   LIG d   1      -0.229  76.404 115.069  0.00  0.00     0.109 C 
ATOM     16  O   LIG d   1      -1.929  77.373 113.667  0.00  0.00    -0.276 OA
ATOM     17  H   LIG d   1      -1.462  77.817 116.760  0.00  0.00     0.149 HD
ENDBRANCH   6  13
BRANCH   5  18
ATOM     18  N   LIG d   1      -1.835  80.979 115.885  0.00  0.00     0.381 N 
ATOM     19  H   LIG d   1      -0.929  80.599 116.077  0.00  0.00    -0.090 HD
ATOM     20  H   LIG d   1      -1.870  81.913 116.254  0.00  0.00    -0.090 HD
ATOM     21  H   LIG d   1      -1.993  80.997 114.901  0.00  0.00    -0.090 HD
ENDBRANCH   5  18
BRANCH   3  22
ATOM     22  C   LIG d   1      -6.280  80.959 117.666  0.00  0.00     0.382 C 
ATOM     23  O   LIG d   1      -6.151  81.304 118.866  0.00  0.00    -0.241 OA
ATOM     24  O   LIG d   1      -7.340  81.216 117.065  0.00  0.00    -0.241 OA
ENDBRANCH   3  22
TORSDOF 7
ENDMDL
MODEL 7
REMARK VINA RESULT:      -4.4      3.616      7.507
REMARK  7 active torsions:
REMARK  status: ('A' for Active; 'I' for Inactive)
REMARK    1  A    between atoms: C_2  and  C_3 
REMARK    2  A    between atoms: C_3  and  O_6 
REMARK    3  A    between atoms: C_3  and  C_4 
REMARK    4  A    between atoms: C_7  and  O_6 
REMARK    5  A    between atoms: C_9  and  C_10 
REMARK    6  A    between atoms: N_15  and  C_14 
REMARK    7  A    between atoms: N_20  and  C_19 
REMARK       I    between atoms: C_22  and  N_20 
ROOT
ATOM      1  C   LIG d   1      -5.880  78.684 117.573  0.00  0.00     0.161 C 
ATOM      2  C   LIG d   1      -7.105  78.039 117.810  0.00  0.00     0.016 C 
ATOM      3  C   LIG d   1      -8.301  78.728 118.116  0.00  0.00     0.038 C 
ATOM      4  C   LIG d   1      -8.387  80.127 118.055  0.00  0.00     0.028 C 
ATOM      5  C   LIG d   1      -7.058  80.827 118.315  0.00  0.00    -0.047 C 
ATOM      6  C   LIG d   1      -5.979  80.214 117.394  0.00  0.00     0.091 C 
ENDROOT
BRANCH   1   7
ATOM      7  O   LIG d   1      -5.225  78.088 116.436  0.00  0.00    -0.368 OA
BRANCH   7   8
ATOM      8  C   LIG d   1      -4.096  77.228 116.729  0.00  0.00     0.119 C 
BRANCH   8   9
ATOM      9  C   LIG d   1      -2.826  77.948 116.238  0.00  0.00     0.028 C 
ATOM     10  C   LIG d   1      -2.723  77.975 114.704  0.00  0.00     0.006 C 
ENDBRANCH   8   9
BRANCH   8  11
ATOM     11  C   LIG d   1      -4.163  75.927 115.923  0.00  0.00     0.028 C 
ATOM     12  C   LIG d   1      -4.124  74.673 116.811  0.00  0.00     0.006 C 
ENDBRANCH   8  11
ENDBRANCH   7   8
ENDBRANCH   1   7
BRANCH   6  13
ATOM     13  N   LIG d   1      -4.629  80.784 117.643  0.00  0.00    -0.311 N 
ATOM     14  C   LIG d   1      -3.941  81.467 116.730  0.00  0.00     0.210 C 
ATOM     15  C   LIG d   1      -2.561  81.950 117.187  0.00  0.00     0.109 C 
ATOM     16  O   LIG d   1      -4.356  81.746 115.595  0.00  0.00    -0.276 OA
ATOM     17  H   LIG d   1      -4.230  80.631 118.549  0.00  0.00     0.149 HD
ENDBRANCH   6  13
BRANCH   5  18
ATOM     18  N   LIG d   1      -7.261  82.270 118.086  0.00  0.00     0.381 N 
ATOM     19  H   LIG d   1      -7.199  82.470 117.108  0.00  0.00    -0.090 HD
ATOM     20  H   LIG d   1      -6.536  82.780 118.559  0.00  0.00    -0.090 HD
ATOM     21  H   LIG d   1      -8.153  82.548 118.433  0.00  0.00    -0.090 HD
ENDBRANCH   5  18
BRANCH   3  22
ATOM     22  C   LIG d   1      -9.419  78.016 118.525  0.00  0.00     0.382 C 
ATOM     23  O   LIG d   1     -10.059  78.384 119.539  0.00  0.00    -0.241 OA
ATOM     24  O   LIG d   1      -9.768  76.986 117.919  0.00  0.00    -0.241 OA
ENDBRANCH   3  22
TORSDOF 7
ENDMDL
MODEL 8
REMARK VINA RESULT:      -4.4      4.669      6.886
REMARK  7 active torsions:
REMARK  status: ('A' for Active; 'I' for Inactive)
REMARK    1  A    between atoms: C_2  and  C_3 
REMARK    2  A    between atoms: C_3  and  O_6 
REMARK    3  A    between atoms: C_3  and  C_4 
REMARK    4  A    between atoms: C_7  and  O_6 
REMARK    5  A    between atoms: C_9  and  C_10 
REMARK    6  A    between atoms: N_15  and  C_14 
REMARK    7  A    between atoms: N_20  and  C_19 
REMARK       I    between atoms: C_22  and  N_20 
ROOT
ATOM      1  C   LIG d   1      -5.799  77.557 117.014  0.00  0.00     0.161 C 
ATOM      2  C   LIG d   1      -5.095  78.772 116.986  0.00  0.00     0.016 C 
ATOM      3  C   LIG d   1      -5.615  79.985 117.494  0.00  0.00     0.038 C 
ATOM      4  C   LIG d   1      -6.823  80.033 118.206  0.00  0.00     0.028 C 
ATOM      5  C   LIG d   1      -7.800  78.928 117.817  0.00  0.00    -0.047 C 
ATOM      6  C   LIG d   1      -7.072  77.567 117.887  0.00  0.00     0.091 C 
ENDROOT
BRANCH   1   7
ATOM      7  O   LIG d   1      -4.919  76.492 117.424  0.00  0.00    -0.368 OA
BRANCH   7   8
ATOM      8  C   LIG d   1      -4.975  75.279 116.633  0.00  0.00     0.119 C 
BRANCH   8   9
ATOM      9  C   LIG d   1      -3.708  74.461 116.950  0.00  0.00     0.028 C 
ATOM     10  C   LIG d   1      -2.555  74.767 115.979  0.00  0.00     0.006 C 
ENDBRANCH   8   9
BRANCH   8  11
ATOM     11  C   LIG d   1      -4.897  75.585 115.135  0.00  0.00     0.028 C 
ATOM     12  C   LIG d   1      -6.144  75.123 114.366  0.00  0.00     0.006 C 
ENDBRANCH   8  11
ENDBRANCH   7   8
ENDBRANCH   1   7
BRANCH   6  13
ATOM     13  N   LIG d   1      -7.932  76.440 117.440  0.00  0.00    -0.311 N 
ATOM     14  C   LIG d   1      -8.270  75.419 118.226  0.00  0.00     0.210 C 
ATOM     15  C   LIG d   1      -9.148  74.355 117.561  0.00  0.00     0.109 C 
ATOM     16  O   LIG d   1      -7.953  75.311 119.420  0.00  0.00    -0.276 OA
ATOM     17  H   LIG d   1      -8.260  76.464 116.494  0.00  0.00     0.149 HD
ENDBRANCH   6  13
BRANCH   5  18
ATOM     18  N   LIG d   1      -8.955  79.013 118.730  0.00  0.00     0.381 N 
ATOM     19  H   LIG d   1      -9.113  78.124 119.161  0.00  0.00    -0.090 HD
ATOM     20  H   LIG d   1      -9.773  79.255 118.198  0.00  0.00    -0.090 HD
ATOM     21  H   LIG d   1      -8.788  79.704 119.428  0.00  0.00    -0.090 HD
ENDBRANCH   5  18
BRANCH   3  22
ATOM     22  C   LIG d   1      -4.943  81.174 117.256  0.00  0.00     0.382 C 
ATOM     23  O   LIG d   1      -4.698  81.956 118.206  0.00  0.00    -0.241 OA
ATOM     24  O   LIG d   1      -4.618  81.495 116.097  0.00  0.00    -0.241 OA
ENDBRANCH   3  22
TORSDOF 7
ENDMDL
MODEL 9
REMARK VINA RESULT:      -4.3      1.748      2.332
REMARK  7 active torsions:
REMARK  status: ('A' for Active; 'I' for Inactive)
REMARK    1  A    between atoms: C_2  and  C_3 
REMARK    2  A    between atoms: C_3  and  O_6 
REMARK    3  A    between atoms: C_3  and  C_4 
REMARK    4  A    between atoms: C_7  and  O_6 
REMARK    5  A    between atoms: C_9  and  C_10 
REMARK    6  A    between atoms: N_15  and  C_14 
REMARK    7  A    between atoms: N_20  and  C_19 
REMARK       I    between atoms: C_22  and  N_20 
ROOT
ATOM      1  C   LIG d   1      -1.144  80.482 114.802  0.00  0.00     0.161 C 
ATOM      2  C   LIG d   1      -1.006  81.653 114.038  0.00  0.00     0.016 C 
ATOM      3  C   LIG d   1      -1.309  81.722 112.659  0.00  0.00     0.038 C 
ATOM      4  C   LIG d   1      -1.917  80.656 111.979  0.00  0.00     0.028 C 
ATOM      5  C   LIG d   1      -1.607  79.293 112.588  0.00  0.00    -0.047 C 
ATOM      6  C   LIG d   1      -1.910  79.340 114.103  0.00  0.00     0.091 C 
ENDROOT
BRANCH   1   7
ATOM      7  O   LIG d   1      -1.755  80.794 116.069  0.00  0.00    -0.368 OA
BRANCH   7   8
ATOM      8  C   LIG d   1      -0.873  81.322 117.090  0.00  0.00     0.119 C 
BRANCH   8   9
ATOM      9  C   LIG d   1      -0.982  80.399 118.319  0.00  0.00     0.028 C 
ATOM     10  C   LIG d   1      -0.281  79.047 118.101  0.00  0.00     0.006 C 
ENDBRANCH   8   9
BRANCH   8  11
ATOM     11  C   LIG d   1      -1.341  82.698 117.574  0.00  0.00     0.028 C 
ATOM     12  C   LIG d   1      -0.366  83.825 117.198  0.00  0.00     0.006 C 
ENDBRANCH   8  11
ENDBRANCH   7   8
ENDBRANCH   1   7
BRANCH   6  13
ATOM     13  N   LIG d   1      -1.555  78.072 114.792  0.00  0.00    -0.311 N 
ATOM     14  C   LIG d   1      -2.382  77.032 114.886  0.00  0.00     0.210 C 
ATOM     15  C   LIG d   1      -1.824  75.830 115.655  0.00  0.00     0.109 C 
ATOM     16  O   LIG d   1      -3.512  76.979 114.378  0.00  0.00    -0.276 OA
ATOM     17  H   LIG d   1      -0.645  78.017 115.205  0.00  0.00     0.149 HD
ENDBRANCH   6  13
BRANCH   5  18
ATOM     18  N   LIG d   1      -2.412  78.289 111.867  0.00  0.00     0.381 N 
ATOM     19  H   LIG d   1      -3.009  78.745 111.206  0.00  0.00    -0.090 HD
ATOM     20  H   LIG d   1      -2.990  77.800 112.529  0.00  0.00    -0.090 HD
ATOM     21  H   LIG d   1      -1.814  77.646 111.398  0.00  0.00    -0.090 HD
ENDBRANCH   5  18
BRANCH   3  22
ATOM     22  C   LIG d   1      -0.966  82.854 111.936  0.00  0.00     0.382 C 
ATOM     23  O   LIG d   1      -0.586  82.747 110.745  0.00  0.00    -0.241 OA
ATOM     24  O   LIG d   1      -0.989  83.978 112.473  0.00  0.00    -0.241 OA
ENDBRANCH   3  22
TORSDOF 7
ENDMDL
