MODEL 1
REMARK VINA RESULT:      -4.9      0.000      0.000
REMARK  7 active torsions:
REMARK  status: ('A' for Active; 'I' for Inactive)
REMARK    1  A    between atoms: C_2  and  C_3 
REMARK    2  A    between atoms: C_3  and  O_6 
REMARK    3  A    between atoms: C_3  and  C_4 
REMARK    4  A    between atoms: C_7  and  O_6 
REMARK    5  A    between atoms: C_9  and  C_10 
REMARK    6  A    between atoms: N_15  and  C_14 
REMARK    7  A    between atoms: N_20  and  C_19 
REMARK       I    between atoms: C_22  and  N_20 
ROOT
ATOM      1  C   LIG d   1      -6.421  77.198 117.060  0.00  0.00     0.161 C 
ATOM      2  C   LIG d   1      -7.326  76.176 117.392  0.00  0.00     0.016 C 
ATOM      3  C   LIG d   1      -8.479  76.385 118.182  0.00  0.00     0.038 C 
ATOM      4  C   LIG d   1      -8.890  77.669 118.571  0.00  0.00     0.028 C 
ATOM      5  C   LIG d   1      -7.739  78.663 118.686  0.00  0.00    -0.047 C 
ATOM      6  C   LIG d   1      -6.911  78.625 117.381  0.00  0.00     0.091 C 
ENDROOT
BRANCH   1   7
ATOM      7  O   LIG d   1      -6.057  77.095 115.669  0.00  0.00    -0.368 OA
BRANCH   7   8
ATOM      8  C   LIG d   1      -5.436  75.850 115.264  0.00  0.00     0.119 C 
BRANCH   8   9
ATOM      9  C   LIG d   1      -3.925  75.975 115.539  0.00  0.00     0.028 C 
ATOM     10  C   LIG d   1      -3.410  74.885 116.494  0.00  0.00     0.006 C 
ENDBRANCH   8   9
BRANCH   8  11
ATOM     11  C   LIG d   1      -5.556  75.634 113.752  0.00  0.00     0.028 C 
ATOM     12  C   LIG d   1      -5.281  74.181 113.334  0.00  0.00     0.006 C 
ENDBRANCH   8  11
ENDBRANCH   7   8
ENDBRANCH   1   7
BRANCH   6  13
ATOM     13  N   LIG d   1      -5.717  79.508 117.442  0.00  0.00    -0.311 N 
ATOM     14  C   LIG d   1      -5.724  80.780 117.047  0.00  0.00     0.210 C 
ATOM     15  C   LIG d   1      -4.381  81.505 117.176  0.00  0.00     0.109 C 
ATOM     16  O   LIG d   1      -6.723  81.385 116.631  0.00  0.00    -0.276 OA
ATOM     17  H   LIG d   1      -4.871  79.107 117.796  0.00  0.00     0.149 HD
ENDBRANCH   6  13
BRANCH   5  18
ATOM     18  N   LIG d   1      -8.323  79.990 118.962  0.00  0.00     0.381 N 
ATOM     19  H   LIG d   1      -8.974  79.922 119.719  0.00  0.00    -0.090 HD
ATOM     20  H   LIG d   1      -8.819  80.303 118.146  0.00  0.00    -0.090 HD
ATOM     21  H   LIG d   1      -7.602  80.638 119.191  0.00  0.00    -0.090 HD
ENDBRANCH   5  18
BRANCH   3  22
ATOM     22  C   LIG d   1      -9.214  75.296 118.626  0.00  0.00     0.382 C 
ATOM     23  O   LIG d   1      -9.084  74.181 118.066  0.00  0.00    -0.241 OA
ATOM     24  O   LIG d   1     -10.039  75.425 119.551  0.00  0.00    -0.241 OA
ENDBRANCH   3  22
TORSDOF 7
ENDMDL
MODEL 2
REMARK VINA RESULT:      -4.8      4.465      8.517
REMARK  7 active torsions:
REMARK  status: ('A' for Active; 'I' for Inactive)
REMARK    1  A    between atoms: C_2  and  C_3 
REMARK    2  A    between atoms: C_3  and  O_6 
REMARK    3  A    between atoms: C_3  and  C_4 
REMARK    4  A    between atoms: C_7  and  O_6 
REMARK    5  A    between atoms: C_9  and  C_10 
REMARK    6  A    between atoms: N_15  and  C_14 
REMARK    7  A    between atoms: N_20  and  C_19 
REMARK       I    between atoms: C_22  and  N_20 
ROOT
ATOM      1  C   LIG d   1      -2.787  80.953 114.531  0.00  0.00     0.161 C 
ATOM      2  C   LIG d   1      -2.436  82.034 113.705  0.00  0.00     0.016 C 
ATOM      3  C   LIG d   1      -1.795  81.882 112.454  0.00  0.00     0.038 C 
ATOM      4  C   LIG d   1      -1.597  80.622 111.871  0.00  0.00     0.028 C 
ATOM      5  C   LIG d   1      -1.478  79.495 112.891  0.00  0.00    -0.047 C 
ATOM      6  C   LIG d   1      -2.679  79.567 113.861  0.00  0.00     0.091 C 
ENDROOT
BRANCH   1   7
ATOM      7  O   LIG d   1      -4.113  81.153 115.059  0.00  0.00    -0.368 OA
BRANCH   7   8
ATOM      8  C   LIG d   1      -4.197  81.867 116.317  0.00  0.00     0.119 C 
BRANCH   8   9
ATOM      9  C   LIG d   1      -2.995  81.432 117.177  0.00  0.00     0.028 C 
ATOM     10  C   LIG d   1      -2.320  82.619 117.886  0.00  0.00     0.006 C 
ENDBRANCH   8   9
BRANCH   8  11
ATOM     11  C   LIG d   1      -5.437  81.450 117.113  0.00  0.00     0.028 C 
ATOM     12  C   LIG d   1      -5.719  79.942 117.030  0.00  0.00     0.006 C 
ENDBRANCH   8  11
ENDBRANCH   7   8
ENDBRANCH   1   7
BRANCH   6  13
ATOM     13  N   LIG d   1      -2.596  78.551 114.942  0.00  0.00    -0.311 N 
ATOM     14  C   LIG d   1      -3.234  77.382 114.901  0.00  0.00     0.210 C 
ATOM     15  C   LIG d   1      -3.029  76.489 116.128  0.00  0.00     0.109 C 
ATOM     16  O   LIG d   1      -3.925  76.987 113.949  0.00  0.00    -0.276 OA
ATOM     17  H   LIG d   1      -2.032  78.777 115.738  0.00  0.00     0.149 HD
ENDBRANCH   6  13
BRANCH   5  18
ATOM     18  N   LIG d   1      -1.413  78.224 112.145  0.00  0.00     0.381 N 
ATOM     19  H   LIG d   1      -2.272  77.722 112.256  0.00  0.00    -0.090 HD
ATOM     20  H   LIG d   1      -0.669  77.663 112.522  0.00  0.00    -0.090 HD
ATOM     21  H   LIG d   1      -1.248  78.403 111.179  0.00  0.00    -0.090 HD
ENDBRANCH   5  18
BRANCH   3  22
ATOM     22  C   LIG d   1      -1.309  82.999 111.791  0.00  0.00     0.382 C 
ATOM     23  O   LIG d   1      -1.075  84.054 112.427  0.00  0.00    -0.241 OA
ATOM     24  O   LIG d   1      -1.144  82.978 110.556  0.00  0.00    -0.241 OA
ENDBRANCH   3  22
TORSDOF 7
ENDMDL
MODEL 3
REMARK VINA RESULT:      -4.8      1.409      1.780
REMARK  7 active torsions:
REMARK  status: ('A' for Active; 'I' for Inactive)
REMARK    1  A    between atoms: C_2  and  C_3 
REMARK    2  A    between atoms: C_3  and  O_6 
REMARK    3  A    between atoms: C_3  and  C_4 
REMARK    4  A    between atoms: C_7  and  O_6 
REMARK    5  A    between atoms: C_9  and  C_10 
REMARK    6  A    between atoms: N_15  and  C_14 
REMARK    7  A    between atoms: N_20  and  C_19 
REMARK       I    between atoms: C_22  and  N_20 
ROOT
ATOM      1  C   LIG d   1      -6.043  78.052 117.012  0.00  0.00     0.161 C 
ATOM      2  C   LIG d   1      -7.269  77.473 117.381  0.00  0.00     0.016 C 
ATOM      3  C   LIG d   1      -8.351  78.214 117.909  0.00  0.00     0.038 C 
ATOM      4  C   LIG d   1      -8.334  79.616 117.962  0.00  0.00     0.028 C 
ATOM      5  C   LIG d   1      -6.930  80.201 118.072  0.00  0.00    -0.047 C 
ATOM      6  C   LIG d   1      -6.045  79.594 116.959  0.00  0.00     0.091 C 
ENDROOT
BRANCH   1   7
ATOM      7  O   LIG d   1      -5.606  77.508 115.750  0.00  0.00    -0.368 OA
BRANCH   7   8
ATOM      8  C   LIG d   1      -5.826  76.089 115.557  0.00  0.00     0.119 C 
BRANCH   8   9
ATOM      9  C   LIG d   1      -4.479  75.376 115.783  0.00  0.00     0.028 C 
ATOM     10  C   LIG d   1      -4.419  74.652 117.139  0.00  0.00     0.006 C 
ENDBRANCH   8   9
BRANCH   8  11
ATOM     11  C   LIG d   1      -6.212  75.778 114.108  0.00  0.00     0.028 C 
ATOM     12  C   LIG d   1      -5.255  74.778 113.439  0.00  0.00     0.006 C 
ENDBRANCH   8  11
ENDBRANCH   7   8
ENDBRANCH   1   7
BRANCH   6  13
ATOM     13  N   LIG d   1      -4.633  80.049 117.047  0.00  0.00    -0.311 N 
ATOM     14  C   LIG d   1      -4.182  81.157 116.462  0.00  0.00     0.210 C 
ATOM     15  C   LIG d   1      -2.688  81.432 116.661  0.00  0.00     0.109 C 
ATOM     16  O   LIG d   1      -4.885  81.956 115.824  0.00  0.00    -0.276 OA
ATOM     17  H   LIG d   1      -4.001  79.477 117.571  0.00  0.00     0.149 HD
ENDBRANCH   6  13
BRANCH   5  18
ATOM     18  N   LIG d   1      -7.050  81.668 117.980  0.00  0.00     0.381 N 
ATOM     19  H   LIG d   1      -6.147  82.073 117.828  0.00  0.00    -0.090 HD
ATOM     20  H   LIG d   1      -7.411  82.020 118.849  0.00  0.00    -0.090 HD
ATOM     21  H   LIG d   1      -7.662  81.914 117.233  0.00  0.00    -0.090 HD
ENDBRANCH   5  18
BRANCH   3  22
ATOM     22  C   LIG d   1      -9.451  77.549 118.427  0.00  0.00     0.382 C 
ATOM     23  O   LIG d   1     -10.059  78.019 119.419  0.00  0.00    -0.241 OA
ATOM     24  O   LIG d   1      -9.818  76.461 117.942  0.00  0.00    -0.241 OA
ENDBRANCH   3  22
TORSDOF 7
ENDMDL
MODEL 4
REMARK VINA RESULT:      -4.8      4.781      7.196
REMARK  7 active torsions:
REMARK  status: ('A' for Active; 'I' for Inactive)
REMARK    1  A    between atoms: C_2  and  C_3 
REMARK    2  A    between atoms: C_3  and  O_6 
REMARK    3  A    between atoms: C_3  and  C_4 
REMARK    4  A    between atoms: C_7  and  O_6 
REMARK    5  A    between atoms: C_9  and  C_10 
REMARK    6  A    between atoms: N_15  and  C_14 
REMARK    7  A    between atoms: N_20  and  C_19 
REMARK       I    between atoms: C_22  and  N_20 
ROOT
ATOM      1  C   LIG d   1      -2.914  76.770 114.337  0.00  0.00     0.161 C 
ATOM      2  C   LIG d   1      -3.087  77.732 113.329  0.00  0.00     0.016 C 
ATOM      3  C   LIG d   1      -2.243  78.857 113.174  0.00  0.00     0.038 C 
ATOM      4  C   LIG d   1      -1.072  79.014 113.929  0.00  0.00     0.028 C 
ATOM      5  C   LIG d   1      -1.134  78.334 115.293  0.00  0.00    -0.047 C 
ATOM      6  C   LIG d   1      -1.577  76.866 115.101  0.00  0.00     0.091 C 
ENDROOT
BRANCH   1   7
ATOM      7  O   LIG d   1      -3.082  75.449 113.785  0.00  0.00    -0.368 OA
BRANCH   7   8
ATOM      8  C   LIG d   1      -4.190  74.676 114.308  0.00  0.00     0.119 C 
BRANCH   8   9
ATOM      9  C   LIG d   1      -5.200  74.479 113.161  0.00  0.00     0.028 C 
ATOM     10  C   LIG d   1      -6.115  75.701 112.969  0.00  0.00     0.006 C 
ENDBRANCH   8   9
BRANCH   8  11
ATOM     11  C   LIG d   1      -4.950  75.451 115.389  0.00  0.00     0.028 C 
ATOM     12  C   LIG d   1      -5.174  74.627 116.667  0.00  0.00     0.006 C 
ENDBRANCH   8  11
ENDBRANCH   7   8
ENDBRANCH   1   7
BRANCH   6  13
ATOM     13  N   LIG d   1      -1.745  76.151 116.393  0.00  0.00    -0.311 N 
ATOM     14  C   LIG d   1      -1.370  74.887 116.586  0.00  0.00     0.210 C 
ATOM     15  C   LIG d   1      -1.652  74.336 117.987  0.00  0.00     0.109 C 
ATOM     16  O   LIG d   1      -0.803  74.181 115.739  0.00  0.00    -0.276 OA
ATOM     17  H   LIG d   1      -2.169  76.659 117.144  0.00  0.00     0.149 HD
ENDBRANCH   6  13
BRANCH   5  18
ATOM     18  N   LIG d   1       0.197  78.460 115.915  0.00  0.00     0.381 N 
ATOM     19  H   LIG d   1       0.782  77.704 115.619  0.00  0.00    -0.090 HD
ATOM     20  H   LIG d   1       0.096  78.409 116.913  0.00  0.00    -0.090 HD
ATOM     21  H   LIG d   1       0.612  79.330 115.660  0.00  0.00    -0.090 HD
ENDBRANCH   5  18
BRANCH   3  22
ATOM     22  C   LIG d   1      -2.591  79.859 112.281  0.00  0.00     0.382 C 
ATOM     23  O   LIG d   1      -2.013  79.937 111.170  0.00  0.00    -0.241 OA
ATOM     24  O   LIG d   1      -3.445  80.712 112.590  0.00  0.00    -0.241 OA
ENDBRANCH   3  22
TORSDOF 7
ENDMDL
MODEL 5
REMARK VINA RESULT:      -4.8      4.419      8.434
REMARK  7 active torsions:
REMARK  status: ('A' for Active; 'I' for Inactive)
REMARK    1  A    between atoms: C_2  and  C_3 
REMARK    2  A    between atoms: C_3  and  O_6 
REMARK    3  A    between atoms: C_3  and  C_4 
REMARK    4  A    between atoms: C_7  and  O_6 
REMARK    5  A    between atoms: C_9  and  C_10 
REMARK    6  A    between atoms: N_15  and  C_14 
REMARK    7  A    between atoms: N_20  and  C_19 
REMARK       I    between atoms: C_22  and  N_20 
ROOT
ATOM      1  C   LIG d   1      -2.770  80.628 114.666  0.00  0.00     0.161 C 
ATOM      2  C   LIG d   1      -2.474  81.948 114.285  0.00  0.00     0.016 C 
ATOM      3  C   LIG d   1      -1.831  82.283 113.072  0.00  0.00     0.038 C 
ATOM      4  C   LIG d   1      -1.572  81.324 112.081  0.00  0.00     0.028 C 
ATOM      5  C   LIG d   1      -1.395  79.914 112.634  0.00  0.00    -0.047 C 
ATOM      6  C   LIG d   1      -2.595  79.579 113.548  0.00  0.00     0.091 C 
ENDROOT
BRANCH   1   7
ATOM      7  O   LIG d   1      -4.102  80.563 115.211  0.00  0.00    -0.368 OA
BRANCH   7   8
ATOM      8  C   LIG d   1      -4.207  80.661 116.653  0.00  0.00     0.119 C 
BRANCH   8   9
ATOM      9  C   LIG d   1      -4.215  79.225 117.214  0.00  0.00     0.028 C 
ATOM     10  C   LIG d   1      -5.270  78.336 116.535  0.00  0.00     0.006 C 
ENDBRANCH   8   9
BRANCH   8  11
ATOM     11  C   LIG d   1      -5.547  81.269 117.075  0.00  0.00     0.028 C 
ATOM     12  C   LIG d   1      -5.685  81.408 118.599  0.00  0.00     0.006 C 
ENDBRANCH   8  11
ENDBRANCH   7   8
ENDBRANCH   1   7
BRANCH   6  13
ATOM     13  N   LIG d   1      -2.460  78.249 114.197  0.00  0.00    -0.311 N 
ATOM     14  C   LIG d   1      -3.035  77.142 113.729  0.00  0.00     0.210 C 
ATOM     15  C   LIG d   1      -2.784  75.881 114.561  0.00  0.00     0.109 C 
ATOM     16  O   LIG d   1      -3.704  77.080 112.686  0.00  0.00    -0.276 OA
ATOM     17  H   LIG d   1      -1.909  78.203 115.032  0.00  0.00     0.149 HD
ENDBRANCH   6  13
BRANCH   5  18
ATOM     18  N   LIG d   1      -1.270  78.997 111.485  0.00  0.00     0.381 N 
ATOM     19  H   LIG d   1      -1.201  78.054 111.810  0.00  0.00    -0.090 HD
ATOM     20  H   LIG d   1      -0.429  79.219 110.982  0.00  0.00    -0.090 HD
ATOM     21  H   LIG d   1      -2.059  79.093 110.885  0.00  0.00    -0.090 HD
ENDBRANCH   5  18
BRANCH   3  22
ATOM     22  C   LIG d   1      -1.402  83.584 112.857  0.00  0.00     0.382 C 
ATOM     23  O   LIG d   1      -1.277  84.370 113.827  0.00  0.00    -0.241 OA
ATOM     24  O   LIG d   1      -1.182  83.994 111.702  0.00  0.00    -0.241 OA
ENDBRANCH   3  22
TORSDOF 7
ENDMDL
MODEL 6
REMARK VINA RESULT:      -4.6      3.180      6.425
REMARK  7 active torsions:
REMARK  status: ('A' for Active; 'I' for Inactive)
REMARK    1  A    between atoms: C_2  and  C_3 
REMARK    2  A    between atoms: C_3  and  O_6 
REMARK    3  A    between atoms: C_3  and  C_4 
REMARK    4  A    between atoms: C_7  and  O_6 
REMARK    5  A    between atoms: C_9  and  C_10 
REMARK    6  A    between atoms: N_15  and  C_14 
REMARK    7  A    between atoms: N_20  and  C_19 
REMARK       I    between atoms: C_22  and  N_20 
ROOT
ATOM      1  C   LIG d   1      -4.066  78.054 116.114  0.00  0.00     0.161 C 
ATOM      2  C   LIG d   1      -4.395  79.416 116.224  0.00  0.00     0.016 C 
ATOM      3  C   LIG d   1      -3.537  80.459 115.807  0.00  0.00     0.038 C 
ATOM      4  C   LIG d   1      -2.347  80.206 115.108  0.00  0.00     0.028 C 
ATOM      5  C   LIG d   1      -1.736  78.845 115.425  0.00  0.00    -0.047 C 
ATOM      6  C   LIG d   1      -2.820  77.757 115.253  0.00  0.00     0.091 C 
ENDROOT
BRANCH   1   7
ATOM      7  O   LIG d   1      -5.202  77.315 115.623  0.00  0.00    -0.368 OA
BRANCH   7   8
ATOM      8  C   LIG d   1      -5.798  76.374 116.549  0.00  0.00     0.119 C 
BRANCH   8   9
ATOM      9  C   LIG d   1      -6.103  75.083 115.764  0.00  0.00     0.028 C 
ATOM     10  C   LIG d   1      -5.903  75.256 114.250  0.00  0.00     0.006 C 
ENDBRANCH   8   9
BRANCH   8  11
ATOM     11  C   LIG d   1      -7.156  76.872 117.053  0.00  0.00     0.028 C 
ATOM     12  C   LIG d   1      -8.000  75.758 117.692  0.00  0.00     0.006 C 
ENDBRANCH   8  11
ENDBRANCH   7   8
ENDBRANCH   1   7
BRANCH   6  13
ATOM     13  N   LIG d   1      -2.329  76.404 115.625  0.00  0.00    -0.311 N 
ATOM     14  C   LIG d   1      -1.866  75.524 114.739  0.00  0.00     0.210 C 
ATOM     15  C   LIG d   1      -1.429  74.180 115.331  0.00  0.00     0.109 C 
ATOM     16  O   LIG d   1      -1.746  75.739 113.524  0.00  0.00    -0.276 OA
ATOM     17  H   LIG d   1      -2.362  76.158 116.595  0.00  0.00     0.149 HD
ENDBRANCH   6  13
BRANCH   5  18
ATOM     18  N   LIG d   1      -0.580  78.656 114.528  0.00  0.00     0.381 N 
ATOM     19  H   LIG d   1      -0.884  78.257 113.663  0.00  0.00    -0.090 HD
ATOM     20  H   LIG d   1       0.065  78.018 114.960  0.00  0.00    -0.090 HD
ATOM     21  H   LIG d   1      -0.133  79.530 114.360  0.00  0.00    -0.090 HD
ENDBRANCH   5  18
BRANCH   3  22
ATOM     22  C   LIG d   1      -3.848  81.773 116.124  0.00  0.00     0.382 C 
ATOM     23  O   LIG d   1      -4.991  82.224 115.873  0.00  0.00    -0.241 OA
ATOM     24  O   LIG d   1      -2.986  82.525 116.618  0.00  0.00    -0.241 OA
ENDBRANCH   3  22
TORSDOF 7
ENDMDL
MODEL 7
REMARK VINA RESULT:      -4.6      2.682      4.893
REMARK  7 active torsions:
REMARK  status: ('A' for Active; 'I' for Inactive)
REMARK    1  A    between atoms: C_2  and  C_3 
REMARK    2  A    between atoms: C_3  and  O_6 
REMARK    3  A    between atoms: C_3  and  C_4 
REMARK    4  A    between atoms: C_7  and  O_6 
REMARK    5  A    between atoms: C_9  and  C_10 
REMARK    6  A    between atoms: N_15  and  C_14 
REMARK    7  A    between atoms: N_20  and  C_19 
REMARK       I    between atoms: C_22  and  N_20 
ROOT
ATOM      1  C   LIG d   1      -4.343  77.709 115.871  0.00  0.00     0.161 C 
ATOM      2  C   LIG d   1      -4.061  76.784 114.852  0.00  0.00     0.016 C 
ATOM      3  C   LIG d   1      -4.912  75.703 114.525  0.00  0.00     0.038 C 
ATOM      4  C   LIG d   1      -6.185  75.562 115.098  0.00  0.00     0.028 C 
ATOM      5  C   LIG d   1      -6.295  76.180 116.488  0.00  0.00    -0.047 C 
ATOM      6  C   LIG d   1      -5.778  77.636 116.432  0.00  0.00     0.091 C 
ENDROOT
BRANCH   1   7
ATOM      7  O   LIG d   1      -4.051  79.044 115.413  0.00  0.00    -0.368 OA
BRANCH   7   8
ATOM      8  C   LIG d   1      -2.826  79.635 115.911  0.00  0.00     0.119 C 
BRANCH   8   9
ATOM      9  C   LIG d   1      -3.218  80.754 116.896  0.00  0.00     0.028 C 
ATOM     10  C   LIG d   1      -4.261  81.717 116.305  0.00  0.00     0.006 C 
ENDBRANCH   8   9
BRANCH   8  11
ATOM     11  C   LIG d   1      -2.050  80.335 114.791  0.00  0.00     0.028 C 
ATOM     12  C   LIG d   1      -2.533  79.932 113.389  0.00  0.00     0.006 C 
ENDBRANCH   8  11
ENDBRANCH   7   8
ENDBRANCH   1   7
BRANCH   6  13
ATOM     13  N   LIG d   1      -5.772  78.287 117.768  0.00  0.00    -0.311 N 
ATOM     14  C   LIG d   1      -6.511  79.354 118.067  0.00  0.00     0.210 C 
ATOM     15  C   LIG d   1      -6.340  79.879 119.496  0.00  0.00     0.109 C 
ATOM     16  O   LIG d   1      -7.316  79.896 117.294  0.00  0.00    -0.276 OA
ATOM     17  H   LIG d   1      -5.171  77.893 118.465  0.00  0.00     0.149 HD
ENDBRANCH   6  13
BRANCH   5  18
ATOM     18  N   LIG d   1      -7.705  76.083 116.909  0.00  0.00     0.381 N 
ATOM     19  H   LIG d   1      -8.283  76.605 116.281  0.00  0.00    -0.090 HD
ATOM     20  H   LIG d   1      -7.799  76.480 117.827  0.00  0.00    -0.090 HD
ATOM     21  H   LIG d   1      -7.992  75.129 116.921  0.00  0.00    -0.090 HD
ENDBRANCH   5  18
BRANCH   3  22
ATOM     22  C   LIG d   1      -4.475  74.727 113.643  0.00  0.00     0.382 C 
ATOM     23  O   LIG d   1      -3.259  74.420 113.599  0.00  0.00    -0.241 OA
ATOM     24  O   LIG d   1      -5.274  74.180 112.859  0.00  0.00    -0.241 OA
ENDBRANCH   3  22
TORSDOF 7
ENDMDL
MODEL 8
REMARK VINA RESULT:      -4.4      4.541      6.466
REMARK  7 active torsions:
REMARK  status: ('A' for Active; 'I' for Inactive)
REMARK    1  A    between atoms: C_2  and  C_3 
REMARK    2  A    between atoms: C_3  and  O_6 
REMARK    3  A    between atoms: C_3  and  C_4 
REMARK    4  A    between atoms: C_7  and  O_6 
REMARK    5  A    between atoms: C_9  and  C_10 
REMARK    6  A    between atoms: N_15  and  C_14 
REMARK    7  A    between atoms: N_20  and  C_19 
REMARK       I    between atoms: C_22  and  N_20 
ROOT
ATOM      1  C   LIG d   1      -2.705  77.925 114.795  0.00  0.00     0.161 C 
ATOM      2  C   LIG d   1      -2.572  78.663 113.607  0.00  0.00     0.016 C 
ATOM      3  C   LIG d   1      -2.769  80.061 113.534  0.00  0.00     0.038 C 
ATOM      4  C   LIG d   1      -2.968  80.843 114.681  0.00  0.00     0.028 C 
ATOM      5  C   LIG d   1      -3.611  80.077 115.833  0.00  0.00    -0.047 C 
ATOM      6  C   LIG d   1      -2.813  78.776 116.077  0.00  0.00     0.091 C 
ENDROOT
BRANCH   1   7
ATOM      7  O   LIG d   1      -1.621  76.982 114.909  0.00  0.00    -0.368 OA
BRANCH   7   8
ATOM      8  C   LIG d   1      -1.909  75.626 114.487  0.00  0.00     0.119 C 
BRANCH   8   9
ATOM      9  C   LIG d   1      -3.351  75.302 114.923  0.00  0.00     0.028 C 
ATOM     10  C   LIG d   1      -4.192  74.711 113.778  0.00  0.00     0.006 C 
ENDBRANCH   8   9
BRANCH   8  11
ATOM     11  C   LIG d   1      -1.026  74.614 115.224  0.00  0.00     0.028 C 
ATOM     12  C   LIG d   1      -1.616  74.180 116.575  0.00  0.00     0.006 C 
ENDBRANCH   8  11
ENDBRANCH   7   8
ENDBRANCH   1   7
BRANCH   6  13
ATOM     13  N   LIG d   1      -3.424  77.926 117.132  0.00  0.00    -0.311 N 
ATOM     14  C   LIG d   1      -2.720  77.331 118.093  0.00  0.00     0.210 C 
ATOM     15  C   LIG d   1      -3.544  76.483 119.067  0.00  0.00     0.109 C 
ATOM     16  O   LIG d   1      -1.495  77.450 118.250  0.00  0.00    -0.276 OA
ATOM     17  H   LIG d   1      -4.417  77.801 117.099  0.00  0.00     0.149 HD
ENDBRANCH   6  13
BRANCH   5  18
ATOM     18  N   LIG d   1      -3.633  80.971 117.006  0.00  0.00     0.381 N 
ATOM     19  H   LIG d   1      -4.496  81.476 117.031  0.00  0.00    -0.090 HD
ATOM     20  H   LIG d   1      -2.882  81.635 116.923  0.00  0.00    -0.090 HD
ATOM     21  H   LIG d   1      -3.526  80.440 117.842  0.00  0.00    -0.090 HD
ENDBRANCH   5  18
BRANCH   3  22
ATOM     22  C   LIG d   1      -2.809  80.685 112.296  0.00  0.00     0.382 C 
ATOM     23  O   LIG d   1      -2.107  80.250 111.352  0.00  0.00    -0.241 OA
ATOM     24  O   LIG d   1      -3.504  81.705 112.125  0.00  0.00    -0.241 OA
ENDBRANCH   3  22
TORSDOF 7
ENDMDL
MODEL 9
REMARK VINA RESULT:      -4.3      3.864      7.277
REMARK  7 active torsions:
REMARK  status: ('A' for Active; 'I' for Inactive)
REMARK    1  A    between atoms: C_2  and  C_3 
REMARK    2  A    between atoms: C_3  and  O_6 
REMARK    3  A    between atoms: C_3  and  C_4 
REMARK    4  A    between atoms: C_7  and  O_6 
REMARK    5  A    between atoms: C_9  and  C_10 
REMARK    6  A    between atoms: N_15  and  C_14 
REMARK    7  A    between atoms: N_20  and  C_19 
REMARK       I    between atoms: C_22  and  N_20 
ROOT
ATOM      1  C   LIG d   1      -2.713  79.249 116.327  0.00  0.00     0.161 C 
ATOM      2  C   LIG d   1      -3.059  80.358 115.537  0.00  0.00     0.016 C 
ATOM      3  C   LIG d   1      -2.760  80.456 114.159  0.00  0.00     0.038 C 
ATOM      4  C   LIG d   1      -2.224  79.378 113.438  0.00  0.00     0.028 C 
ATOM      5  C   LIG d   1      -1.397  78.428 114.296  0.00  0.00    -0.047 C 
ATOM      6  C   LIG d   1      -2.227  78.017 115.534  0.00  0.00     0.091 C 
ENDROOT
BRANCH   1   7
ATOM      7  O   LIG d   1      -3.818  78.891 117.180  0.00  0.00    -0.368 OA
BRANCH   7   8
ATOM      8  C   LIG d   1      -5.135  78.961 116.579  0.00  0.00     0.119 C 
BRANCH   8   9
ATOM      9  C   LIG d   1      -6.052  79.715 117.562  0.00  0.00     0.028 C 
ATOM     10  C   LIG d   1      -6.254  81.187 117.166  0.00  0.00     0.006 C 
ENDBRANCH   8   9
BRANCH   8  11
ATOM     11  C   LIG d   1      -5.755  77.569 116.432  0.00  0.00     0.028 C 
ATOM     12  C   LIG d   1      -7.067  77.414 117.218  0.00  0.00     0.006 C 
ENDBRANCH   8  11
ENDBRANCH   7   8
ENDBRANCH   1   7
BRANCH   6  13
ATOM     13  N   LIG d   1      -1.460  77.154 116.470  0.00  0.00    -0.311 N 
ATOM     14  C   LIG d   1      -1.488  75.823 116.429  0.00  0.00     0.210 C 
ATOM     15  C   LIG d   1      -0.640  75.125 117.498  0.00  0.00     0.109 C 
ATOM     16  O   LIG d   1      -2.109  75.154 115.590  0.00  0.00    -0.276 OA
ATOM     17  H   LIG d   1      -0.904  77.614 117.164  0.00  0.00     0.149 HD
ENDBRANCH   6  13
BRANCH   5  18
ATOM     18  N   LIG d   1      -1.015  77.281 113.450  0.00  0.00     0.381 N 
ATOM     19  H   LIG d   1      -0.658  77.610 112.575  0.00  0.00    -0.090 HD
ATOM     20  H   LIG d   1      -1.832  76.725 113.269  0.00  0.00    -0.090 HD
ATOM     21  H   LIG d   1      -0.325  76.731 113.912  0.00  0.00    -0.090 HD
ENDBRANCH   5  18
BRANCH   3  22
ATOM     22  C   LIG d   1      -2.962  81.657 113.496  0.00  0.00     0.382 C 
ATOM     23  O   LIG d   1      -2.522  82.725 113.986  0.00  0.00    -0.241 OA
ATOM     24  O   LIG d   1      -3.615  81.692 112.436  0.00  0.00    -0.241 OA
ENDBRANCH   3  22
TORSDOF 7
ENDMDL
