MODEL 1
REMARK VINA RESULT:      -5.5      0.000      0.000
REMARK  7 active torsions:
REMARK  status: ('A' for Active; 'I' for Inactive)
REMARK    1  A    between atoms: C_2  and  C_3 
REMARK    2  A    between atoms: C_3  and  O_6 
REMARK    3  A    between atoms: C_3  and  C_4 
REMARK    4  A    between atoms: C_7  and  O_6 
REMARK    5  A    between atoms: C_9  and  C_10 
REMARK    6  A    between atoms: N_15  and  C_14 
REMARK    7  A    between atoms: N_20  and  C_19 
REMARK       I    between atoms: C_22  and  N_20 
ROOT
ATOM      1  C   LIG d   1      -2.941  75.638 115.343  0.00  0.00     0.161 C 
ATOM      2  C   LIG d   1      -2.830  75.010 116.595  0.00  0.00     0.016 C 
ATOM      3  C   LIG d   1      -1.842  75.345 117.548  0.00  0.00     0.038 C 
ATOM      4  C   LIG d   1      -0.985  76.442 117.374  0.00  0.00     0.028 C 
ATOM      5  C   LIG d   1      -0.729  76.784 115.910  0.00  0.00    -0.047 C 
ATOM      6  C   LIG d   1      -2.086  76.912 115.180  0.00  0.00     0.091 C 
ENDROOT
BRANCH   1   7
ATOM      7  O   LIG d   1      -4.325  75.925 115.061  0.00  0.00    -0.368 OA
BRANCH   7   8
ATOM      8  C   LIG d   1      -5.272  75.583 116.104  0.00  0.00     0.119 C 
BRANCH   8   9
ATOM      9  C   LIG d   1      -6.270  74.571 115.509  0.00  0.00     0.028 C 
ATOM     10  C   LIG d   1      -7.434  74.263 116.466  0.00  0.00     0.006 C 
ENDBRANCH   8   9
BRANCH   8  11
ATOM     11  C   LIG d   1      -6.116  76.795 116.509  0.00  0.00     0.028 C 
ATOM     12  C   LIG d   1      -5.263  78.017 116.885  0.00  0.00     0.006 C 
ENDBRANCH   8  11
ENDBRANCH   7   8
ENDBRANCH   1   7
BRANCH   6  13
ATOM     13  N   LIG d   1      -1.925  77.163 113.724  0.00  0.00    -0.311 N 
ATOM     14  C   LIG d   1      -2.522  78.166 113.083  0.00  0.00     0.210 C 
ATOM     15  C   LIG d   1      -2.237  78.232 111.579  0.00  0.00     0.109 C 
ATOM     16  O   LIG d   1      -3.234  79.026 113.622  0.00  0.00    -0.276 OA
ATOM     17  H   LIG d   1      -1.339  76.531 113.215  0.00  0.00     0.149 HD
ENDBRANCH   6  13
BRANCH   5  18
ATOM     18  N   LIG d   1       0.066  78.027 115.875  0.00  0.00     0.381 N 
ATOM     19  H   LIG d   1       1.033  77.814 116.014  0.00  0.00    -0.090 HD
ATOM     20  H   LIG d   1      -0.236  78.627 116.622  0.00  0.00    -0.090 HD
ATOM     21  H   LIG d   1      -0.058  78.486 115.000  0.00  0.00    -0.090 HD
ENDBRANCH   5  18
BRANCH   3  22
ATOM     22  C   LIG d   1      -1.677  74.553 118.674  0.00  0.00     0.382 C 
ATOM     23  O   LIG d   1      -2.671  74.244 119.375  0.00  0.00    -0.241 OA
ATOM     24  O   LIG d   1      -0.541  74.180 119.024  0.00  0.00    -0.241 OA
ENDBRANCH   3  22
TORSDOF 7
ENDMDL
MODEL 2
REMARK VINA RESULT:      -4.9      3.879      6.453
REMARK  7 active torsions:
REMARK  status: ('A' for Active; 'I' for Inactive)
REMARK    1  A    between atoms: C_2  and  C_3 
REMARK    2  A    between atoms: C_3  and  O_6 
REMARK    3  A    between atoms: C_3  and  C_4 
REMARK    4  A    between atoms: C_7  and  O_6 
REMARK    5  A    between atoms: C_9  and  C_10 
REMARK    6  A    between atoms: N_15  and  C_14 
REMARK    7  A    between atoms: N_20  and  C_19 
REMARK       I    between atoms: C_22  and  N_20 
ROOT
ATOM      1  C   LIG d   1      -6.783  77.652 118.045  0.00  0.00     0.161 C 
ATOM      2  C   LIG d   1      -7.800  78.541 117.659  0.00  0.00     0.016 C 
ATOM      3  C   LIG d   1      -7.794  79.918 117.978  0.00  0.00     0.038 C 
ATOM      4  C   LIG d   1      -6.686  80.534 118.580  0.00  0.00     0.028 C 
ATOM      5  C   LIG d   1      -5.856  79.585 119.437  0.00  0.00    -0.047 C 
ATOM      6  C   LIG d   1      -5.514  78.327 118.606  0.00  0.00     0.091 C 
ENDROOT
BRANCH   1   7
ATOM      7  O   LIG d   1      -6.445  76.787 116.943  0.00  0.00    -0.368 OA
BRANCH   7   8
ATOM      8  C   LIG d   1      -6.803  75.392 117.096  0.00  0.00     0.119 C 
BRANCH   8   9
ATOM      9  C   LIG d   1      -5.917  74.578 116.132  0.00  0.00     0.028 C 
ATOM     10  C   LIG d   1      -5.746  75.269 114.769  0.00  0.00     0.006 C 
ENDBRANCH   8   9
BRANCH   8  11
ATOM     11  C   LIG d   1      -8.242  75.132 116.640  0.00  0.00     0.028 C 
ATOM     12  C   LIG d   1      -9.154  74.661 117.783  0.00  0.00     0.006 C 
ENDBRANCH   8  11
ENDBRANCH   7   8
ENDBRANCH   1   7
BRANCH   6  13
ATOM     13  N   LIG d   1      -4.774  77.309 119.397  0.00  0.00    -0.311 N 
ATOM     14  C   LIG d   1      -3.681  76.689 118.955  0.00  0.00     0.210 C 
ATOM     15  C   LIG d   1      -3.086  75.660 119.921  0.00  0.00     0.109 C 
ATOM     16  O   LIG d   1      -3.130  76.918 117.868  0.00  0.00    -0.276 OA
ATOM     17  H   LIG d   1      -5.135  77.086 120.303  0.00  0.00     0.149 HD
ENDBRANCH   6  13
BRANCH   5  18
ATOM     18  N   LIG d   1      -4.662  80.322 119.890  0.00  0.00     0.381 N 
ATOM     19  H   LIG d   1      -4.932  81.049 120.522  0.00  0.00    -0.090 HD
ATOM     20  H   LIG d   1      -4.220  80.745 119.093  0.00  0.00    -0.090 HD
ATOM     21  H   LIG d   1      -4.027  79.699 120.340  0.00  0.00    -0.090 HD
ENDBRANCH   5  18
BRANCH   3  22
ATOM     22  C   LIG d   1      -8.921  80.686 117.730  0.00  0.00     0.382 C 
ATOM     23  O   LIG d   1      -9.902  80.631 118.511  0.00  0.00    -0.241 OA
ATOM     24  O   LIG d   1      -8.987  81.401 116.712  0.00  0.00    -0.241 OA
ENDBRANCH   3  22
TORSDOF 7
ENDMDL
MODEL 3
REMARK VINA RESULT:      -4.6      2.945      5.229
REMARK  7 active torsions:
REMARK  status: ('A' for Active; 'I' for Inactive)
REMARK    1  A    between atoms: C_2  and  C_3 
REMARK    2  A    between atoms: C_3  and  O_6 
REMARK    3  A    between atoms: C_3  and  C_4 
REMARK    4  A    between atoms: C_7  and  O_6 
REMARK    5  A    between atoms: C_9  and  C_10 
REMARK    6  A    between atoms: N_15  and  C_14 
REMARK    7  A    between atoms: N_20  and  C_19 
REMARK       I    between atoms: C_22  and  N_20 
ROOT
ATOM      1  C   LIG d   1      -4.429  75.759 117.507  0.00  0.00     0.161 C 
ATOM      2  C   LIG d   1      -3.180  76.205 117.044  0.00  0.00     0.016 C 
ATOM      3  C   LIG d   1      -2.900  76.453 115.680  0.00  0.00     0.038 C 
ATOM      4  C   LIG d   1      -3.901  76.416 114.699  0.00  0.00     0.028 C 
ATOM      5  C   LIG d   1      -5.055  75.481 115.046  0.00  0.00    -0.047 C 
ATOM      6  C   LIG d   1      -5.565  75.819 116.465  0.00  0.00     0.091 C 
ENDROOT
BRANCH   1   7
ATOM      7  O   LIG d   1      -4.799  76.488 118.694  0.00  0.00    -0.368 OA
BRANCH   7   8
ATOM      8  C   LIG d   1      -4.797  77.932 118.581  0.00  0.00     0.119 C 
BRANCH   8   9
ATOM      9  C   LIG d   1      -3.912  78.485 119.715  0.00  0.00     0.028 C 
ATOM     10  C   LIG d   1      -2.892  79.520 119.212  0.00  0.00     0.006 C 
ENDBRANCH   8   9
BRANCH   8  11
ATOM     11  C   LIG d   1      -6.191  78.513 118.837  0.00  0.00     0.028 C 
ATOM     12  C   LIG d   1      -6.679  79.417 117.694  0.00  0.00     0.006 C 
ENDBRANCH   8  11
ENDBRANCH   7   8
ENDBRANCH   1   7
BRANCH   6  13
ATOM     13  N   LIG d   1      -6.639  74.896 116.917  0.00  0.00    -0.311 N 
ATOM     14  C   LIG d   1      -7.887  75.289 117.165  0.00  0.00     0.210 C 
ATOM     15  C   LIG d   1      -8.832  74.180 117.639  0.00  0.00     0.109 C 
ATOM     16  O   LIG d   1      -8.310  76.444 117.007  0.00  0.00    -0.276 OA
ATOM     17  H   LIG d   1      -6.391  73.934 117.041  0.00  0.00     0.149 HD
ENDBRANCH   6  13
BRANCH   5  18
ATOM     18  N   LIG d   1      -6.089  75.644 114.006  0.00  0.00     0.381 N 
ATOM     19  H   LIG d   1      -5.837  75.118 113.193  0.00  0.00    -0.090 HD
ATOM     20  H   LIG d   1      -6.143  76.614 113.750  0.00  0.00    -0.090 HD
ATOM     21  H   LIG d   1      -6.971  75.334 114.351  0.00  0.00    -0.090 HD
ENDBRANCH   5  18
BRANCH   3  22
ATOM     22  C   LIG d   1      -1.596  76.704 115.281  0.00  0.00     0.382 C 
ATOM     23  O   LIG d   1      -0.923  77.591 115.859  0.00  0.00    -0.241 OA
ATOM     24  O   LIG d   1      -1.099  76.084 114.322  0.00  0.00    -0.241 OA
ENDBRANCH   3  22
TORSDOF 7
ENDMDL
MODEL 4
REMARK VINA RESULT:      -4.6      2.990      5.583
REMARK  7 active torsions:
REMARK  status: ('A' for Active; 'I' for Inactive)
REMARK    1  A    between atoms: C_2  and  C_3 
REMARK    2  A    between atoms: C_3  and  O_6 
REMARK    3  A    between atoms: C_3  and  C_4 
REMARK    4  A    between atoms: C_7  and  O_6 
REMARK    5  A    between atoms: C_9  and  C_10 
REMARK    6  A    between atoms: N_15  and  C_14 
REMARK    7  A    between atoms: N_20  and  C_19 
REMARK       I    between atoms: C_22  and  N_20 
ROOT
ATOM      1  C   LIG d   1      -5.475  76.817 117.905  0.00  0.00     0.161 C 
ATOM      2  C   LIG d   1      -6.806  76.583 118.288  0.00  0.00     0.016 C 
ATOM      3  C   LIG d   1      -7.758  75.956 117.451  0.00  0.00     0.038 C 
ATOM      4  C   LIG d   1      -7.400  75.382 116.222  0.00  0.00     0.028 C 
ATOM      5  C   LIG d   1      -6.185  76.039 115.577  0.00  0.00    -0.047 C 
ATOM      6  C   LIG d   1      -5.038  76.098 116.611  0.00  0.00     0.091 C 
ENDROOT
BRANCH   1   7
ATOM      7  O   LIG d   1      -4.588  76.480 118.989  0.00  0.00    -0.368 OA
BRANCH   7   8
ATOM      8  C   LIG d   1      -3.902  77.590 119.620  0.00  0.00     0.119 C 
BRANCH   8   9
ATOM      9  C   LIG d   1      -4.425  78.886 118.972  0.00  0.00     0.028 C 
ATOM     10  C   LIG d   1      -3.881  80.148 119.662  0.00  0.00     0.006 C 
ENDBRANCH   8   9
BRANCH   8  11
ATOM     11  C   LIG d   1      -2.401  77.562 119.318  0.00  0.00     0.028 C 
ATOM     12  C   LIG d   1      -1.860  76.138 119.118  0.00  0.00     0.006 C 
ENDBRANCH   8  11
ENDBRANCH   7   8
ENDBRANCH   1   7
BRANCH   6  13
ATOM     13  N   LIG d   1      -3.839  76.803 116.088  0.00  0.00    -0.311 N 
ATOM     14  C   LIG d   1      -2.819  76.178 115.502  0.00  0.00     0.210 C 
ATOM     15  C   LIG d   1      -1.673  77.090 115.053  0.00  0.00     0.109 C 
ATOM     16  O   LIG d   1      -2.768  74.958 115.283  0.00  0.00    -0.276 OA
ATOM     17  H   LIG d   1      -3.811  77.798 116.196  0.00  0.00     0.149 HD
ENDBRANCH   6  13
BRANCH   5  18
ATOM     18  N   LIG d   1      -5.840  75.256 114.375  0.00  0.00     0.381 N 
ATOM     19  H   LIG d   1      -5.374  75.842 113.711  0.00  0.00    -0.090 HD
ATOM     20  H   LIG d   1      -6.687  74.915 113.955  0.00  0.00    -0.090 HD
ATOM     21  H   LIG d   1      -5.253  74.491 114.624  0.00  0.00    -0.090 HD
ENDBRANCH   5  18
BRANCH   3  22
ATOM     22  C   LIG d   1      -9.093  75.935 117.824  0.00  0.00     0.382 C 
ATOM     23  O   LIG d   1      -9.606  76.940 118.375  0.00  0.00    -0.241 OA
ATOM     24  O   LIG d   1      -9.779  74.909 117.658  0.00  0.00    -0.241 OA
ENDBRANCH   3  22
TORSDOF 7
ENDMDL
MODEL 5
REMARK VINA RESULT:      -4.5      2.984      3.902
REMARK  7 active torsions:
REMARK  status: ('A' for Active; 'I' for Inactive)
REMARK    1  A    between atoms: C_2  and  C_3 
REMARK    2  A    between atoms: C_3  and  O_6 
REMARK    3  A    between atoms: C_3  and  C_4 
REMARK    4  A    between atoms: C_7  and  O_6 
REMARK    5  A    between atoms: C_9  and  C_10 
REMARK    6  A    between atoms: N_15  and  C_14 
REMARK    7  A    between atoms: N_20  and  C_19 
REMARK       I    between atoms: C_22  and  N_20 
ROOT
ATOM      1  C   LIG d   1      -4.635  76.040 117.155  0.00  0.00     0.161 C 
ATOM      2  C   LIG d   1      -3.508  75.201 117.126  0.00  0.00     0.016 C 
ATOM      3  C   LIG d   1      -2.245  75.576 117.637  0.00  0.00     0.038 C 
ATOM      4  C   LIG d   1      -2.059  76.768 118.354  0.00  0.00     0.028 C 
ATOM      5  C   LIG d   1      -3.043  77.867 117.967  0.00  0.00    -0.047 C 
ATOM      6  C   LIG d   1      -4.480  77.300 118.032  0.00  0.00     0.091 C 
ENDROOT
BRANCH   1   7
ATOM      7  O   LIG d   1      -5.795  75.287 117.561  0.00  0.00    -0.368 OA
BRANCH   7   8
ATOM      8  C   LIG d   1      -6.572  74.690 116.494  0.00  0.00     0.119 C 
BRANCH   8   9
ATOM      9  C   LIG d   1      -6.715  75.745 115.379  0.00  0.00     0.028 C 
ATOM     10  C   LIG d   1      -5.860  75.414 114.145  0.00  0.00     0.006 C 
ENDBRANCH   8   9
BRANCH   8  11
ATOM     11  C   LIG d   1      -8.002  74.386 116.949  0.00  0.00     0.028 C 
ATOM     12  C   LIG d   1      -8.729  75.624 117.498  0.00  0.00     0.006 C 
ENDBRANCH   8  11
ENDBRANCH   7   8
ENDBRANCH   1   7
BRANCH   6  13
ATOM     13  N   LIG d   1      -5.499  78.286 117.587  0.00  0.00    -0.311 N 
ATOM     14  C   LIG d   1      -6.482  78.727 118.370  0.00  0.00     0.210 C 
ATOM     15  C   LIG d   1      -7.436  79.726 117.707  0.00  0.00     0.109 C 
ATOM     16  O   LIG d   1      -6.636  78.411 119.559  0.00  0.00    -0.276 OA
ATOM     17  H   LIG d   1      -5.430  78.619 116.646  0.00  0.00     0.149 HD
ENDBRANCH   6  13
BRANCH   5  18
ATOM     18  N   LIG d   1      -2.827  79.002 118.884  0.00  0.00     0.381 N 
ATOM     19  H   LIG d   1      -2.583  78.661 119.793  0.00  0.00    -0.090 HD
ATOM     20  H   LIG d   1      -3.682  79.524 118.962  0.00  0.00    -0.090 HD
ATOM     21  H   LIG d   1      -2.101  79.588 118.536  0.00  0.00    -0.090 HD
ENDBRANCH   5  18
BRANCH   3  22
ATOM     22  C   LIG d   1      -1.140  74.772 117.398  0.00  0.00     0.382 C 
ATOM     23  O   LIG d   1      -0.997  74.220 116.281  0.00  0.00    -0.241 OA
ATOM     24  O   LIG d   1      -0.309  74.557 118.300  0.00  0.00    -0.241 OA
ENDBRANCH   3  22
TORSDOF 7
ENDMDL
MODEL 6
REMARK VINA RESULT:      -4.3      4.331      7.014
REMARK  7 active torsions:
REMARK  status: ('A' for Active; 'I' for Inactive)
REMARK    1  A    between atoms: C_2  and  C_3 
REMARK    2  A    between atoms: C_3  and  O_6 
REMARK    3  A    between atoms: C_3  and  C_4 
REMARK    4  A    between atoms: C_7  and  O_6 
REMARK    5  A    between atoms: C_9  and  C_10 
REMARK    6  A    between atoms: N_15  and  C_14 
REMARK    7  A    between atoms: N_20  and  C_19 
REMARK       I    between atoms: C_22  and  N_20 
ROOT
ATOM      1  C   LIG d   1      -6.192  78.206 117.909  0.00  0.00     0.161 C 
ATOM      2  C   LIG d   1      -6.656  79.531 117.952  0.00  0.00     0.016 C 
ATOM      3  C   LIG d   1      -8.014  79.875 118.145  0.00  0.00     0.038 C 
ATOM      4  C   LIG d   1      -8.984  78.912 118.462  0.00  0.00     0.028 C 
ATOM      5  C   LIG d   1      -8.654  77.522 117.931  0.00  0.00    -0.047 C 
ATOM      6  C   LIG d   1      -7.218  77.147 118.364  0.00  0.00     0.091 C 
ENDROOT
BRANCH   1   7
ATOM      7  O   LIG d   1      -4.977  78.088 118.676  0.00  0.00    -0.368 OA
BRANCH   7   8
ATOM      8  C   LIG d   1      -3.755  78.464 117.995  0.00  0.00     0.119 C 
BRANCH   8   9
ATOM      9  C   LIG d   1      -3.256  77.227 117.223  0.00  0.00     0.028 C 
ATOM     10  C   LIG d   1      -3.206  77.464 115.704  0.00  0.00     0.006 C 
ENDBRANCH   8   9
BRANCH   8  11
ATOM     11  C   LIG d   1      -2.641  78.796 118.992  0.00  0.00     0.028 C 
ATOM     12  C   LIG d   1      -2.749  80.224 119.552  0.00  0.00     0.006 C 
ENDBRANCH   8  11
ENDBRANCH   7   8
ENDBRANCH   1   7
BRANCH   6  13
ATOM     13  N   LIG d   1      -6.785  75.836 117.814  0.00  0.00    -0.311 N 
ATOM     14  C   LIG d   1      -6.596  75.611 116.515  0.00  0.00     0.210 C 
ATOM     15  C   LIG d   1      -6.169  74.184 116.160  0.00  0.00     0.109 C 
ATOM     16  O   LIG d   1      -6.711  76.468 115.625  0.00  0.00    -0.276 OA
ATOM     17  H   LIG d   1      -6.638  75.093 118.469  0.00  0.00     0.149 HD
ENDBRANCH   6  13
BRANCH   5  18
ATOM     18  N   LIG d   1      -9.675  76.592 118.450  0.00  0.00     0.381 N 
ATOM     19  H   LIG d   1      -9.888  75.902 117.758  0.00  0.00    -0.090 HD
ATOM     20  H   LIG d   1     -10.514  77.109 118.649  0.00  0.00    -0.090 HD
ATOM     21  H   LIG d   1      -9.344  76.150 119.279  0.00  0.00    -0.090 HD
ENDBRANCH   5  18
BRANCH   3  22
ATOM     22  C   LIG d   1      -8.419  81.190 117.982  0.00  0.00     0.382 C 
ATOM     23  O   LIG d   1      -8.146  82.044 118.861  0.00  0.00    -0.241 OA
ATOM     24  O   LIG d   1      -9.094  81.525 116.990  0.00  0.00    -0.241 OA
ENDBRANCH   3  22
TORSDOF 7
ENDMDL
MODEL 7
REMARK VINA RESULT:      -4.0      2.522      4.988
REMARK  7 active torsions:
REMARK  status: ('A' for Active; 'I' for Inactive)
REMARK    1  A    between atoms: C_2  and  C_3 
REMARK    2  A    between atoms: C_3  and  O_6 
REMARK    3  A    between atoms: C_3  and  C_4 
REMARK    4  A    between atoms: C_7  and  O_6 
REMARK    5  A    between atoms: C_9  and  C_10 
REMARK    6  A    between atoms: N_15  and  C_14 
REMARK    7  A    between atoms: N_20  and  C_19 
REMARK       I    between atoms: C_22  and  N_20 
ROOT
ATOM      1  C   LIG d   1      -4.442  75.500 116.999  0.00  0.00     0.161 C 
ATOM      2  C   LIG d   1      -5.610  75.493 117.780  0.00  0.00     0.016 C 
ATOM      3  C   LIG d   1      -6.912  75.572 117.233  0.00  0.00     0.038 C 
ATOM      4  C   LIG d   1      -7.140  75.509 115.851  0.00  0.00     0.028 C 
ATOM      5  C   LIG d   1      -5.970  76.025 115.019  0.00  0.00    -0.047 C 
ATOM      6  C   LIG d   1      -4.676  75.319 115.484  0.00  0.00     0.091 C 
ENDROOT
BRANCH   1   7
ATOM      7  O   LIG d   1      -3.523  74.503 117.486  0.00  0.00    -0.368 OA
BRANCH   7   8
ATOM      8  C   LIG d   1      -2.559  74.951 118.471  0.00  0.00     0.119 C 
BRANCH   8   9
ATOM      9  C   LIG d   1      -2.308  76.451 118.224  0.00  0.00     0.028 C 
ATOM     10  C   LIG d   1      -2.253  77.260 119.530  0.00  0.00     0.006 C 
ENDBRANCH   8   9
BRANCH   8  11
ATOM     11  C   LIG d   1      -1.201  74.273 118.271  0.00  0.00     0.028 C 
ATOM     12  C   LIG d   1      -0.563  74.607 116.913  0.00  0.00     0.006 C 
ENDBRANCH   8  11
ENDBRANCH   7   8
ENDBRANCH   1   7
BRANCH   6  13
ATOM     13  N   LIG d   1      -3.469  75.827 114.780  0.00  0.00    -0.311 N 
ATOM     14  C   LIG d   1      -3.138  77.116 114.729  0.00  0.00     0.210 C 
ATOM     15  C   LIG d   1      -1.866  77.426 113.934  0.00  0.00     0.109 C 
ATOM     16  O   LIG d   1      -3.759  78.029 115.294  0.00  0.00    -0.276 OA
ATOM     17  H   LIG d   1      -2.892  75.151 114.320  0.00  0.00     0.149 HD
ENDBRANCH   6  13
BRANCH   5  18
ATOM     18  N   LIG d   1      -6.287  75.774 113.601  0.00  0.00     0.381 N 
ATOM     19  H   LIG d   1      -5.489  75.386 113.139  0.00  0.00    -0.090 HD
ATOM     20  H   LIG d   1      -6.513  76.648 113.159  0.00  0.00    -0.090 HD
ATOM     21  H   LIG d   1      -7.059  75.149 113.529  0.00  0.00    -0.090 HD
ENDBRANCH   5  18
BRANCH   3  22
ATOM     22  C   LIG d   1      -8.000  75.754 118.073  0.00  0.00     0.382 C 
ATOM     23  O   LIG d   1      -8.977  74.970 118.012  0.00  0.00    -0.241 OA
ATOM     24  O   LIG d   1      -8.035  76.718 118.861  0.00  0.00    -0.241 OA
ENDBRANCH   3  22
TORSDOF 7
ENDMDL
MODEL 8
REMARK VINA RESULT:      -4.0      2.693      4.490
REMARK  7 active torsions:
REMARK  status: ('A' for Active; 'I' for Inactive)
REMARK    1  A    between atoms: C_2  and  C_3 
REMARK    2  A    between atoms: C_3  and  O_6 
REMARK    3  A    between atoms: C_3  and  C_4 
REMARK    4  A    between atoms: C_7  and  O_6 
REMARK    5  A    between atoms: C_9  and  C_10 
REMARK    6  A    between atoms: N_15  and  C_14 
REMARK    7  A    between atoms: N_20  and  C_19 
REMARK       I    between atoms: C_22  and  N_20 
ROOT
ATOM      1  C   LIG d   1      -4.076  76.033 118.945  0.00  0.00     0.161 C 
ATOM      2  C   LIG d   1      -2.699  76.136 119.207  0.00  0.00     0.016 C 
ATOM      3  C   LIG d   1      -1.705  75.992 118.213  0.00  0.00     0.038 C 
ATOM      4  C   LIG d   1      -2.028  75.886 116.852  0.00  0.00     0.028 C 
ATOM      5  C   LIG d   1      -3.401  75.272 116.601  0.00  0.00    -0.047 C 
ATOM      6  C   LIG d   1      -4.450  76.028 117.448  0.00  0.00     0.091 C 
ENDROOT
BRANCH   1   7
ATOM      7  O   LIG d   1      -4.784  77.082 119.635  0.00  0.00    -0.368 OA
BRANCH   7   8
ATOM      8  C   LIG d   1      -4.775  78.383 118.998  0.00  0.00     0.119 C 
BRANCH   8   9
ATOM      9  C   LIG d   1      -3.954  79.331 119.895  0.00  0.00     0.028 C 
ATOM     10  C   LIG d   1      -2.627  79.754 119.243  0.00  0.00     0.006 C 
ENDBRANCH   8   9
BRANCH   8  11
ATOM     11  C   LIG d   1      -6.180  78.989 118.947  0.00  0.00     0.028 C 
ATOM     12  C   LIG d   1      -6.619  79.356 117.521  0.00  0.00     0.006 C 
ENDBRANCH   8  11
ENDBRANCH   7   8
ENDBRANCH   1   7
BRANCH   6  13
ATOM     13  N   LIG d   1      -5.809  75.438 117.327  0.00  0.00    -0.311 N 
ATOM     14  C   LIG d   1      -6.666  75.763 116.360  0.00  0.00     0.210 C 
ATOM     15  C   LIG d   1      -8.021  75.052 116.431  0.00  0.00     0.109 C 
ATOM     16  O   LIG d   1      -6.421  76.549 115.433  0.00  0.00    -0.276 OA
ATOM     17  H   LIG d   1      -6.079  74.768 118.020  0.00  0.00     0.149 HD
ENDBRANCH   6  13
BRANCH   5  18
ATOM     18  N   LIG d   1      -3.666  75.348 115.152  0.00  0.00     0.381 N 
ATOM     19  H   LIG d   1      -4.221  76.156 114.950  0.00  0.00    -0.090 HD
ATOM     20  H   LIG d   1      -4.182  74.533 114.872  0.00  0.00    -0.090 HD
ATOM     21  H   LIG d   1      -2.806  75.394 114.650  0.00  0.00    -0.090 HD
ENDBRANCH   5  18
BRANCH   3  22
ATOM     22  C   LIG d   1      -0.371  75.914 118.581  0.00  0.00     0.382 C 
ATOM     23  O   LIG d   1       0.323  74.933 118.220  0.00  0.00    -0.241 OA
ATOM     24  O   LIG d   1       0.136  76.790 119.307  0.00  0.00    -0.241 OA
ENDBRANCH   3  22
TORSDOF 7
ENDMDL
MODEL 9
REMARK VINA RESULT:      -3.9      2.870      5.428
REMARK  7 active torsions:
REMARK  status: ('A' for Active; 'I' for Inactive)
REMARK    1  A    between atoms: C_2  and  C_3 
REMARK    2  A    between atoms: C_3  and  O_6 
REMARK    3  A    between atoms: C_3  and  C_4 
REMARK    4  A    between atoms: C_7  and  O_6 
REMARK    5  A    between atoms: C_9  and  C_10 
REMARK    6  A    between atoms: N_15  and  C_14 
REMARK    7  A    between atoms: N_20  and  C_19 
REMARK       I    between atoms: C_22  and  N_20 
ROOT
ATOM      1  C   LIG d   1      -4.594  76.557 117.705  0.00  0.00     0.161 C 
ATOM      2  C   LIG d   1      -5.893  76.626 118.234  0.00  0.00     0.016 C 
ATOM      3  C   LIG d   1      -7.043  76.195 117.532  0.00  0.00     0.038 C 
ATOM      4  C   LIG d   1      -6.953  75.522 116.305  0.00  0.00     0.028 C 
ATOM      5  C   LIG d   1      -5.706  75.882 115.506  0.00  0.00    -0.047 C 
ATOM      6  C   LIG d   1      -4.465  75.723 116.414  0.00  0.00     0.091 C 
ENDROOT
BRANCH   1   7
ATOM      7  O   LIG d   1      -3.683  76.069 118.710  0.00  0.00    -0.368 OA
BRANCH   7   8
ATOM      8  C   LIG d   1      -2.511  76.884 118.958  0.00  0.00     0.119 C 
BRANCH   8   9
ATOM      9  C   LIG d   1      -1.478  76.001 119.685  0.00  0.00     0.028 C 
ATOM     10  C   LIG d   1      -0.045  76.240 119.181  0.00  0.00     0.006 C 
ENDBRANCH   8   9
BRANCH   8  11
ATOM     11  C   LIG d   1      -2.822  78.026 119.930  0.00  0.00     0.028 C 
ATOM     12  C   LIG d   1      -2.762  79.409 119.263  0.00  0.00     0.006 C 
ENDBRANCH   8  11
ENDBRANCH   7   8
ENDBRANCH   1   7
BRANCH   6  13
ATOM     13  N   LIG d   1      -3.209  76.137 115.735  0.00  0.00    -0.311 N 
ATOM     14  C   LIG d   1      -2.078  75.436 115.794  0.00  0.00     0.210 C 
ATOM     15  C   LIG d   1      -0.895  76.051 115.039  0.00  0.00     0.109 C 
ATOM     16  O   LIG d   1      -1.950  74.347 116.374  0.00  0.00    -0.276 OA
ATOM     17  H   LIG d   1      -3.232  76.993 115.216  0.00  0.00     0.149 HD
ENDBRANCH   6  13
BRANCH   5  18
ATOM     18  N   LIG d   1      -5.669  75.008 114.318  0.00  0.00     0.381 N 
ATOM     19  H   LIG d   1      -5.453  74.071 114.594  0.00  0.00    -0.090 HD
ATOM     20  H   LIG d   1      -4.945  75.330 113.700  0.00  0.00    -0.090 HD
ATOM     21  H   LIG d   1      -6.549  75.031 113.851  0.00  0.00    -0.090 HD
ENDBRANCH   5  18
BRANCH   3  22
ATOM     22  C   LIG d   1      -8.303  76.473 118.040  0.00  0.00     0.382 C 
ATOM     23  O   LIG d   1      -8.452  77.397 118.877  0.00  0.00    -0.241 OA
ATOM     24  O   LIG d   1      -9.285  75.784 117.707  0.00  0.00    -0.241 OA
ENDBRANCH   3  22
TORSDOF 7
ENDMDL
