MODEL 1
REMARK VINA RESULT:      -5.0      0.000      0.000
REMARK  7 active torsions:
REMARK  status: ('A' for Active; 'I' for Inactive)
REMARK    1  A    between atoms: C_2  and  C_3 
REMARK    2  A    between atoms: C_3  and  O_6 
REMARK    3  A    between atoms: C_3  and  C_4 
REMARK    4  A    between atoms: C_7  and  O_6 
REMARK    5  A    between atoms: C_9  and  C_10 
REMARK    6  A    between atoms: N_15  and  C_14 
REMARK    7  A    between atoms: N_20  and  C_19 
REMARK       I    between atoms: C_22  and  N_20 
ROOT
ATOM      1  C   LIG d   1      -6.806  77.556 117.616  0.00  0.00     0.161 C 
ATOM      2  C   LIG d   1      -7.924  78.355 117.910  0.00  0.00     0.016 C 
ATOM      3  C   LIG d   1      -7.897  79.768 117.894  0.00  0.00     0.038 C 
ATOM      4  C   LIG d   1      -6.782  80.483 117.432  0.00  0.00     0.028 C 
ATOM      5  C   LIG d   1      -5.466  79.732 117.607  0.00  0.00    -0.047 C 
ATOM      6  C   LIG d   1      -5.612  78.317 117.002  0.00  0.00     0.091 C 
ENDROOT
BRANCH   1   7
ATOM      7  O   LIG d   1      -7.197  76.464 116.761  0.00  0.00    -0.368 OA
BRANCH   7   8
ATOM      8  C   LIG d   1      -7.311  75.167 117.397  0.00  0.00     0.119 C 
BRANCH   8   9
ATOM      9  C   LIG d   1      -6.161  74.289 116.867  0.00  0.00     0.028 C 
ATOM     10  C   LIG d   1      -5.985  74.409 115.344  0.00  0.00     0.006 C 
ENDBRANCH   8   9
BRANCH   8  11
ATOM     11  C   LIG d   1      -8.597  74.450 116.973  0.00  0.00     0.028 C 
ATOM     12  C   LIG d   1      -9.819  75.382 116.951  0.00  0.00     0.006 C 
ENDBRANCH   8  11
ENDBRANCH   7   8
ENDBRANCH   1   7
BRANCH   6  13
ATOM     13  N   LIG d   1      -4.397  77.486 117.205  0.00  0.00    -0.311 N 
ATOM     14  C   LIG d   1      -3.615  77.074 116.208  0.00  0.00     0.210 C 
ATOM     15  C   LIG d   1      -2.424  76.210 116.635  0.00  0.00     0.109 C 
ATOM     16  O   LIG d   1      -3.777  77.370 115.015  0.00  0.00    -0.276 OA
ATOM     17  H   LIG d   1      -4.174  77.227 118.146  0.00  0.00     0.149 HD
ENDBRANCH   6  13
BRANCH   5  18
ATOM     18  N   LIG d   1      -4.408  80.531 116.960  0.00  0.00     0.381 N 
ATOM     19  H   LIG d   1      -4.703  81.484 116.881  0.00  0.00    -0.090 HD
ATOM     20  H   LIG d   1      -4.250  80.173 116.034  0.00  0.00    -0.090 HD
ATOM     21  H   LIG d   1      -3.568  80.479 117.492  0.00  0.00    -0.090 HD
ENDBRANCH   5  18
BRANCH   3  22
ATOM     22  C   LIG d   1      -8.981  80.482 118.382  0.00  0.00     0.382 C 
ATOM     23  O   LIG d   1      -8.895  81.079 119.482  0.00  0.00    -0.241 OA
ATOM     24  O   LIG d   1     -10.059  80.499 117.757  0.00  0.00    -0.241 OA
ENDBRANCH   3  22
TORSDOF 7
ENDMDL
MODEL 2
REMARK VINA RESULT:      -4.9      4.256      6.811
REMARK  7 active torsions:
REMARK  status: ('A' for Active; 'I' for Inactive)
REMARK    1  A    between atoms: C_2  and  C_3 
REMARK    2  A    between atoms: C_3  and  O_6 
REMARK    3  A    between atoms: C_3  and  C_4 
REMARK    4  A    between atoms: C_7  and  O_6 
REMARK    5  A    between atoms: C_9  and  C_10 
REMARK    6  A    between atoms: N_15  and  C_14 
REMARK    7  A    between atoms: N_20  and  C_19 
REMARK       I    between atoms: C_22  and  N_20 
ROOT
ATOM      1  C   LIG d   1      -2.637  80.531 115.232  0.00  0.00     0.161 C 
ATOM      2  C   LIG d   1      -2.413  81.674 114.446  0.00  0.00     0.016 C 
ATOM      3  C   LIG d   1      -1.743  81.643 113.201  0.00  0.00     0.038 C 
ATOM      4  C   LIG d   1      -1.383  80.437 112.583  0.00  0.00     0.028 C 
ATOM      5  C   LIG d   1      -1.137  79.300 113.570  0.00  0.00    -0.047 C 
ATOM      6  C   LIG d   1      -2.350  79.192 114.522  0.00  0.00     0.091 C 
ENDROOT
BRANCH   1   7
ATOM      7  O   LIG d   1      -3.984  80.548 115.745  0.00  0.00    -0.368 OA
BRANCH   7   8
ATOM      8  C   LIG d   1      -4.228  81.432 116.866  0.00  0.00     0.119 C 
BRANCH   8   9
ATOM      9  C   LIG d   1      -3.434  80.886 118.069  0.00  0.00     0.028 C 
ATOM     10  C   LIG d   1      -2.520  81.950 118.700  0.00  0.00     0.006 C 
ENDBRANCH   8   9
BRANCH   8  11
ATOM     11  C   LIG d   1      -5.697  81.392 117.298  0.00  0.00     0.028 C 
ATOM     12  C   LIG d   1      -6.253  79.962 117.386  0.00  0.00     0.006 C 
ENDBRANCH   8  11
ENDBRANCH   7   8
ENDBRANCH   1   7
BRANCH   6  13
ATOM     13  N   LIG d   1      -2.154  78.159 115.573  0.00  0.00    -0.311 N 
ATOM     14  C   LIG d   1      -2.588  76.905 115.458  0.00  0.00     0.210 C 
ATOM     15  C   LIG d   1      -2.300  76.008 116.666  0.00  0.00     0.109 C 
ATOM     16  O   LIG d   1      -3.156  76.442 114.457  0.00  0.00    -0.276 OA
ATOM     17  H   LIG d   1      -1.675  78.441 116.406  0.00  0.00     0.149 HD
ENDBRANCH   6  13
BRANCH   5  18
ATOM     18  N   LIG d   1      -0.906  78.072 112.786  0.00  0.00     0.381 N 
ATOM     19  H   LIG d   1      -1.521  77.348 113.101  0.00  0.00    -0.090 HD
ATOM     20  H   LIG d   1       0.041  77.767 112.932  0.00  0.00    -0.090 HD
ATOM     21  H   LIG d   1      -1.060  78.251 111.818  0.00  0.00    -0.090 HD
ENDBRANCH   5  18
BRANCH   3  22
ATOM     22  C   LIG d   1      -1.391  82.832 112.580  0.00  0.00     0.382 C 
ATOM     23  O   LIG d   1      -1.288  83.885 113.255  0.00  0.00    -0.241 OA
ATOM     24  O   LIG d   1      -1.220  82.874 111.347  0.00  0.00    -0.241 OA
ENDBRANCH   3  22
TORSDOF 7
ENDMDL
MODEL 3
REMARK VINA RESULT:      -4.6      1.848      2.570
REMARK  7 active torsions:
REMARK  status: ('A' for Active; 'I' for Inactive)
REMARK    1  A    between atoms: C_2  and  C_3 
REMARK    2  A    between atoms: C_3  and  O_6 
REMARK    3  A    between atoms: C_3  and  C_4 
REMARK    4  A    between atoms: C_7  and  O_6 
REMARK    5  A    between atoms: C_9  and  C_10 
REMARK    6  A    between atoms: N_15  and  C_14 
REMARK    7  A    between atoms: N_20  and  C_19 
REMARK       I    between atoms: C_22  and  N_20 
ROOT
ATOM      1  C   LIG d   1      -5.771  77.912 117.538  0.00  0.00     0.161 C 
ATOM      2  C   LIG d   1      -7.128  77.738 117.860  0.00  0.00     0.016 C 
ATOM      3  C   LIG d   1      -8.043  78.808 117.975  0.00  0.00     0.038 C 
ATOM      4  C   LIG d   1      -7.696  80.122 117.626  0.00  0.00     0.028 C 
ATOM      5  C   LIG d   1      -6.208  80.417 117.784  0.00  0.00    -0.047 C 
ATOM      6  C   LIG d   1      -5.399  79.326 117.046  0.00  0.00     0.091 C 
ENDROOT
BRANCH   1   7
ATOM      7  O   LIG d   1      -5.367  76.922 116.571  0.00  0.00    -0.368 OA
BRANCH   7   8
ATOM      8  C   LIG d   1      -5.888  75.585 116.772  0.00  0.00     0.119 C 
BRANCH   8   9
ATOM      9  C   LIG d   1      -4.896  74.833 117.681  0.00  0.00     0.028 C 
ATOM     10  C   LIG d   1      -3.431  75.118 117.312  0.00  0.00     0.006 C 
ENDBRANCH   8   9
BRANCH   8  11
ATOM     11  C   LIG d   1      -5.915  74.795 115.460  0.00  0.00     0.028 C 
ATOM     12  C   LIG d   1      -5.465  75.631 114.252  0.00  0.00     0.006 C 
ENDBRANCH   8  11
ENDBRANCH   7   8
ENDBRANCH   1   7
BRANCH   6  13
ATOM     13  N   LIG d   1      -3.933  79.492 117.221  0.00  0.00    -0.311 N 
ATOM     14  C   LIG d   1      -3.169  80.192 116.384  0.00  0.00     0.210 C 
ATOM     15  C   LIG d   1      -1.679  80.220 116.737  0.00  0.00     0.109 C 
ATOM     16  O   LIG d   1      -3.590  80.820 115.400  0.00  0.00    -0.276 OA
ATOM     17  H   LIG d   1      -3.514  79.042 118.011  0.00  0.00     0.149 HD
ENDBRANCH   6  13
BRANCH   5  18
ATOM     18  N   LIG d   1      -5.965  81.773 117.257  0.00  0.00     0.381 N 
ATOM     19  H   LIG d   1      -6.524  82.436 117.756  0.00  0.00    -0.090 HD
ATOM     20  H   LIG d   1      -6.233  81.799 116.289  0.00  0.00    -0.090 HD
ATOM     21  H   LIG d   1      -5.000  82.006 117.348  0.00  0.00    -0.090 HD
ENDBRANCH   5  18
BRANCH   3  22
ATOM     22  C   LIG d   1      -9.313  78.575 118.482  0.00  0.00     0.382 C 
ATOM     23  O   LIG d   1     -10.059  77.726 117.938  0.00  0.00    -0.241 OA
ATOM     24  O   LIG d   1      -9.738  79.235 119.449  0.00  0.00    -0.241 OA
ENDBRANCH   3  22
TORSDOF 7
ENDMDL
MODEL 4
REMARK VINA RESULT:      -4.6      2.418      5.989
REMARK  7 active torsions:
REMARK  status: ('A' for Active; 'I' for Inactive)
REMARK    1  A    between atoms: C_2  and  C_3 
REMARK    2  A    between atoms: C_3  and  O_6 
REMARK    3  A    between atoms: C_3  and  C_4 
REMARK    4  A    between atoms: C_7  and  O_6 
REMARK    5  A    between atoms: C_9  and  C_10 
REMARK    6  A    between atoms: N_15  and  C_14 
REMARK    7  A    between atoms: N_20  and  C_19 
REMARK       I    between atoms: C_22  and  N_20 
ROOT
ATOM      1  C   LIG d   1      -6.148  78.452 117.480  0.00  0.00     0.161 C 
ATOM      2  C   LIG d   1      -6.129  77.088 117.143  0.00  0.00     0.016 C 
ATOM      3  C   LIG d   1      -7.287  76.276 117.120  0.00  0.00     0.038 C 
ATOM      4  C   LIG d   1      -8.572  76.812 117.287  0.00  0.00     0.028 C 
ATOM      5  C   LIG d   1      -8.593  78.085 118.127  0.00  0.00    -0.047 C 
ATOM      6  C   LIG d   1      -7.556  79.080 117.557  0.00  0.00     0.091 C 
ENDROOT
BRANCH   1   7
ATOM      7  O   LIG d   1      -5.319  79.193 116.563  0.00  0.00    -0.368 OA
BRANCH   7   8
ATOM      8  C   LIG d   1      -4.017  79.589 117.060  0.00  0.00     0.119 C 
BRANCH   8   9
ATOM      9  C   LIG d   1      -4.099  81.081 117.438  0.00  0.00     0.028 C 
ATOM     10  C   LIG d   1      -4.050  81.305 118.959  0.00  0.00     0.006 C 
ENDBRANCH   8   9
BRANCH   8  11
ATOM     11  C   LIG d   1      -2.952  79.507 115.962  0.00  0.00     0.028 C 
ATOM     12  C   LIG d   1      -2.719  80.853 115.257  0.00  0.00     0.006 C 
ENDBRANCH   8  11
ENDBRANCH   7   8
ENDBRANCH   1   7
BRANCH   6  13
ATOM     13  N   LIG d   1      -7.452  80.319 118.370  0.00  0.00    -0.311 N 
ATOM     14  C   LIG d   1      -8.042  81.466 118.038  0.00  0.00     0.210 C 
ATOM     15  C   LIG d   1      -7.790  82.626 119.006  0.00  0.00     0.109 C 
ATOM     16  O   LIG d   1      -8.777  81.623 117.052  0.00  0.00    -0.276 OA
ATOM     17  H   LIG d   1      -6.900  80.272 119.205  0.00  0.00     0.149 HD
ENDBRANCH   6  13
BRANCH   5  18
ATOM     18  N   LIG d   1      -9.971  78.611 118.105  0.00  0.00     0.381 N 
ATOM     19  H   LIG d   1     -10.607  77.885 117.842  0.00  0.00    -0.090 HD
ATOM     20  H   LIG d   1     -10.028  79.344 117.420  0.00  0.00    -0.090 HD
ATOM     21  H   LIG d   1     -10.215  78.966 119.003  0.00  0.00    -0.090 HD
ENDBRANCH   5  18
BRANCH   3  22
ATOM     22  C   LIG d   1      -7.160  74.904 116.967  0.00  0.00     0.382 C 
ATOM     23  O   LIG d   1      -8.184  74.180 116.931  0.00  0.00    -0.241 OA
ATOM     24  O   LIG d   1      -6.033  74.376 116.909  0.00  0.00    -0.241 OA
ENDBRANCH   3  22
TORSDOF 7
ENDMDL
MODEL 5
REMARK VINA RESULT:      -4.6      3.692      5.818
REMARK  7 active torsions:
REMARK  status: ('A' for Active; 'I' for Inactive)
REMARK    1  A    between atoms: C_2  and  C_3 
REMARK    2  A    between atoms: C_3  and  O_6 
REMARK    3  A    between atoms: C_3  and  C_4 
REMARK    4  A    between atoms: C_7  and  O_6 
REMARK    5  A    between atoms: C_9  and  C_10 
REMARK    6  A    between atoms: N_15  and  C_14 
REMARK    7  A    between atoms: N_20  and  C_19 
REMARK       I    between atoms: C_22  and  N_20 
ROOT
ATOM      1  C   LIG d   1      -2.036  79.607 116.109  0.00  0.00     0.161 C 
ATOM      2  C   LIG d   1      -2.485  80.760 115.445  0.00  0.00     0.016 C 
ATOM      3  C   LIG d   1      -2.459  80.909 114.039  0.00  0.00     0.038 C 
ATOM      4  C   LIG d   1      -2.120  79.847 113.188  0.00  0.00     0.028 C 
ATOM      5  C   LIG d   1      -1.180  78.832 113.829  0.00  0.00    -0.047 C 
ATOM      6  C   LIG d   1      -1.767  78.396 115.191  0.00  0.00     0.091 C 
ENDROOT
BRANCH   1   7
ATOM      7  O   LIG d   1      -2.965  79.249 117.151  0.00  0.00    -0.368 OA
BRANCH   7   8
ATOM      8  C   LIG d   1      -4.189  78.605 116.719  0.00  0.00     0.119 C 
BRANCH   8   9
ATOM      9  C   LIG d   1      -5.367  79.433 117.269  0.00  0.00     0.028 C 
ATOM     10  C   LIG d   1      -6.654  78.603 117.406  0.00  0.00     0.006 C 
ENDBRANCH   8   9
BRANCH   8  11
ATOM     11  C   LIG d   1      -4.341  77.217 117.349  0.00  0.00     0.028 C 
ATOM     12  C   LIG d   1      -3.411  77.005 118.554  0.00  0.00     0.006 C 
ENDBRANCH   8  11
ENDBRANCH   7   8
ENDBRANCH   1   7
BRANCH   6  13
ATOM     13  N   LIG d   1      -0.867  77.467 115.924  0.00  0.00    -0.311 N 
ATOM     14  C   LIG d   1      -0.970  76.141 115.856  0.00  0.00     0.210 C 
ATOM     15  C   LIG d   1       0.044  75.369 116.706  0.00  0.00     0.109 C 
ATOM     16  O   LIG d   1      -1.784  75.530 115.147  0.00  0.00    -0.276 OA
ATOM     17  H   LIG d   1      -0.158  77.878 116.499  0.00  0.00     0.149 HD
ENDBRANCH   6  13
BRANCH   5  18
ATOM     18  N   LIG d   1      -1.021  77.712 112.883  0.00  0.00     0.381 N 
ATOM     19  H   LIG d   1      -1.904  77.491 112.468  0.00  0.00    -0.090 HD
ATOM     20  H   LIG d   1      -0.698  76.904 113.387  0.00  0.00    -0.090 HD
ATOM     21  H   LIG d   1      -0.364  77.955 112.174  0.00  0.00    -0.090 HD
ENDBRANCH   5  18
BRANCH   3  22
ATOM     22  C   LIG d   1      -2.737  82.144 113.474  0.00  0.00     0.382 C 
ATOM     23  O   LIG d   1      -2.432  82.368 112.278  0.00  0.00    -0.241 OA
ATOM     24  O   LIG d   1      -3.248  83.051 114.157  0.00  0.00    -0.241 OA
ENDBRANCH   3  22
TORSDOF 7
ENDMDL
MODEL 6
REMARK VINA RESULT:      -4.5      1.927      2.892
REMARK  7 active torsions:
REMARK  status: ('A' for Active; 'I' for Inactive)
REMARK    1  A    between atoms: C_2  and  C_3 
REMARK    2  A    between atoms: C_3  and  O_6 
REMARK    3  A    between atoms: C_3  and  C_4 
REMARK    4  A    between atoms: C_7  and  O_6 
REMARK    5  A    between atoms: C_9  and  C_10 
REMARK    6  A    between atoms: N_15  and  C_14 
REMARK    7  A    between atoms: N_20  and  C_19 
REMARK       I    between atoms: C_22  and  N_20 
ROOT
ATOM      1  C   LIG d   1      -5.929  78.049 117.107  0.00  0.00     0.161 C 
ATOM      2  C   LIG d   1      -7.278  77.837 117.437  0.00  0.00     0.016 C 
ATOM      3  C   LIG d   1      -8.152  78.873 117.840  0.00  0.00     0.038 C 
ATOM      4  C   LIG d   1      -7.774  80.223 117.793  0.00  0.00     0.028 C 
ATOM      5  C   LIG d   1      -6.272  80.437 117.950  0.00  0.00    -0.047 C 
ATOM      6  C   LIG d   1      -5.528  79.530 116.943  0.00  0.00     0.091 C 
ENDROOT
BRANCH   1   7
ATOM      7  O   LIG d   1      -5.594  77.305 115.918  0.00  0.00    -0.368 OA
BRANCH   7   8
ATOM      8  C   LIG d   1      -4.539  76.322 116.058  0.00  0.00     0.119 C 
BRANCH   8   9
ATOM      9  C   LIG d   1      -5.070  74.989 115.496  0.00  0.00     0.028 C 
ATOM     10  C   LIG d   1      -5.396  75.074 113.995  0.00  0.00     0.006 C 
ENDBRANCH   8   9
BRANCH   8  11
ATOM     11  C   LIG d   1      -4.227  76.045 117.531  0.00  0.00     0.028 C 
ATOM     12  C   LIG d   1      -3.433  74.745 117.738  0.00  0.00     0.006 C 
ENDBRANCH   8  11
ENDBRANCH   7   8
ENDBRANCH   1   7
BRANCH   6  13
ATOM     13  N   LIG d   1      -4.051  79.615 117.087  0.00  0.00    -0.311 N 
ATOM     14  C   LIG d   1      -3.280  80.364 116.301  0.00  0.00     0.210 C 
ATOM     15  C   LIG d   1      -1.781  80.292 116.608  0.00  0.00     0.109 C 
ATOM     16  O   LIG d   1      -3.698  81.105 115.398  0.00  0.00    -0.276 OA
ATOM     17  H   LIG d   1      -3.632  79.070 117.814  0.00  0.00     0.149 HD
ENDBRANCH   6  13
BRANCH   5  18
ATOM     18  N   LIG d   1      -6.002  81.872 117.744  0.00  0.00     0.381 N 
ATOM     19  H   LIG d   1      -6.077  82.095 116.772  0.00  0.00    -0.090 HD
ATOM     20  H   LIG d   1      -5.064  82.073 118.043  0.00  0.00    -0.090 HD
ATOM     21  H   LIG d   1      -6.650  82.419 118.268  0.00  0.00    -0.090 HD
ENDBRANCH   5  18
BRANCH   3  22
ATOM     22  C   LIG d   1      -9.409  78.558 118.333  0.00  0.00     0.382 C 
ATOM     23  O   LIG d   1     -10.060  77.609 117.832  0.00  0.00    -0.241 OA
ATOM     24  O   LIG d   1      -9.919  79.238 119.243  0.00  0.00    -0.241 OA
ENDBRANCH   3  22
TORSDOF 7
ENDMDL
MODEL 7
REMARK VINA RESULT:      -4.5      2.442      5.988
REMARK  7 active torsions:
REMARK  status: ('A' for Active; 'I' for Inactive)
REMARK    1  A    between atoms: C_2  and  C_3 
REMARK    2  A    between atoms: C_3  and  O_6 
REMARK    3  A    between atoms: C_3  and  C_4 
REMARK    4  A    between atoms: C_7  and  O_6 
REMARK    5  A    between atoms: C_9  and  C_10 
REMARK    6  A    between atoms: N_15  and  C_14 
REMARK    7  A    between atoms: N_20  and  C_19 
REMARK       I    between atoms: C_22  and  N_20 
ROOT
ATOM      1  C   LIG d   1      -6.209  79.070 117.428  0.00  0.00     0.161 C 
ATOM      2  C   LIG d   1      -5.818  77.775 117.050  0.00  0.00     0.016 C 
ATOM      3  C   LIG d   1      -6.701  76.671 117.026  0.00  0.00     0.038 C 
ATOM      4  C   LIG d   1      -8.080  76.820 117.236  0.00  0.00     0.028 C 
ATOM      5  C   LIG d   1      -8.434  78.015 118.114  0.00  0.00    -0.047 C 
ATOM      6  C   LIG d   1      -7.734  79.274 117.553  0.00  0.00     0.091 C 
ENDROOT
BRANCH   1   7
ATOM      7  O   LIG d   1      -5.647  80.036 116.518  0.00  0.00    -0.368 OA
BRANCH   7   8
ATOM      8  C   LIG d   1      -4.813  81.061 117.112  0.00  0.00     0.119 C 
BRANCH   8   9
ATOM      9  C   LIG d   1      -3.629  81.305 116.157  0.00  0.00     0.028 C 
ATOM     10  C   LIG d   1      -2.908  80.003 115.771  0.00  0.00     0.006 C 
ENDBRANCH   8   9
BRANCH   8  11
ATOM     11  C   LIG d   1      -4.184  80.578 118.422  0.00  0.00     0.028 C 
ATOM     12  C   LIG d   1      -4.582  81.443 119.629  0.00  0.00     0.006 C 
ENDBRANCH   8  11
ENDBRANCH   7   8
ENDBRANCH   1   7
BRANCH   6  13
ATOM     13  N   LIG d   1      -7.959  80.473 118.402  0.00  0.00    -0.311 N 
ATOM     14  C   LIG d   1      -8.416  81.631 117.928  0.00  0.00     0.210 C 
ATOM     15  C   LIG d   1      -8.556  82.746 118.970  0.00  0.00     0.109 C 
ATOM     16  O   LIG d   1      -8.748  81.832 116.750  0.00  0.00    -0.276 OA
ATOM     17  H   LIG d   1      -7.744  80.389 119.376  0.00  0.00     0.149 HD
ENDBRANCH   6  13
BRANCH   5  18
ATOM     18  N   LIG d   1      -9.904  78.132 118.136  0.00  0.00     0.381 N 
ATOM     19  H   LIG d   1     -10.302  77.541 117.434  0.00  0.00    -0.090 HD
ATOM     20  H   LIG d   1     -10.157  79.082 117.929  0.00  0.00    -0.090 HD
ATOM     21  H   LIG d   1     -10.253  77.876 119.033  0.00  0.00    -0.090 HD
ENDBRANCH   5  18
BRANCH   3  22
ATOM     22  C   LIG d   1      -6.199  75.393 116.830  0.00  0.00     0.382 C 
ATOM     23  O   LIG d   1      -5.012  75.131 117.142  0.00  0.00    -0.241 OA
ATOM     24  O   LIG d   1      -6.904  74.511 116.303  0.00  0.00    -0.241 OA
ENDBRANCH   3  22
TORSDOF 7
ENDMDL
MODEL 8
REMARK VINA RESULT:      -4.3      2.577      4.292
REMARK  7 active torsions:
REMARK  status: ('A' for Active; 'I' for Inactive)
REMARK    1  A    between atoms: C_2  and  C_3 
REMARK    2  A    between atoms: C_3  and  O_6 
REMARK    3  A    between atoms: C_3  and  C_4 
REMARK    4  A    between atoms: C_7  and  O_6 
REMARK    5  A    between atoms: C_9  and  C_10 
REMARK    6  A    between atoms: N_15  and  C_14 
REMARK    7  A    between atoms: N_20  and  C_19 
REMARK       I    between atoms: C_22  and  N_20 
ROOT
ATOM      1  C   LIG d   1      -4.853  77.606 116.765  0.00  0.00     0.161 C 
ATOM      2  C   LIG d   1      -4.193  78.846 116.766  0.00  0.00     0.016 C 
ATOM      3  C   LIG d   1      -4.782  80.041 117.238  0.00  0.00     0.038 C 
ATOM      4  C   LIG d   1      -6.027  80.048 117.884  0.00  0.00     0.028 C 
ATOM      5  C   LIG d   1      -6.942  78.907 117.451  0.00  0.00    -0.047 C 
ATOM      6  C   LIG d   1      -6.170  77.573 117.568  0.00  0.00     0.091 C 
ENDROOT
BRANCH   1   7
ATOM      7  O   LIG d   1      -3.958  76.575 117.228  0.00  0.00    -0.368 OA
BRANCH   7   8
ATOM      8  C   LIG d   1      -3.632  75.537 116.272  0.00  0.00     0.119 C 
BRANCH   8   9
ATOM      9  C   LIG d   1      -2.097  75.490 116.144  0.00  0.00     0.028 C 
ATOM     10  C   LIG d   1      -1.570  76.442 115.057  0.00  0.00     0.006 C 
ENDBRANCH   8   9
BRANCH   8  11
ATOM     11  C   LIG d   1      -4.146  75.887 114.872  0.00  0.00     0.028 C 
ATOM     12  C   LIG d   1      -5.206  74.899 114.361  0.00  0.00     0.006 C 
ENDBRANCH   8  11
ENDBRANCH   7   8
ENDBRANCH   1   7
BRANCH   6  13
ATOM     13  N   LIG d   1      -6.964  76.414 117.084  0.00  0.00    -0.311 N 
ATOM     14  C   LIG d   1      -7.028  75.250 117.726  0.00  0.00     0.210 C 
ATOM     15  C   LIG d   1      -7.888  74.181 117.044  0.00  0.00     0.109 C 
ATOM     16  O   LIG d   1      -6.481  75.010 118.813  0.00  0.00    -0.276 OA
ATOM     17  H   LIG d   1      -7.465  76.532 116.225  0.00  0.00     0.149 HD
ENDBRANCH   6  13
BRANCH   5  18
ATOM     18  N   LIG d   1      -8.147  78.955 118.300  0.00  0.00     0.381 N 
ATOM     19  H   LIG d   1      -8.538  78.038 118.385  0.00  0.00    -0.090 HD
ATOM     20  H   LIG d   1      -8.829  79.549 117.864  0.00  0.00    -0.090 HD
ATOM     21  H   LIG d   1      -7.915  79.309 119.202  0.00  0.00    -0.090 HD
ENDBRANCH   5  18
BRANCH   3  22
ATOM     22  C   LIG d   1      -4.142  81.253 117.029  0.00  0.00     0.382 C 
ATOM     23  O   LIG d   1      -4.511  82.003 116.094  0.00  0.00    -0.241 OA
ATOM     24  O   LIG d   1      -3.171  81.584 117.735  0.00  0.00    -0.241 OA
ENDBRANCH   3  22
TORSDOF 7
ENDMDL
MODEL 9
REMARK VINA RESULT:      -4.1      1.972      5.161
REMARK  7 active torsions:
REMARK  status: ('A' for Active; 'I' for Inactive)
REMARK    1  A    between atoms: C_2  and  C_3 
REMARK    2  A    between atoms: C_3  and  O_6 
REMARK    3  A    between atoms: C_3  and  C_4 
REMARK    4  A    between atoms: C_7  and  O_6 
REMARK    5  A    between atoms: C_9  and  C_10 
REMARK    6  A    between atoms: N_15  and  C_14 
REMARK    7  A    between atoms: N_20  and  C_19 
REMARK       I    between atoms: C_22  and  N_20 
ROOT
ATOM      1  C   LIG d   1      -5.477  77.519 116.558  0.00  0.00     0.161 C 
ATOM      2  C   LIG d   1      -4.467  76.651 116.111  0.00  0.00     0.016 C 
ATOM      3  C   LIG d   1      -3.098  77.004 116.075  0.00  0.00     0.038 C 
ATOM      4  C   LIG d   1      -2.626  78.203 116.629  0.00  0.00     0.028 C 
ATOM      5  C   LIG d   1      -3.665  79.319 116.631  0.00  0.00    -0.047 C 
ATOM      6  C   LIG d   1      -4.969  78.791 117.271  0.00  0.00     0.091 C 
ENDROOT
BRANCH   1   7
ATOM      7  O   LIG d   1      -6.396  76.803 117.407  0.00  0.00    -0.368 OA
BRANCH   7   8
ATOM      8  C   LIG d   1      -7.533  76.197 116.745  0.00  0.00     0.119 C 
BRANCH   8   9
ATOM      9  C   LIG d   1      -8.805  76.859 117.310  0.00  0.00     0.028 C 
ATOM     10  C   LIG d   1     -10.054  75.981 117.127  0.00  0.00     0.006 C 
ENDBRANCH   8   9
BRANCH   8  11
ATOM     11  C   LIG d   1      -7.657  74.712 117.100  0.00  0.00     0.028 C 
ATOM     12  C   LIG d   1      -6.639  74.266 118.161  0.00  0.00     0.006 C 
ENDBRANCH   8  11
ENDBRANCH   7   8
ENDBRANCH   1   7
BRANCH   6  13
ATOM     13  N   LIG d   1      -6.065  79.794 117.236  0.00  0.00    -0.311 N 
ATOM     14  C   LIG d   1      -6.331  80.624 118.243  0.00  0.00     0.210 C 
ATOM     15  C   LIG d   1      -7.516  81.565 118.009  0.00  0.00     0.109 C 
ATOM     16  O   LIG d   1      -5.678  80.691 119.295  0.00  0.00    -0.276 OA
ATOM     17  H   LIG d   1      -6.625  79.829 116.407  0.00  0.00     0.149 HD
ENDBRANCH   6  13
BRANCH   5  18
ATOM     18  N   LIG d   1      -3.087  80.465 117.359  0.00  0.00     0.381 N 
ATOM     19  H   LIG d   1      -3.041  80.256 118.337  0.00  0.00    -0.090 HD
ATOM     20  H   LIG d   1      -3.683  81.264 117.234  0.00  0.00    -0.090 HD
ATOM     21  H   LIG d   1      -2.174  80.664 117.012  0.00  0.00    -0.090 HD
ENDBRANCH   5  18
BRANCH   3  22
ATOM     22  C   LIG d   1      -2.190  76.168 115.443  0.00  0.00     0.382 C 
ATOM     23  O   LIG d   1      -2.528  75.004 115.121  0.00  0.00    -0.241 OA
ATOM     24  O   LIG d   1      -1.023  76.548 115.231  0.00  0.00    -0.241 OA
ENDBRANCH   3  22
TORSDOF 7
ENDMDL
