MODEL 1
REMARK VINA RESULT:      -5.2      0.000      0.000
REMARK  7 active torsions:
REMARK  status: ('A' for Active; 'I' for Inactive)
REMARK    1  A    between atoms: C_2  and  C_3 
REMARK    2  A    between atoms: C_3  and  O_6 
REMARK    3  A    between atoms: C_3  and  C_4 
REMARK    4  A    between atoms: C_7  and  O_6 
REMARK    5  A    between atoms: C_9  and  C_10 
REMARK    6  A    between atoms: N_15  and  C_14 
REMARK    7  A    between atoms: N_20  and  C_19 
REMARK       I    between atoms: C_22  and  N_20 
ROOT
ATOM      1  C   LIG d   1      -2.754  77.886 116.212  0.00  0.00     0.161 C 
ATOM      2  C   LIG d   1      -3.037  78.717 115.116  0.00  0.00     0.016 C 
ATOM      3  C   LIG d   1      -2.321  78.670 113.898  0.00  0.00     0.038 C 
ATOM      4  C   LIG d   1      -1.363  77.677 113.639  0.00  0.00     0.028 C 
ATOM      5  C   LIG d   1      -0.694  77.138 114.898  0.00  0.00    -0.047 C 
ATOM      6  C   LIG d   1      -1.787  76.722 115.909  0.00  0.00     0.091 C 
ENDROOT
BRANCH   1   7
ATOM      7  O   LIG d   1      -3.982  77.383 116.774  0.00  0.00    -0.368 OA
BRANCH   7   8
ATOM      8  C   LIG d   1      -5.068  77.165 115.840  0.00  0.00     0.119 C 
BRANCH   8   9
ATOM      9  C   LIG d   1      -6.381  77.513 116.568  0.00  0.00     0.028 C 
ATOM     10  C   LIG d   1      -7.445  76.413 116.417  0.00  0.00     0.006 C 
ENDBRANCH   8   9
BRANCH   8  11
ATOM     11  C   LIG d   1      -5.192  75.685 115.466  0.00  0.00     0.028 C 
ATOM     12  C   LIG d   1      -4.897  75.419 113.982  0.00  0.00     0.006 C 
ENDBRANCH   8  11
ENDBRANCH   7   8
ENDBRANCH   1   7
BRANCH   6  13
ATOM     13  N   LIG d   1      -1.218  76.262 117.202  0.00  0.00    -0.311 N 
ATOM     14  C   LIG d   1      -1.549  75.109 117.780  0.00  0.00     0.210 C 
ATOM     15  C   LIG d   1      -0.860  74.836 119.121  0.00  0.00     0.109 C 
ATOM     16  O   LIG d   1      -2.324  74.271 117.294  0.00  0.00    -0.276 OA
ATOM     17  H   LIG d   1      -0.557  76.866 117.651  0.00  0.00     0.149 HD
ENDBRANCH   6  13
BRANCH   5  18
ATOM     18  N   LIG d   1       0.178  76.018 114.495  0.00  0.00     0.381 N 
ATOM     19  H   LIG d   1       0.756  76.298 113.728  0.00  0.00    -0.090 HD
ATOM     20  H   LIG d   1      -0.397  75.251 114.193  0.00  0.00    -0.090 HD
ATOM     21  H   LIG d   1       0.746  75.735 115.263  0.00  0.00    -0.090 HD
ENDBRANCH   5  18
BRANCH   3  22
ATOM     22  C   LIG d   1      -2.531  79.648 112.938  0.00  0.00     0.382 C 
ATOM     23  O   LIG d   1      -1.969  79.560 111.820  0.00  0.00    -0.241 OA
ATOM     24  O   LIG d   1      -3.241  80.639 113.192  0.00  0.00    -0.241 OA
ENDBRANCH   3  22
TORSDOF 7
ENDMDL
MODEL 2
REMARK VINA RESULT:      -5.1      1.569      2.109
REMARK  7 active torsions:
REMARK  status: ('A' for Active; 'I' for Inactive)
REMARK    1  A    between atoms: C_2  and  C_3 
REMARK    2  A    between atoms: C_3  and  O_6 
REMARK    3  A    between atoms: C_3  and  C_4 
REMARK    4  A    between atoms: C_7  and  O_6 
REMARK    5  A    between atoms: C_9  and  C_10 
REMARK    6  A    between atoms: N_15  and  C_14 
REMARK    7  A    between atoms: N_20  and  C_19 
REMARK       I    between atoms: C_22  and  N_20 
ROOT
ATOM      1  C   LIG d   1      -2.826  77.497 114.709  0.00  0.00     0.161 C 
ATOM      2  C   LIG d   1      -2.951  78.473 113.706  0.00  0.00     0.016 C 
ATOM      3  C   LIG d   1      -2.032  79.532 113.531  0.00  0.00     0.038 C 
ATOM      4  C   LIG d   1      -0.834  79.602 114.258  0.00  0.00     0.028 C 
ATOM      5  C   LIG d   1      -0.913  78.925 115.622  0.00  0.00    -0.047 C 
ATOM      6  C   LIG d   1      -1.467  77.493 115.440  0.00  0.00     0.091 C 
ENDROOT
BRANCH   1   7
ATOM      7  O   LIG d   1      -3.104  76.194 114.161  0.00  0.00    -0.368 OA
BRANCH   7   8
ATOM      8  C   LIG d   1      -4.201  75.468 114.767  0.00  0.00     0.119 C 
BRANCH   8   9
ATOM      9  C   LIG d   1      -5.183  75.088 113.642  0.00  0.00     0.028 C 
ATOM     10  C   LIG d   1      -6.108  76.253 113.252  0.00  0.00     0.006 C 
ENDBRANCH   8   9
BRANCH   8  11
ATOM     11  C   LIG d   1      -5.002  76.362 115.719  0.00  0.00     0.028 C 
ATOM     12  C   LIG d   1      -5.102  75.781 117.139  0.00  0.00     0.006 C 
ENDBRANCH   8  11
ENDBRANCH   7   8
ENDBRANCH   1   7
BRANCH   6  13
ATOM     13  N   LIG d   1      -1.655  76.789 116.735  0.00  0.00    -0.311 N 
ATOM     14  C   LIG d   1      -1.256  75.538 116.955  0.00  0.00     0.210 C 
ATOM     15  C   LIG d   1      -1.566  74.996 118.354  0.00  0.00     0.109 C 
ATOM     16  O   LIG d   1      -0.647  74.836 116.134  0.00  0.00    -0.276 OA
ATOM     17  H   LIG d   1      -2.114  77.296 117.467  0.00  0.00     0.149 HD
ENDBRANCH   6  13
BRANCH   5  18
ATOM     18  N   LIG d   1       0.439  78.951 116.211  0.00  0.00     0.381 N 
ATOM     19  H   LIG d   1       0.380  79.178 117.184  0.00  0.00    -0.090 HD
ATOM     20  H   LIG d   1       0.980  79.663 115.753  0.00  0.00    -0.090 HD
ATOM     21  H   LIG d   1       0.879  78.064 116.096  0.00  0.00    -0.090 HD
ENDBRANCH   5  18
BRANCH   3  22
ATOM     22  C   LIG d   1      -2.326  80.559 112.647  0.00  0.00     0.382 C 
ATOM     23  O   LIG d   1      -1.505  80.870 111.751  0.00  0.00    -0.241 OA
ATOM     24  O   LIG d   1      -3.383  81.208 112.763  0.00  0.00    -0.241 OA
ENDBRANCH   3  22
TORSDOF 7
ENDMDL
MODEL 3
REMARK VINA RESULT:      -4.8      2.452      3.669
REMARK  7 active torsions:
REMARK  status: ('A' for Active; 'I' for Inactive)
REMARK    1  A    between atoms: C_2  and  C_3 
REMARK    2  A    between atoms: C_3  and  O_6 
REMARK    3  A    between atoms: C_3  and  C_4 
REMARK    4  A    between atoms: C_7  and  O_6 
REMARK    5  A    between atoms: C_9  and  C_10 
REMARK    6  A    between atoms: N_15  and  C_14 
REMARK    7  A    between atoms: N_20  and  C_19 
REMARK       I    between atoms: C_22  and  N_20 
ROOT
ATOM      1  C   LIG d   1      -4.268  76.969 117.021  0.00  0.00     0.161 C 
ATOM      2  C   LIG d   1      -5.091  78.007 117.487  0.00  0.00     0.016 C 
ATOM      3  C   LIG d   1      -4.778  79.377 117.334  0.00  0.00     0.038 C 
ATOM      4  C   LIG d   1      -3.685  79.806 116.566  0.00  0.00     0.028 C 
ATOM      5  C   LIG d   1      -2.550  78.789 116.506  0.00  0.00    -0.047 C 
ATOM      6  C   LIG d   1      -3.127  77.419 116.084  0.00  0.00     0.091 C 
ENDROOT
BRANCH   1   7
ATOM      7  O   LIG d   1      -5.071  75.957 116.383  0.00  0.00    -0.368 OA
BRANCH   7   8
ATOM      8  C   LIG d   1      -6.281  76.419 115.735  0.00  0.00     0.119 C 
BRANCH   8   9
ATOM      9  C   LIG d   1      -7.436  75.517 116.213  0.00  0.00     0.028 C 
ATOM     10  C   LIG d   1      -6.937  74.188 116.804  0.00  0.00     0.006 C 
ENDBRANCH   8   9
BRANCH   8  11
ATOM     11  C   LIG d   1      -6.213  76.218 114.218  0.00  0.00     0.028 C 
ATOM     12  C   LIG d   1      -5.096  75.250 113.795  0.00  0.00     0.006 C 
ENDBRANCH   8  11
ENDBRANCH   7   8
ENDBRANCH   1   7
BRANCH   6  13
ATOM     13  N   LIG d   1      -2.098  76.347 116.081  0.00  0.00    -0.311 N 
ATOM     14  C   LIG d   1      -1.445  75.961 114.987  0.00  0.00     0.210 C 
ATOM     15  C   LIG d   1      -0.439  74.825 115.201  0.00  0.00     0.109 C 
ATOM     16  O   LIG d   1      -1.579  76.472 113.865  0.00  0.00    -0.276 OA
ATOM     17  H   LIG d   1      -1.903  75.899 116.955  0.00  0.00     0.149 HD
ENDBRANCH   6  13
BRANCH   5  18
ATOM     18  N   LIG d   1      -1.539  79.305 115.564  0.00  0.00     0.381 N 
ATOM     19  H   LIG d   1      -0.634  78.963 115.817  0.00  0.00    -0.090 HD
ATOM     20  H   LIG d   1      -1.524  80.309 115.620  0.00  0.00    -0.090 HD
ATOM     21  H   LIG d   1      -1.762  79.021 114.635  0.00  0.00    -0.090 HD
ENDBRANCH   5  18
BRANCH   3  22
ATOM     22  C   LIG d   1      -5.540  80.334 117.988  0.00  0.00     0.382 C 
ATOM     23  O   LIG d   1      -5.456  80.459 119.233  0.00  0.00    -0.241 OA
ATOM     24  O   LIG d   1      -6.343  81.043 117.353  0.00  0.00    -0.241 OA
ENDBRANCH   3  22
TORSDOF 7
ENDMDL
MODEL 4
REMARK VINA RESULT:      -4.6      3.208      6.012
REMARK  7 active torsions:
REMARK  status: ('A' for Active; 'I' for Inactive)
REMARK    1  A    between atoms: C_2  and  C_3 
REMARK    2  A    between atoms: C_3  and  O_6 
REMARK    3  A    between atoms: C_3  and  C_4 
REMARK    4  A    between atoms: C_7  and  O_6 
REMARK    5  A    between atoms: C_9  and  C_10 
REMARK    6  A    between atoms: N_15  and  C_14 
REMARK    7  A    between atoms: N_20  and  C_19 
REMARK       I    between atoms: C_22  and  N_20 
ROOT
ATOM      1  C   LIG d   1      -4.369  78.469 116.483  0.00  0.00     0.161 C 
ATOM      2  C   LIG d   1      -4.451  77.234 115.818  0.00  0.00     0.016 C 
ATOM      3  C   LIG d   1      -5.621  76.441 115.789  0.00  0.00     0.038 C 
ATOM      4  C   LIG d   1      -6.843  76.904 116.300  0.00  0.00     0.028 C 
ATOM      5  C   LIG d   1      -6.683  77.924 117.422  0.00  0.00    -0.047 C 
ATOM      6  C   LIG d   1      -5.724  79.041 116.952  0.00  0.00     0.091 C 
ENDROOT
BRANCH   1   7
ATOM      7  O   LIG d   1      -3.680  79.426 115.655  0.00  0.00    -0.368 OA
BRANCH   7   8
ATOM      8  C   LIG d   1      -2.671  78.889 114.765  0.00  0.00     0.119 C 
BRANCH   8   9
ATOM      9  C   LIG d   1      -1.303  79.075 115.449  0.00  0.00     0.028 C 
ATOM     10  C   LIG d   1      -0.651  77.736 115.832  0.00  0.00     0.006 C 
ENDBRANCH   8   9
BRANCH   8  11
ATOM     11  C   LIG d   1      -2.588  79.695 113.466  0.00  0.00     0.028 C 
ATOM     12  C   LIG d   1      -2.593  78.807 112.211  0.00  0.00     0.006 C 
ENDBRANCH   8  11
ENDBRANCH   7   8
ENDBRANCH   1   7
BRANCH   6  13
ATOM     13  N   LIG d   1      -5.446  80.037 118.020  0.00  0.00    -0.311 N 
ATOM     14  C   LIG d   1      -6.080  81.204 118.116  0.00  0.00     0.210 C 
ATOM     15  C   LIG d   1      -5.627  82.091 119.280  0.00  0.00     0.109 C 
ATOM     16  O   LIG d   1      -6.996  81.576 117.368  0.00  0.00    -0.276 OA
ATOM     17  H   LIG d   1      -4.738  79.803 118.688  0.00  0.00     0.149 HD
ENDBRANCH   6  13
BRANCH   5  18
ATOM     18  N   LIG d   1      -8.028  78.423 117.766  0.00  0.00     0.381 N 
ATOM     19  H   LIG d   1      -8.713  77.972 117.193  0.00  0.00    -0.090 HD
ATOM     20  H   LIG d   1      -8.065  79.410 117.583  0.00  0.00    -0.090 HD
ATOM     21  H   LIG d   1      -8.221  78.249 118.727  0.00  0.00    -0.090 HD
ENDBRANCH   5  18
BRANCH   3  22
ATOM     22  C   LIG d   1      -5.566  75.153 115.279  0.00  0.00     0.382 C 
ATOM     23  O   LIG d   1      -5.222  74.964 114.088  0.00  0.00    -0.241 OA
ATOM     24  O   LIG d   1      -5.898  74.180 115.983  0.00  0.00    -0.241 OA
ENDBRANCH   3  22
TORSDOF 7
ENDMDL
MODEL 5
REMARK VINA RESULT:      -4.5      2.691      4.105
REMARK  7 active torsions:
REMARK  status: ('A' for Active; 'I' for Inactive)
REMARK    1  A    between atoms: C_2  and  C_3 
REMARK    2  A    between atoms: C_3  and  O_6 
REMARK    3  A    between atoms: C_3  and  C_4 
REMARK    4  A    between atoms: C_7  and  O_6 
REMARK    5  A    between atoms: C_9  and  C_10 
REMARK    6  A    between atoms: N_15  and  C_14 
REMARK    7  A    between atoms: N_20  and  C_19 
REMARK       I    between atoms: C_22  and  N_20 
ROOT
ATOM      1  C   LIG d   1      -3.305  78.657 116.608  0.00  0.00     0.161 C 
ATOM      2  C   LIG d   1      -2.360  79.523 117.184  0.00  0.00     0.016 C 
ATOM      3  C   LIG d   1      -1.034  79.651 116.713  0.00  0.00     0.038 C 
ATOM      4  C   LIG d   1      -0.603  79.030 115.531  0.00  0.00     0.028 C 
ATOM      5  C   LIG d   1      -1.372  77.754 115.203  0.00  0.00    -0.047 C 
ATOM      6  C   LIG d   1      -2.887  78.055 115.251  0.00  0.00     0.091 C 
ENDROOT
BRANCH   1   7
ATOM      7  O   LIG d   1      -4.575  79.329 116.489  0.00  0.00    -0.368 OA
BRANCH   7   8
ATOM      8  C   LIG d   1      -5.548  79.041 117.522  0.00  0.00     0.119 C 
BRANCH   8   9
ATOM      9  C   LIG d   1      -6.493  77.952 116.977  0.00  0.00     0.028 C 
ATOM     10  C   LIG d   1      -6.255  76.584 117.639  0.00  0.00     0.006 C 
ENDBRANCH   8   9
BRANCH   8  11
ATOM     11  C   LIG d   1      -6.443  80.253 117.798  0.00  0.00     0.028 C 
ATOM     12  C   LIG d   1      -7.866  79.858 118.227  0.00  0.00     0.006 C 
ENDBRANCH   8  11
ENDBRANCH   7   8
ENDBRANCH   1   7
BRANCH   6  13
ATOM     13  N   LIG d   1      -3.713  76.840 115.024  0.00  0.00    -0.311 N 
ATOM     14  C   LIG d   1      -4.279  76.546 113.855  0.00  0.00     0.210 C 
ATOM     15  C   LIG d   1      -5.106  75.257 113.843  0.00  0.00     0.109 C 
ATOM     16  O   LIG d   1      -4.148  77.214 112.818  0.00  0.00    -0.276 OA
ATOM     17  H   LIG d   1      -3.845  76.226 115.804  0.00  0.00     0.149 HD
ENDBRANCH   6  13
BRANCH   5  18
ATOM     18  N   LIG d   1      -0.916  77.288 113.880  0.00  0.00     0.381 N 
ATOM     19  H   LIG d   1      -1.392  76.442 113.636  0.00  0.00    -0.090 HD
ATOM     20  H   LIG d   1       0.069  77.093 113.925  0.00  0.00    -0.090 HD
ATOM     21  H   LIG d   1      -1.093  77.986 113.192  0.00  0.00    -0.090 HD
ENDBRANCH   5  18
BRANCH   3  22
ATOM     22  C   LIG d   1      -0.110  80.377 117.449  0.00  0.00     0.382 C 
ATOM     23  O   LIG d   1       0.440  81.386 116.945  0.00  0.00    -0.241 OA
ATOM     24  O   LIG d   1       0.214  80.010 118.595  0.00  0.00    -0.241 OA
ENDBRANCH   3  22
TORSDOF 7
ENDMDL
MODEL 6
REMARK VINA RESULT:      -4.5      3.869      5.684
REMARK  7 active torsions:
REMARK  status: ('A' for Active; 'I' for Inactive)
REMARK    1  A    between atoms: C_2  and  C_3 
REMARK    2  A    between atoms: C_3  and  O_6 
REMARK    3  A    between atoms: C_3  and  C_4 
REMARK    4  A    between atoms: C_7  and  O_6 
REMARK    5  A    between atoms: C_9  and  C_10 
REMARK    6  A    between atoms: N_15  and  C_14 
REMARK    7  A    between atoms: N_20  and  C_19 
REMARK       I    between atoms: C_22  and  N_20 
ROOT
ATOM      1  C   LIG d   1      -6.474  79.393 118.167  0.00  0.00     0.161 C 
ATOM      2  C   LIG d   1      -5.847  80.546 118.668  0.00  0.00     0.016 C 
ATOM      3  C   LIG d   1      -4.473  80.827 118.484  0.00  0.00     0.038 C 
ATOM      4  C   LIG d   1      -3.661  80.042 117.651  0.00  0.00     0.028 C 
ATOM      5  C   LIG d   1      -4.130  78.595 117.537  0.00  0.00    -0.047 C 
ATOM      6  C   LIG d   1      -5.630  78.582 117.163  0.00  0.00     0.091 C 
ENDROOT
BRANCH   1   7
ATOM      7  O   LIG d   1      -7.746  79.742 117.585  0.00  0.00    -0.368 OA
BRANCH   7   8
ATOM      8  C   LIG d   1      -8.906  79.560 118.434  0.00  0.00     0.119 C 
BRANCH   8   9
ATOM      9  C   LIG d   1      -9.495  78.171 118.121  0.00  0.00     0.028 C 
ATOM     10  C   LIG d   1      -9.266  77.166 119.262  0.00  0.00     0.006 C 
ENDBRANCH   8   9
BRANCH   8  11
ATOM     11  C   LIG d   1     -10.014  80.558 118.084  0.00  0.00     0.028 C 
ATOM     12  C   LIG d   1      -9.473  81.960 117.762  0.00  0.00     0.006 C 
ENDBRANCH   8  11
ENDBRANCH   7   8
ENDBRANCH   1   7
BRANCH   6  13
ATOM     13  N   LIG d   1      -6.189  77.206 117.113  0.00  0.00    -0.311 N 
ATOM     14  C   LIG d   1      -6.293  76.497 115.990  0.00  0.00     0.210 C 
ATOM     15  C   LIG d   1      -6.916  75.108 116.158  0.00  0.00     0.109 C 
ATOM     16  O   LIG d   1      -5.898  76.874 114.876  0.00  0.00    -0.276 OA
ATOM     17  H   LIG d   1      -6.505  76.810 117.977  0.00  0.00     0.149 HD
ENDBRANCH   6  13
BRANCH   5  18
ATOM     18  N   LIG d   1      -3.277  77.929 116.534  0.00  0.00     0.381 N 
ATOM     19  H   LIG d   1      -3.833  77.648 115.751  0.00  0.00    -0.090 HD
ATOM     20  H   LIG d   1      -2.874  77.106 116.946  0.00  0.00    -0.090 HD
ATOM     21  H   LIG d   1      -2.556  78.547 116.235  0.00  0.00    -0.090 HD
ENDBRANCH   5  18
BRANCH   3  22
ATOM     22  C   LIG d   1      -3.889  81.881 119.169  0.00  0.00     0.382 C 
ATOM     23  O   LIG d   1      -2.661  81.859 119.425  0.00  0.00    -0.241 OA
ATOM     24  O   LIG d   1      -4.583  82.833 119.574  0.00  0.00    -0.241 OA
ENDBRANCH   3  22
TORSDOF 7
ENDMDL
MODEL 7
REMARK VINA RESULT:      -4.5      2.799      4.202
REMARK  7 active torsions:
REMARK  status: ('A' for Active; 'I' for Inactive)
REMARK    1  A    between atoms: C_2  and  C_3 
REMARK    2  A    between atoms: C_3  and  O_6 
REMARK    3  A    between atoms: C_3  and  C_4 
REMARK    4  A    between atoms: C_7  and  O_6 
REMARK    5  A    between atoms: C_9  and  C_10 
REMARK    6  A    between atoms: N_15  and  C_14 
REMARK    7  A    between atoms: N_20  and  C_19 
REMARK       I    between atoms: C_22  and  N_20 
ROOT
ATOM      1  C   LIG d   1      -5.127  77.980 117.186  0.00  0.00     0.161 C 
ATOM      2  C   LIG d   1      -5.807  79.201 117.321  0.00  0.00     0.016 C 
ATOM      3  C   LIG d   1      -5.173  80.408 117.696  0.00  0.00     0.038 C 
ATOM      4  C   LIG d   1      -3.779  80.507 117.817  0.00  0.00     0.028 C 
ATOM      5  C   LIG d   1      -3.108  79.187 118.183  0.00  0.00    -0.047 C 
ATOM      6  C   LIG d   1      -3.588  78.091 117.205  0.00  0.00     0.091 C 
ENDROOT
BRANCH   1   7
ATOM      7  O   LIG d   1      -5.566  77.305 115.991  0.00  0.00    -0.368 OA
BRANCH   7   8
ATOM      8  C   LIG d   1      -6.211  76.022 116.183  0.00  0.00     0.119 C 
BRANCH   8   9
ATOM      9  C   LIG d   1      -5.642  75.055 115.126  0.00  0.00     0.028 C 
ATOM     10  C   LIG d   1      -4.869  75.787 114.017  0.00  0.00     0.006 C 
ENDBRANCH   8   9
BRANCH   8  11
ATOM     11  C   LIG d   1      -7.712  76.104 115.891  0.00  0.00     0.028 C 
ATOM     12  C   LIG d   1      -8.504  76.774 117.025  0.00  0.00     0.006 C 
ENDBRANCH   8  11
ENDBRANCH   7   8
ENDBRANCH   1   7
BRANCH   6  13
ATOM     13  N   LIG d   1      -3.044  76.750 117.545  0.00  0.00    -0.311 N 
ATOM     14  C   LIG d   1      -2.225  76.068 116.747  0.00  0.00     0.210 C 
ATOM     15  C   LIG d   1      -1.798  74.696 117.279  0.00  0.00     0.109 C 
ATOM     16  O   LIG d   1      -1.786  76.482 115.664  0.00  0.00    -0.276 OA
ATOM     17  H   LIG d   1      -3.324  76.353 118.420  0.00  0.00     0.149 HD
ENDBRANCH   6  13
BRANCH   5  18
ATOM     18  N   LIG d   1      -1.649  79.402 118.140  0.00  0.00     0.381 N 
ATOM     19  H   LIG d   1      -1.453  80.381 118.075  0.00  0.00    -0.090 HD
ATOM     20  H   LIG d   1      -1.278  78.951 117.322  0.00  0.00    -0.090 HD
ATOM     21  H   LIG d   1      -1.224  79.025 118.958  0.00  0.00    -0.090 HD
ENDBRANCH   5  18
BRANCH   3  22
ATOM     22  C   LIG d   1      -5.941  81.523 117.995  0.00  0.00     0.382 C 
ATOM     23  O   LIG d   1      -5.636  82.251 118.971  0.00  0.00    -0.241 OA
ATOM     24  O   LIG d   1      -6.959  81.787 117.328  0.00  0.00    -0.241 OA
ENDBRANCH   3  22
TORSDOF 7
ENDMDL
MODEL 8
REMARK VINA RESULT:      -4.4      2.855      4.549
REMARK  7 active torsions:
REMARK  status: ('A' for Active; 'I' for Inactive)
REMARK    1  A    between atoms: C_2  and  C_3 
REMARK    2  A    between atoms: C_3  and  O_6 
REMARK    3  A    between atoms: C_3  and  C_4 
REMARK    4  A    between atoms: C_7  and  O_6 
REMARK    5  A    between atoms: C_9  and  C_10 
REMARK    6  A    between atoms: N_15  and  C_14 
REMARK    7  A    between atoms: N_20  and  C_19 
REMARK       I    between atoms: C_22  and  N_20 
ROOT
ATOM      1  C   LIG d   1      -4.994  78.183 117.094  0.00  0.00     0.161 C 
ATOM      2  C   LIG d   1      -4.490  79.241 117.869  0.00  0.00     0.016 C 
ATOM      3  C   LIG d   1      -3.235  79.848 117.636  0.00  0.00     0.038 C 
ATOM      4  C   LIG d   1      -2.459  79.537 116.509  0.00  0.00     0.028 C 
ATOM      5  C   LIG d   1      -2.692  78.124 115.984  0.00  0.00    -0.047 C 
ATOM      6  C   LIG d   1      -4.211  77.904 115.794  0.00  0.00     0.091 C 
ENDROOT
BRANCH   1   7
ATOM      7  O   LIG d   1      -6.386  78.411 116.801  0.00  0.00    -0.368 OA
BRANCH   7   8
ATOM      8  C   LIG d   1      -7.303  78.270 117.914  0.00  0.00     0.119 C 
BRANCH   8   9
ATOM      9  C   LIG d   1      -8.116  76.981 117.684  0.00  0.00     0.028 C 
ATOM     10  C   LIG d   1      -7.946  76.426 116.259  0.00  0.00     0.006 C 
ENDBRANCH   8   9
BRANCH   8  11
ATOM     11  C   LIG d   1      -8.335  79.401 117.933  0.00  0.00     0.028 C 
ATOM     12  C   LIG d   1      -9.717  78.940 118.422  0.00  0.00     0.006 C 
ENDBRANCH   8  11
ENDBRANCH   7   8
ENDBRANCH   1   7
BRANCH   6  13
ATOM     13  N   LIG d   1      -4.533  76.519 115.362  0.00  0.00    -0.311 N 
ATOM     14  C   LIG d   1      -4.648  76.157 114.086  0.00  0.00     0.210 C 
ATOM     15  C   LIG d   1      -5.006  74.684 113.861  0.00  0.00     0.109 C 
ATOM     16  O   LIG d   1      -4.457  76.908 113.118  0.00  0.00    -0.276 OA
ATOM     17  H   LIG d   1      -4.673  75.838 116.083  0.00  0.00     0.149 HD
ENDBRANCH   6  13
BRANCH   5  18
ATOM     18  N   LIG d   1      -1.926  77.982 114.732  0.00  0.00     0.381 N 
ATOM     19  H   LIG d   1      -0.976  78.259 114.883  0.00  0.00    -0.090 HD
ATOM     20  H   LIG d   1      -2.324  78.587 114.036  0.00  0.00    -0.090 HD
ATOM     21  H   LIG d   1      -1.958  77.037 114.419  0.00  0.00    -0.090 HD
ENDBRANCH   5  18
BRANCH   3  22
ATOM     22  C   LIG d   1      -2.726  80.751 118.557  0.00  0.00     0.382 C 
ATOM     23  O   LIG d   1      -3.487  81.275 119.407  0.00  0.00    -0.241 OA
ATOM     24  O   LIG d   1      -1.526  81.081 118.521  0.00  0.00    -0.241 OA
ENDBRANCH   3  22
TORSDOF 7
ENDMDL
MODEL 9
REMARK VINA RESULT:      -4.3      4.137      6.548
REMARK  7 active torsions:
REMARK  status: ('A' for Active; 'I' for Inactive)
REMARK    1  A    between atoms: C_2  and  C_3 
REMARK    2  A    between atoms: C_3  and  O_6 
REMARK    3  A    between atoms: C_3  and  C_4 
REMARK    4  A    between atoms: C_7  and  O_6 
REMARK    5  A    between atoms: C_9  and  C_10 
REMARK    6  A    between atoms: N_15  and  C_14 
REMARK    7  A    between atoms: N_20  and  C_19 
REMARK       I    between atoms: C_22  and  N_20 
ROOT
ATOM      1  C   LIG d   1      -6.397  78.864 117.599  0.00  0.00     0.161 C 
ATOM      2  C   LIG d   1      -6.711  80.179 117.982  0.00  0.00     0.016 C 
ATOM      3  C   LIG d   1      -7.997  80.577 118.415  0.00  0.00     0.038 C 
ATOM      4  C   LIG d   1      -9.024  79.649 118.640  0.00  0.00     0.028 C 
ATOM      5  C   LIG d   1      -8.901  78.391 117.787  0.00  0.00    -0.047 C 
ATOM      6  C   LIG d   1      -7.475  77.815 117.944  0.00  0.00     0.091 C 
ENDROOT
BRANCH   1   7
ATOM      7  O   LIG d   1      -5.127  78.481 118.163  0.00  0.00    -0.368 OA
BRANCH   7   8
ATOM      8  C   LIG d   1      -4.119  78.039 117.221  0.00  0.00     0.119 C 
BRANCH   8   9
ATOM      9  C   LIG d   1      -3.297  76.932 117.908  0.00  0.00     0.028 C 
ATOM     10  C   LIG d   1      -3.330  75.607 117.129  0.00  0.00     0.006 C 
ENDBRANCH   8   9
BRANCH   8  11
ATOM     11  C   LIG d   1      -3.117  79.156 116.913  0.00  0.00     0.028 C 
ATOM     12  C   LIG d   1      -2.904  79.366 115.405  0.00  0.00     0.006 C 
ENDBRANCH   8  11
ENDBRANCH   7   8
ENDBRANCH   1   7
BRANCH   6  13
ATOM     13  N   LIG d   1      -7.244  76.631 117.077  0.00  0.00    -0.311 N 
ATOM     14  C   LIG d   1      -7.023  75.406 117.553  0.00  0.00     0.210 C 
ATOM     15  C   LIG d   1      -6.789  74.331 116.487  0.00  0.00     0.109 C 
ATOM     16  O   LIG d   1      -7.032  75.102 118.755  0.00  0.00    -0.276 OA
ATOM     17  H   LIG d   1      -7.251  76.781 116.087  0.00  0.00     0.149 HD
ENDBRANCH   6  13
BRANCH   5  18
ATOM     18  N   LIG d   1      -9.954  77.454 118.221  0.00  0.00     0.381 N 
ATOM     19  H   LIG d   1      -9.555  76.554 118.398  0.00  0.00    -0.090 HD
ATOM     20  H   LIG d   1     -10.630  77.359 117.483  0.00  0.00    -0.090 HD
ATOM     21  H   LIG d   1     -10.397  77.796 119.045  0.00  0.00    -0.090 HD
ENDBRANCH   5  18
BRANCH   3  22
ATOM     22  C   LIG d   1      -8.276  81.924 118.590  0.00  0.00     0.382 C 
ATOM     23  O   LIG d   1      -7.342  82.738 118.788  0.00  0.00    -0.241 OA
ATOM     24  O   LIG d   1      -9.454  82.329 118.595  0.00  0.00    -0.241 OA
ENDBRANCH   3  22
TORSDOF 7
ENDMDL
