MODEL 1
REMARK VINA RESULT:      -4.6      0.000      0.000
REMARK  7 active torsions:
REMARK  status: ('A' for Active; 'I' for Inactive)
REMARK    1  A    between atoms: C_2  and  C_3 
REMARK    2  A    between atoms: C_3  and  O_6 
REMARK    3  A    between atoms: C_3  and  C_4 
REMARK    4  A    between atoms: C_7  and  O_6 
REMARK    5  A    between atoms: C_9  and  C_10 
REMARK    6  A    between atoms: N_15  and  C_14 
REMARK    7  A    between atoms: N_20  and  C_19 
REMARK       I    between atoms: C_22  and  N_20 
ROOT
ATOM      1  C   LIG d   1      -3.271  77.794 115.865  0.00  0.00     0.161 C 
ATOM      2  C   LIG d   1      -3.329  78.675 114.772  0.00  0.00     0.016 C 
ATOM      3  C   LIG d   1      -2.429  78.624 113.683  0.00  0.00     0.038 C 
ATOM      4  C   LIG d   1      -1.498  77.585 113.539  0.00  0.00     0.028 C 
ATOM      5  C   LIG d   1      -1.069  76.968 114.865  0.00  0.00    -0.047 C 
ATOM      6  C   LIG d   1      -2.331  76.585 115.672  0.00  0.00     0.091 C 
ENDROOT
BRANCH   1   7
ATOM      7  O   LIG d   1      -4.598  77.348 116.204  0.00  0.00    -0.368 OA
BRANCH   7   8
ATOM      8  C   LIG d   1      -5.059  77.673 117.539  0.00  0.00     0.119 C 
BRANCH   8   9
ATOM      9  C   LIG d   1      -6.183  76.681 117.895  0.00  0.00     0.028 C 
ATOM     10  C   LIG d   1      -6.476  75.692 116.755  0.00  0.00     0.006 C 
ENDBRANCH   8   9
BRANCH   8  11
ATOM     11  C   LIG d   1      -5.711  79.058 117.582  0.00  0.00     0.028 C 
ATOM     12  C   LIG d   1      -5.361  79.843 118.856  0.00  0.00     0.006 C 
ENDBRANCH   8  11
ENDBRANCH   7   8
ENDBRANCH   1   7
BRANCH   6  13
ATOM     13  N   LIG d   1      -2.003  76.051 117.019  0.00  0.00    -0.311 N 
ATOM     14  C   LIG d   1      -2.526  74.929 117.511  0.00  0.00     0.210 C 
ATOM     15  C   LIG d   1      -2.068  74.569 118.927  0.00  0.00     0.109 C 
ATOM     16  O   LIG d   1      -3.300  74.181 116.895  0.00  0.00    -0.276 OA
ATOM     17  H   LIG d   1      -1.358  76.579 117.575  0.00  0.00     0.149 HD
ENDBRANCH   6  13
BRANCH   5  18
ATOM     18  N   LIG d   1      -0.206  75.811 114.560  0.00  0.00     0.381 N 
ATOM     19  H   LIG d   1      -0.763  75.053 114.220  0.00  0.00    -0.090 HD
ATOM     20  H   LIG d   1       0.249  75.513 115.406  0.00  0.00    -0.090 HD
ATOM     21  H   LIG d   1       0.476  76.065 113.880  0.00  0.00    -0.090 HD
ENDBRANCH   5  18
BRANCH   3  22
ATOM     22  C   LIG d   1      -2.430  79.643 112.742  0.00  0.00     0.382 C 
ATOM     23  O   LIG d   1      -1.482  79.745 111.927  0.00  0.00    -0.241 OA
ATOM     24  O   LIG d   1      -3.345  80.488 112.727  0.00  0.00    -0.241 OA
ENDBRANCH   3  22
TORSDOF 7
ENDMDL
MODEL 2
REMARK VINA RESULT:      -4.6      1.221      1.930
REMARK  7 active torsions:
REMARK  status: ('A' for Active; 'I' for Inactive)
REMARK    1  A    between atoms: C_2  and  C_3 
REMARK    2  A    between atoms: C_3  and  O_6 
REMARK    3  A    between atoms: C_3  and  C_4 
REMARK    4  A    between atoms: C_7  and  O_6 
REMARK    5  A    between atoms: C_9  and  C_10 
REMARK    6  A    between atoms: N_15  and  C_14 
REMARK    7  A    between atoms: N_20  and  C_19 
REMARK       I    between atoms: C_22  and  N_20 
ROOT
ATOM      1  C   LIG d   1      -2.117  77.543 116.649  0.00  0.00     0.161 C 
ATOM      2  C   LIG d   1      -2.334  78.355 115.524  0.00  0.00     0.016 C 
ATOM      3  C   LIG d   1      -1.930  77.999 114.217  0.00  0.00     0.038 C 
ATOM      4  C   LIG d   1      -1.413  76.728 113.922  0.00  0.00     0.028 C 
ATOM      5  C   LIG d   1      -0.713  76.069 115.105  0.00  0.00    -0.047 C 
ATOM      6  C   LIG d   1      -1.655  76.106 116.330  0.00  0.00     0.091 C 
ENDROOT
BRANCH   1   7
ATOM      7  O   LIG d   1      -3.303  77.517 117.469  0.00  0.00    -0.368 OA
BRANCH   7   8
ATOM      8  C   LIG d   1      -4.553  77.796 116.791  0.00  0.00     0.119 C 
BRANCH   8   9
ATOM      9  C   LIG d   1      -5.343  78.787 117.666  0.00  0.00     0.028 C 
ATOM     10  C   LIG d   1      -6.853  78.495 117.666  0.00  0.00     0.006 C 
ENDBRANCH   8   9
BRANCH   8  11
ATOM     11  C   LIG d   1      -5.430  76.543 116.703  0.00  0.00     0.028 C 
ATOM     12  C   LIG d   1      -5.299  75.818 115.355  0.00  0.00     0.006 C 
ENDBRANCH   8  11
ENDBRANCH   7   8
ENDBRANCH   1   7
BRANCH   6  13
ATOM     13  N   LIG d   1      -1.016  75.556 117.554  0.00  0.00    -0.311 N 
ATOM     14  C   LIG d   1      -1.609  74.677 118.359  0.00  0.00     0.210 C 
ATOM     15  C   LIG d   1      -0.781  74.255 119.577  0.00  0.00     0.109 C 
ATOM     16  O   LIG d   1      -2.729  74.182 118.163  0.00  0.00    -0.276 OA
ATOM     17  H   LIG d   1      -0.094  75.880 117.771  0.00  0.00     0.149 HD
ENDBRANCH   6  13
BRANCH   5  18
ATOM     18  N   LIG d   1      -0.345  74.700 114.699  0.00  0.00     0.381 N 
ATOM     19  H   LIG d   1      -1.147  74.104 114.753  0.00  0.00    -0.090 HD
ATOM     20  H   LIG d   1       0.352  74.349 115.332  0.00  0.00    -0.090 HD
ATOM     21  H   LIG d   1       0.013  74.704 113.769  0.00  0.00    -0.090 HD
ENDBRANCH   5  18
BRANCH   3  22
ATOM     22  C   LIG d   1      -2.005  78.933 113.195  0.00  0.00     0.382 C 
ATOM     23  O   LIG d   1      -1.058  79.734 113.008  0.00  0.00    -0.241 OA
ATOM     24  O   LIG d   1      -3.026  79.014 112.487  0.00  0.00    -0.241 OA
ENDBRANCH   3  22
TORSDOF 7
ENDMDL
MODEL 3
REMARK VINA RESULT:      -4.5      1.427      1.857
REMARK  7 active torsions:
REMARK  status: ('A' for Active; 'I' for Inactive)
REMARK    1  A    between atoms: C_2  and  C_3 
REMARK    2  A    between atoms: C_3  and  O_6 
REMARK    3  A    between atoms: C_3  and  C_4 
REMARK    4  A    between atoms: C_7  and  O_6 
REMARK    5  A    between atoms: C_9  and  C_10 
REMARK    6  A    between atoms: N_15  and  C_14 
REMARK    7  A    between atoms: N_20  and  C_19 
REMARK       I    between atoms: C_22  and  N_20 
ROOT
ATOM      1  C   LIG d   1      -3.324  76.150 115.891  0.00  0.00     0.161 C 
ATOM      2  C   LIG d   1      -3.281  77.189 114.947  0.00  0.00     0.016 C 
ATOM      3  C   LIG d   1      -2.129  77.509 114.193  0.00  0.00     0.038 C 
ATOM      4  C   LIG d   1      -0.978  76.708 114.223  0.00  0.00     0.028 C 
ATOM      5  C   LIG d   1      -0.802  75.948 115.533  0.00  0.00    -0.047 C 
ATOM      6  C   LIG d   1      -2.112  75.195 115.857  0.00  0.00     0.091 C 
ENDROOT
BRANCH   1   7
ATOM      7  O   LIG d   1      -4.551  75.408 115.746  0.00  0.00    -0.368 OA
BRANCH   7   8
ATOM      8  C   LIG d   1      -5.502  75.529 116.832  0.00  0.00     0.119 C 
BRANCH   8   9
ATOM      9  C   LIG d   1      -6.236  74.180 116.958  0.00  0.00     0.028 C 
ATOM     10  C   LIG d   1      -7.765  74.335 116.887  0.00  0.00     0.006 C 
ENDBRANCH   8   9
BRANCH   8  11
ATOM     11  C   LIG d   1      -6.592  76.555 116.506  0.00  0.00     0.028 C 
ATOM     12  C   LIG d   1      -6.384  77.896 117.228  0.00  0.00     0.006 C 
ENDBRANCH   8  11
ENDBRANCH   7   8
ENDBRANCH   1   7
BRANCH   6  13
ATOM     13  N   LIG d   1      -2.055  74.493 117.166  0.00  0.00    -0.311 N 
ATOM     14  C   LIG d   1      -1.726  75.097 118.307  0.00  0.00     0.210 C 
ATOM     15  C   LIG d   1      -1.709  74.185 119.538  0.00  0.00     0.109 C 
ATOM     16  O   LIG d   1      -1.479  76.306 118.421  0.00  0.00    -0.276 OA
ATOM     17  H   LIG d   1      -2.272  73.516 117.169  0.00  0.00     0.149 HD
ENDBRANCH   6  13
BRANCH   5  18
ATOM     18  N   LIG d   1       0.358  75.050 115.376  0.00  0.00     0.381 N 
ATOM     19  H   LIG d   1       1.023  75.462 114.752  0.00  0.00    -0.090 HD
ATOM     20  H   LIG d   1       0.045  74.183 114.976  0.00  0.00    -0.090 HD
ATOM     21  H   LIG d   1       0.782  74.882 116.262  0.00  0.00    -0.090 HD
ENDBRANCH   5  18
BRANCH   3  22
ATOM     22  C   LIG d   1      -2.107  78.665 113.427  0.00  0.00     0.382 C 
ATOM     23  O   LIG d   1      -1.025  79.269 113.235  0.00  0.00    -0.241 OA
ATOM     24  O   LIG d   1      -3.164  79.135 112.964  0.00  0.00    -0.241 OA
ENDBRANCH   3  22
TORSDOF 7
ENDMDL
MODEL 4
REMARK VINA RESULT:      -4.5      3.161      5.408
REMARK  7 active torsions:
REMARK  status: ('A' for Active; 'I' for Inactive)
REMARK    1  A    between atoms: C_2  and  C_3 
REMARK    2  A    between atoms: C_3  and  O_6 
REMARK    3  A    between atoms: C_3  and  C_4 
REMARK    4  A    between atoms: C_7  and  O_6 
REMARK    5  A    between atoms: C_9  and  C_10 
REMARK    6  A    between atoms: N_15  and  C_14 
REMARK    7  A    between atoms: N_20  and  C_19 
REMARK       I    between atoms: C_22  and  N_20 
ROOT
ATOM      1  C   LIG d   1      -6.606  77.696 117.434  0.00  0.00     0.161 C 
ATOM      2  C   LIG d   1      -5.867  77.012 116.454  0.00  0.00     0.016 C 
ATOM      3  C   LIG d   1      -4.463  77.114 116.326  0.00  0.00     0.038 C 
ATOM      4  C   LIG d   1      -3.679  77.794 117.270  0.00  0.00     0.028 C 
ATOM      5  C   LIG d   1      -4.428  78.915 117.984  0.00  0.00    -0.047 C 
ATOM      6  C   LIG d   1      -5.756  78.355 118.541  0.00  0.00     0.091 C 
ENDROOT
BRANCH   1   7
ATOM      7  O   LIG d   1      -7.586  76.812 118.013  0.00  0.00    -0.368 OA
BRANCH   7   8
ATOM      8  C   LIG d   1      -8.591  76.295 117.108  0.00  0.00     0.119 C 
BRANCH   8   9
ATOM      9  C   LIG d   1      -9.968  76.720 117.653  0.00  0.00     0.028 C 
ATOM     10  C   LIG d   1      -9.882  77.952 118.569  0.00  0.00     0.006 C 
ENDBRANCH   8   9
BRANCH   8  11
ATOM     11  C   LIG d   1      -8.609  74.763 117.111  0.00  0.00     0.028 C 
ATOM     12  C   LIG d   1      -9.892  74.180 116.498  0.00  0.00     0.006 C 
ENDBRANCH   8  11
ENDBRANCH   7   8
ENDBRANCH   1   7
BRANCH   6  13
ATOM     13  N   LIG d   1      -6.590  79.405 119.182  0.00  0.00    -0.311 N 
ATOM     14  C   LIG d   1      -7.087  80.450 118.523  0.00  0.00     0.210 C 
ATOM     15  C   LIG d   1      -7.903  81.426 119.378  0.00  0.00     0.109 C 
ATOM     16  O   LIG d   1      -6.958  80.645 117.305  0.00  0.00    -0.276 OA
ATOM     17  H   LIG d   1      -6.770  79.310 120.162  0.00  0.00     0.149 HD
ENDBRANCH   6  13
BRANCH   5  18
ATOM     18  N   LIG d   1      -3.538  79.447 119.034  0.00  0.00     0.381 N 
ATOM     19  H   LIG d   1      -3.535  80.446 119.001  0.00  0.00    -0.090 HD
ATOM     20  H   LIG d   1      -2.603  79.122 118.862  0.00  0.00    -0.090 HD
ATOM     21  H   LIG d   1      -3.846  79.137 119.929  0.00  0.00    -0.090 HD
ENDBRANCH   5  18
BRANCH   3  22
ATOM     22  C   LIG d   1      -3.832  76.565 115.220  0.00  0.00     0.382 C 
ATOM     23  O   LIG d   1      -2.741  75.961 115.356  0.00  0.00    -0.241 OA
ATOM     24  O   LIG d   1      -4.319  76.702 114.081  0.00  0.00    -0.241 OA
ENDBRANCH   3  22
TORSDOF 7
ENDMDL
MODEL 5
REMARK VINA RESULT:      -4.4      2.495      5.234
REMARK  7 active torsions:
REMARK  status: ('A' for Active; 'I' for Inactive)
REMARK    1  A    between atoms: C_2  and  C_3 
REMARK    2  A    between atoms: C_3  and  O_6 
REMARK    3  A    between atoms: C_3  and  C_4 
REMARK    4  A    between atoms: C_7  and  O_6 
REMARK    5  A    between atoms: C_9  and  C_10 
REMARK    6  A    between atoms: N_15  and  C_14 
REMARK    7  A    between atoms: N_20  and  C_19 
REMARK       I    between atoms: C_22  and  N_20 
ROOT
ATOM      1  C   LIG d   1      -5.581  77.307 116.462  0.00  0.00     0.161 C 
ATOM      2  C   LIG d   1      -6.636  76.698 117.162  0.00  0.00     0.016 C 
ATOM      3  C   LIG d   1      -6.601  75.358 117.611  0.00  0.00     0.038 C 
ATOM      4  C   LIG d   1      -5.439  74.577 117.522  0.00  0.00     0.028 C 
ATOM      5  C   LIG d   1      -4.522  74.984 116.373  0.00  0.00    -0.047 C 
ATOM      6  C   LIG d   1      -4.263  76.505 116.453  0.00  0.00     0.091 C 
ENDROOT
BRANCH   1   7
ATOM      7  O   LIG d   1      -5.356  78.635 116.976  0.00  0.00    -0.368 OA
BRANCH   7   8
ATOM      8  C   LIG d   1      -5.948  78.928 118.266  0.00  0.00     0.119 C 
BRANCH   8   9
ATOM      9  C   LIG d   1      -6.779  80.217 118.111  0.00  0.00     0.028 C 
ATOM     10  C   LIG d   1      -8.292  79.944 118.123  0.00  0.00     0.006 C 
ENDBRANCH   8   9
BRANCH   8  11
ATOM     11  C   LIG d   1      -4.876  79.259 119.308  0.00  0.00     0.028 C 
ATOM     12  C   LIG d   1      -3.452  79.219 118.732  0.00  0.00     0.006 C 
ENDBRANCH   8  11
ENDBRANCH   7   8
ENDBRANCH   1   7
BRANCH   6  13
ATOM     13  N   LIG d   1      -3.443  77.001 115.317  0.00  0.00    -0.311 N 
ATOM     14  C   LIG d   1      -2.118  77.133 115.372  0.00  0.00     0.210 C 
ATOM     15  C   LIG d   1      -1.470  77.680 114.096  0.00  0.00     0.109 C 
ATOM     16  O   LIG d   1      -1.416  76.817 116.344  0.00  0.00    -0.276 OA
ATOM     17  H   LIG d   1      -3.929  77.251 114.478  0.00  0.00     0.149 HD
ENDBRANCH   6  13
BRANCH   5  18
ATOM     18  N   LIG d   1      -3.289  74.181 116.481  0.00  0.00     0.381 N 
ATOM     19  H   LIG d   1      -2.620  74.662 117.049  0.00  0.00    -0.090 HD
ATOM     20  H   LIG d   1      -2.897  74.062 115.563  0.00  0.00    -0.090 HD
ATOM     21  H   LIG d   1      -3.496  73.291 116.879  0.00  0.00    -0.090 HD
ENDBRANCH   5  18
BRANCH   3  22
ATOM     22  C   LIG d   1      -7.750  74.774 118.121  0.00  0.00     0.382 C 
ATOM     23  O   LIG d   1      -7.802  74.444 119.330  0.00  0.00    -0.241 OA
ATOM     24  O   LIG d   1      -8.719  74.532 117.377  0.00  0.00    -0.241 OA
ENDBRANCH   3  22
TORSDOF 7
ENDMDL
MODEL 6
REMARK VINA RESULT:      -4.4      3.928      6.389
REMARK  7 active torsions:
REMARK  status: ('A' for Active; 'I' for Inactive)
REMARK    1  A    between atoms: C_2  and  C_3 
REMARK    2  A    between atoms: C_3  and  O_6 
REMARK    3  A    between atoms: C_3  and  C_4 
REMARK    4  A    between atoms: C_7  and  O_6 
REMARK    5  A    between atoms: C_9  and  C_10 
REMARK    6  A    between atoms: N_15  and  C_14 
REMARK    7  A    between atoms: N_20  and  C_19 
REMARK       I    between atoms: C_22  and  N_20 
ROOT
ATOM      1  C   LIG d   1      -6.458  78.756 117.772  0.00  0.00     0.161 C 
ATOM      2  C   LIG d   1      -6.679  80.105 118.095  0.00  0.00     0.016 C 
ATOM      3  C   LIG d   1      -7.920  80.602 118.557  0.00  0.00     0.038 C 
ATOM      4  C   LIG d   1      -8.988  79.749 118.874  0.00  0.00     0.028 C 
ATOM      5  C   LIG d   1      -8.975  78.443 118.086  0.00  0.00    -0.047 C 
ATOM      6  C   LIG d   1      -7.578  77.793 118.217  0.00  0.00     0.091 C 
ENDROOT
BRANCH   1   7
ATOM      7  O   LIG d   1      -5.189  78.328 118.305  0.00  0.00    -0.368 OA
BRANCH   7   8
ATOM      8  C   LIG d   1      -4.101  78.226 117.354  0.00  0.00     0.119 C 
BRANCH   8   9
ATOM      9  C   LIG d   1      -3.918  76.734 117.018  0.00  0.00     0.028 C 
ATOM     10  C   LIG d   1      -4.354  76.398 115.582  0.00  0.00     0.006 C 
ENDBRANCH   8   9
BRANCH   8  11
ATOM     11  C   LIG d   1      -2.773  78.667 117.977  0.00  0.00     0.028 C 
ATOM     12  C   LIG d   1      -1.598  78.595 116.989  0.00  0.00     0.006 C 
ENDBRANCH   8  11
ENDBRANCH   7   8
ENDBRANCH   1   7
BRANCH   6  13
ATOM     13  N   LIG d   1      -7.453  76.553 117.407  0.00  0.00    -0.311 N 
ATOM     14  C   LIG d   1      -7.581  75.329 117.917  0.00  0.00     0.210 C 
ATOM     15  C   LIG d   1      -7.395  74.187 116.912  0.00  0.00     0.109 C 
ATOM     16  O   LIG d   1      -7.864  75.080 119.098  0.00  0.00    -0.276 OA
ATOM     17  H   LIG d   1      -7.255  76.663 116.432  0.00  0.00     0.149 HD
ENDBRANCH   6  13
BRANCH   5  18
ATOM     18  N   LIG d   1     -10.060  77.594 118.613  0.00  0.00     0.381 N 
ATOM     19  H   LIG d   1     -10.019  77.574 119.612  0.00  0.00    -0.090 HD
ATOM     20  H   LIG d   1      -9.933  76.657 118.273  0.00  0.00    -0.090 HD
ATOM     21  H   LIG d   1     -10.943  77.946 118.316  0.00  0.00    -0.090 HD
ENDBRANCH   5  18
BRANCH   3  22
ATOM     22  C   LIG d   1      -8.114  81.970 118.669  0.00  0.00     0.382 C 
ATOM     23  O   LIG d   1      -9.183  82.487 118.264  0.00  0.00    -0.241 OA
ATOM     24  O   LIG d   1      -7.216  82.700 119.129  0.00  0.00    -0.241 OA
ENDBRANCH   3  22
TORSDOF 7
ENDMDL
MODEL 7
REMARK VINA RESULT:      -4.3      3.906      6.005
REMARK  7 active torsions:
REMARK  status: ('A' for Active; 'I' for Inactive)
REMARK    1  A    between atoms: C_2  and  C_3 
REMARK    2  A    between atoms: C_3  and  O_6 
REMARK    3  A    between atoms: C_3  and  C_4 
REMARK    4  A    between atoms: C_7  and  O_6 
REMARK    5  A    between atoms: C_9  and  C_10 
REMARK    6  A    between atoms: N_15  and  C_14 
REMARK    7  A    between atoms: N_20  and  C_19 
REMARK       I    between atoms: C_22  and  N_20 
ROOT
ATOM      1  C   LIG d   1      -7.024  76.437 119.256  0.00  0.00     0.161 C 
ATOM      2  C   LIG d   1      -8.217  77.159 119.082  0.00  0.00     0.016 C 
ATOM      3  C   LIG d   1      -8.254  78.529 118.737  0.00  0.00     0.038 C 
ATOM      4  C   LIG d   1      -7.094  79.239 118.392  0.00  0.00     0.028 C 
ATOM      5  C   LIG d   1      -5.830  78.687 119.042  0.00  0.00    -0.047 C 
ATOM      6  C   LIG d   1      -5.752  77.166 118.775  0.00  0.00     0.091 C 
ENDROOT
BRANCH   1   7
ATOM      7  O   LIG d   1      -7.135  75.149 118.619  0.00  0.00    -0.368 OA
BRANCH   7   8
ATOM      8  C   LIG d   1      -7.400  75.164 117.194  0.00  0.00     0.119 C 
BRANCH   8   9
ATOM      9  C   LIG d   1      -8.557  74.181 116.929  0.00  0.00     0.028 C 
ATOM     10  C   LIG d   1      -9.863  74.901 116.551  0.00  0.00     0.006 C 
ENDBRANCH   8   9
BRANCH   8  11
ATOM     11  C   LIG d   1      -6.211  74.614 116.401  0.00  0.00     0.028 C 
ATOM     12  C   LIG d   1      -5.591  75.656 115.457  0.00  0.00     0.006 C 
ENDBRANCH   8  11
ENDBRANCH   7   8
ENDBRANCH   1   7
BRANCH   6  13
ATOM     13  N   LIG d   1      -4.588  76.532 119.448  0.00  0.00    -0.311 N 
ATOM     14  C   LIG d   1      -3.417  76.327 118.849  0.00  0.00     0.210 C 
ATOM     15  C   LIG d   1      -2.358  75.640 119.717  0.00  0.00     0.109 C 
ATOM     16  O   LIG d   1      -3.143  76.679 117.691  0.00  0.00    -0.276 OA
ATOM     17  H   LIG d   1      -4.713  76.244 120.399  0.00  0.00     0.149 HD
ENDBRANCH   6  13
BRANCH   5  18
ATOM     18  N   LIG d   1      -4.683  79.431 118.490  0.00  0.00     0.381 N 
ATOM     19  H   LIG d   1      -4.225  78.879 117.793  0.00  0.00    -0.090 HD
ATOM     20  H   LIG d   1      -4.027  79.613 119.229  0.00  0.00    -0.090 HD
ATOM     21  H   LIG d   1      -4.994  80.290 118.092  0.00  0.00    -0.090 HD
ENDBRANCH   5  18
BRANCH   3  22
ATOM     22  C   LIG d   1      -9.459  79.215 118.774  0.00  0.00     0.382 C 
ATOM     23  O   LIG d   1     -10.059  79.486 117.706  0.00  0.00    -0.241 OA
ATOM     24  O   LIG d   1      -9.932  79.604 119.859  0.00  0.00    -0.241 OA
ENDBRANCH   3  22
TORSDOF 7
ENDMDL
MODEL 8
REMARK VINA RESULT:      -4.3      2.474      6.087
REMARK  7 active torsions:
REMARK  status: ('A' for Active; 'I' for Inactive)
REMARK    1  A    between atoms: C_2  and  C_3 
REMARK    2  A    between atoms: C_3  and  O_6 
REMARK    3  A    between atoms: C_3  and  C_4 
REMARK    4  A    between atoms: C_7  and  O_6 
REMARK    5  A    between atoms: C_9  and  C_10 
REMARK    6  A    between atoms: N_15  and  C_14 
REMARK    7  A    between atoms: N_20  and  C_19 
REMARK       I    between atoms: C_22  and  N_20 
ROOT
ATOM      1  C   LIG d   1      -4.020  75.428 117.130  0.00  0.00     0.161 C 
ATOM      2  C   LIG d   1      -5.226  74.718 117.253  0.00  0.00     0.016 C 
ATOM      3  C   LIG d   1      -6.486  75.343 117.390  0.00  0.00     0.038 C 
ATOM      4  C   LIG d   1      -6.643  76.731 117.261  0.00  0.00     0.028 C 
ATOM      5  C   LIG d   1      -5.395  77.520 117.642  0.00  0.00    -0.047 C 
ATOM      6  C   LIG d   1      -4.183  76.942 116.877  0.00  0.00     0.091 C 
ENDROOT
BRANCH   1   7
ATOM      7  O   LIG d   1      -3.204  74.833 116.102  0.00  0.00    -0.368 OA
BRANCH   7   8
ATOM      8  C   LIG d   1      -1.991  74.180 116.549  0.00  0.00     0.119 C 
BRANCH   8   9
ATOM      9  C   LIG d   1      -1.923  74.327 118.081  0.00  0.00     0.028 C 
ATOM     10  C   LIG d   1      -0.634  75.024 118.548  0.00  0.00     0.006 C 
ENDBRANCH   8   9
BRANCH   8  11
ATOM     11  C   LIG d   1      -0.745  74.895 116.017  0.00  0.00     0.028 C 
ATOM     12  C   LIG d   1      -0.187  74.251 114.739  0.00  0.00     0.006 C 
ENDBRANCH   8  11
ENDBRANCH   7   8
ENDBRANCH   1   7
BRANCH   6  13
ATOM     13  N   LIG d   1      -2.906  77.601 117.255  0.00  0.00    -0.311 N 
ATOM     14  C   LIG d   1      -2.100  78.196 116.377  0.00  0.00     0.210 C 
ATOM     15  C   LIG d   1      -0.824  78.797 116.975  0.00  0.00     0.109 C 
ATOM     16  O   LIG d   1      -2.337  78.312 115.165  0.00  0.00    -0.276 OA
ATOM     17  H   LIG d   1      -2.652  77.582 118.223  0.00  0.00     0.149 HD
ENDBRANCH   6  13
BRANCH   5  18
ATOM     18  N   LIG d   1      -5.652  78.939 117.331  0.00  0.00     0.381 N 
ATOM     19  H   LIG d   1      -6.627  79.136 117.431  0.00  0.00    -0.090 HD
ATOM     20  H   LIG d   1      -5.391  79.115 116.377  0.00  0.00    -0.090 HD
ATOM     21  H   LIG d   1      -5.123  79.523 117.941  0.00  0.00    -0.090 HD
ENDBRANCH   5  18
BRANCH   3  22
ATOM     22  C   LIG d   1      -7.602  74.580 117.698  0.00  0.00     0.382 C 
ATOM     23  O   LIG d   1      -8.388  74.222 116.788  0.00  0.00    -0.241 OA
ATOM     24  O   LIG d   1      -7.856  74.282 118.881  0.00  0.00    -0.241 OA
ENDBRANCH   3  22
TORSDOF 7
ENDMDL
MODEL 9
REMARK VINA RESULT:      -4.0      2.779      3.495
REMARK  7 active torsions:
REMARK  status: ('A' for Active; 'I' for Inactive)
REMARK    1  A    between atoms: C_2  and  C_3 
REMARK    2  A    between atoms: C_3  and  O_6 
REMARK    3  A    between atoms: C_3  and  C_4 
REMARK    4  A    between atoms: C_7  and  O_6 
REMARK    5  A    between atoms: C_9  and  C_10 
REMARK    6  A    between atoms: N_15  and  C_14 
REMARK    7  A    between atoms: N_20  and  C_19 
REMARK       I    between atoms: C_22  and  N_20 
ROOT
ATOM      1  C   LIG d   1      -3.553  78.265 117.698  0.00  0.00     0.161 C 
ATOM      2  C   LIG d   1      -2.615  79.238 118.083  0.00  0.00     0.016 C 
ATOM      3  C   LIG d   1      -1.249  79.186 117.725  0.00  0.00     0.038 C 
ATOM      4  C   LIG d   1      -0.754  78.230 116.825  0.00  0.00     0.028 C 
ATOM      5  C   LIG d   1      -1.558  76.935 116.814  0.00  0.00    -0.047 C 
ATOM      6  C   LIG d   1      -3.054  77.275 116.625  0.00  0.00     0.091 C 
ENDROOT
BRANCH   1   7
ATOM      7  O   LIG d   1      -4.770  78.903 117.265  0.00  0.00    -0.368 OA
BRANCH   7   8
ATOM      8  C   LIG d   1      -5.885  78.845 118.188  0.00  0.00     0.119 C 
BRANCH   8   9
ATOM      9  C   LIG d   1      -6.953  77.925 117.567  0.00  0.00     0.028 C 
ATOM     10  C   LIG d   1      -7.274  76.713 118.458  0.00  0.00     0.006 C 
ENDBRANCH   8   9
BRANCH   8  11
ATOM     11  C   LIG d   1      -6.561  80.211 118.333  0.00  0.00     0.028 C 
ATOM     12  C   LIG d   1      -6.014  81.024 119.517  0.00  0.00     0.006 C 
ENDBRANCH   8  11
ENDBRANCH   7   8
ENDBRANCH   1   7
BRANCH   6  13
ATOM     13  N   LIG d   1      -3.922  76.070 116.686  0.00  0.00    -0.311 N 
ATOM     14  C   LIG d   1      -4.738  75.703 115.700  0.00  0.00     0.210 C 
ATOM     15  C   LIG d   1      -5.559  74.440 115.976  0.00  0.00     0.109 C 
ATOM     16  O   LIG d   1      -4.836  76.286 114.609  0.00  0.00    -0.276 OA
ATOM     17  H   LIG d   1      -3.882  75.521 117.523  0.00  0.00     0.149 HD
ENDBRANCH   6  13
BRANCH   5  18
ATOM     18  N   LIG d   1      -1.018  76.084 115.736  0.00  0.00     0.381 N 
ATOM     19  H   LIG d   1      -0.651  75.239 116.125  0.00  0.00    -0.090 HD
ATOM     20  H   LIG d   1      -0.268  76.574 115.281  0.00  0.00    -0.090 HD
ATOM     21  H   LIG d   1      -1.735  75.872 115.078  0.00  0.00    -0.090 HD
ENDBRANCH   5  18
BRANCH   3  22
ATOM     22  C   LIG d   1      -0.353  80.074 118.301  0.00  0.00     0.382 C 
ATOM     23  O   LIG d   1       0.438  80.725 117.577  0.00  0.00    -0.241 OA
ATOM     24  O   LIG d   1      -0.296  80.199 119.539  0.00  0.00    -0.241 OA
ENDBRANCH   3  22
TORSDOF 7
ENDMDL
