MODEL 1
REMARK VINA RESULT:      -5.4      0.000      0.000
REMARK  7 active torsions:
REMARK  status: ('A' for Active; 'I' for Inactive)
REMARK    1  A    between atoms: C_2  and  C_3 
REMARK    2  A    between atoms: C_3  and  O_6 
REMARK    3  A    between atoms: C_3  and  C_4 
REMARK    4  A    between atoms: C_7  and  O_6 
REMARK    5  A    between atoms: C_9  and  C_10 
REMARK    6  A    between atoms: N_15  and  C_14 
REMARK    7  A    between atoms: N_20  and  C_19 
REMARK       I    between atoms: C_22  and  N_20 
ROOT
ATOM      1  C   LIG d   1      -7.038  77.063 117.370  0.00  0.00     0.161 C 
ATOM      2  C   LIG d   1      -8.213  77.715 117.779  0.00  0.00     0.016 C 
ATOM      3  C   LIG d   1      -8.257  79.077 118.155  0.00  0.00     0.038 C 
ATOM      4  C   LIG d   1      -7.149  79.924 118.001  0.00  0.00     0.028 C 
ATOM      5  C   LIG d   1      -5.813  79.193 118.070  0.00  0.00    -0.047 C 
ATOM      6  C   LIG d   1      -5.843  77.998 117.090  0.00  0.00     0.091 C 
ENDROOT
BRANCH   1   7
ATOM      7  O   LIG d   1      -7.312  76.240 116.218  0.00  0.00    -0.368 OA
BRANCH   7   8
ATOM      8  C   LIG d   1      -7.314  74.809 116.443  0.00  0.00     0.119 C 
BRANCH   8   9
ATOM      9  C   LIG d   1      -6.267  74.190 115.496  0.00  0.00     0.028 C 
ATOM     10  C   LIG d   1      -5.862  75.148 114.363  0.00  0.00     0.006 C 
ENDBRANCH   8   9
BRANCH   8  11
ATOM     11  C   LIG d   1      -8.650  74.183 116.035  0.00  0.00     0.028 C 
ATOM     12  C   LIG d   1      -9.846  74.787 116.789  0.00  0.00     0.006 C 
ENDBRANCH   8  11
ENDBRANCH   7   8
ENDBRANCH   1   7
BRANCH   6  13
ATOM     13  N   LIG d   1      -4.606  77.178 117.156  0.00  0.00    -0.311 N 
ATOM     14  C   LIG d   1      -3.599  77.299 116.291  0.00  0.00     0.210 C 
ATOM     15  C   LIG d   1      -2.426  76.343 116.528  0.00  0.00     0.109 C 
ATOM     16  O   LIG d   1      -3.553  78.128 115.371  0.00  0.00    -0.276 OA
ATOM     17  H   LIG d   1      -4.545  76.501 117.891  0.00  0.00     0.149 HD
ENDBRANCH   6  13
BRANCH   5  18
ATOM     18  N   LIG d   1      -4.753  80.170 117.758  0.00  0.00     0.381 N 
ATOM     19  H   LIG d   1      -4.677  80.282 116.766  0.00  0.00    -0.090 HD
ATOM     20  H   LIG d   1      -3.876  79.820 118.103  0.00  0.00    -0.090 HD
ATOM     21  H   LIG d   1      -4.960  81.046 118.184  0.00  0.00    -0.090 HD
ENDBRANCH   5  18
BRANCH   3  22
ATOM     22  C   LIG d   1      -9.407  79.596 118.728  0.00  0.00     0.382 C 
ATOM     23  O   LIG d   1      -9.823  79.140 119.821  0.00  0.00    -0.241 OA
ATOM     24  O   LIG d   1     -10.060  80.483 118.146  0.00  0.00    -0.241 OA
ENDBRANCH   3  22
TORSDOF 7
ENDMDL
MODEL 2
REMARK VINA RESULT:      -5.4      1.863      2.292
REMARK  7 active torsions:
REMARK  status: ('A' for Active; 'I' for Inactive)
REMARK    1  A    between atoms: C_2  and  C_3 
REMARK    2  A    between atoms: C_3  and  O_6 
REMARK    3  A    between atoms: C_3  and  C_4 
REMARK    4  A    between atoms: C_7  and  O_6 
REMARK    5  A    between atoms: C_9  and  C_10 
REMARK    6  A    between atoms: N_15  and  C_14 
REMARK    7  A    between atoms: N_20  and  C_19 
REMARK       I    between atoms: C_22  and  N_20 
ROOT
ATOM      1  C   LIG d   1      -5.573  77.305 116.961  0.00  0.00     0.161 C 
ATOM      2  C   LIG d   1      -6.285  78.447 117.364  0.00  0.00     0.016 C 
ATOM      3  C   LIG d   1      -5.693  79.722 117.510  0.00  0.00     0.038 C 
ATOM      4  C   LIG d   1      -4.371  79.975 117.114  0.00  0.00     0.028 C 
ATOM      5  C   LIG d   1      -3.473  78.745 117.179  0.00  0.00    -0.047 C 
ATOM      6  C   LIG d   1      -4.156  77.585 116.418  0.00  0.00     0.091 C 
ENDROOT
BRANCH   1   7
ATOM      7  O   LIG d   1      -6.343  76.565 115.993  0.00  0.00    -0.368 OA
BRANCH   7   8
ATOM      8  C   LIG d   1      -7.029  75.389 116.488  0.00  0.00     0.119 C 
BRANCH   8   9
ATOM      9  C   LIG d   1      -6.515  74.180 115.682  0.00  0.00     0.028 C 
ATOM     10  C   LIG d   1      -5.749  74.601 114.417  0.00  0.00     0.006 C 
ENDBRANCH   8   9
BRANCH   8  11
ATOM     11  C   LIG d   1      -8.532  75.458 116.202  0.00  0.00     0.028 C 
ATOM     12  C   LIG d   1      -9.277  74.180 116.620  0.00  0.00     0.006 C 
ENDBRANCH   8  11
ENDBRANCH   7   8
ENDBRANCH   1   7
BRANCH   6  13
ATOM     13  N   LIG d   1      -3.383  76.318 116.504  0.00  0.00    -0.311 N 
ATOM     14  C   LIG d   1      -2.577  75.885 115.537  0.00  0.00     0.210 C 
ATOM     15  C   LIG d   1      -1.891  74.545 115.820  0.00  0.00     0.109 C 
ATOM     16  O   LIG d   1      -2.340  76.498 114.486  0.00  0.00    -0.276 OA
ATOM     17  H   LIG d   1      -3.492  75.773 117.337  0.00  0.00     0.149 HD
ENDBRANCH   6  13
BRANCH   5  18
ATOM     18  N   LIG d   1      -2.164  79.117 116.611  0.00  0.00     0.381 N 
ATOM     19  H   LIG d   1      -1.469  79.113 117.330  0.00  0.00    -0.090 HD
ATOM     20  H   LIG d   1      -2.225  80.048 116.237  0.00  0.00    -0.090 HD
ATOM     21  H   LIG d   1      -1.911  78.478 115.890  0.00  0.00    -0.090 HD
ENDBRANCH   5  18
BRANCH   3  22
ATOM     22  C   LIG d   1      -6.414  80.752 118.094  0.00  0.00     0.382 C 
ATOM     23  O   LIG d   1      -7.438  81.202 117.526  0.00  0.00    -0.241 OA
ATOM     24  O   LIG d   1      -6.029  81.267 119.161  0.00  0.00    -0.241 OA
ENDBRANCH   3  22
TORSDOF 7
ENDMDL
MODEL 3
REMARK VINA RESULT:      -5.4      3.313      5.920
REMARK  7 active torsions:
REMARK  status: ('A' for Active; 'I' for Inactive)
REMARK    1  A    between atoms: C_2  and  C_3 
REMARK    2  A    between atoms: C_3  and  O_6 
REMARK    3  A    between atoms: C_3  and  C_4 
REMARK    4  A    between atoms: C_7  and  O_6 
REMARK    5  A    between atoms: C_9  and  C_10 
REMARK    6  A    between atoms: N_15  and  C_14 
REMARK    7  A    between atoms: N_20  and  C_19 
REMARK       I    between atoms: C_22  and  N_20 
ROOT
ATOM      1  C   LIG d   1      -3.395  76.684 115.383  0.00  0.00     0.161 C 
ATOM      2  C   LIG d   1      -3.644  77.210 114.104  0.00  0.00     0.016 C 
ATOM      3  C   LIG d   1      -2.629  77.448 113.149  0.00  0.00     0.038 C 
ATOM      4  C   LIG d   1      -1.305  77.032 113.356  0.00  0.00     0.028 C 
ATOM      5  C   LIG d   1      -0.916  76.958 114.828  0.00  0.00    -0.047 C 
ATOM      6  C   LIG d   1      -1.973  76.121 115.585  0.00  0.00     0.091 C 
ENDROOT
BRANCH   1   7
ATOM      7  O   LIG d   1      -4.381  75.681 115.699  0.00  0.00    -0.368 OA
BRANCH   7   8
ATOM      8  C   LIG d   1      -5.759  76.032 115.421  0.00  0.00     0.119 C 
BRANCH   8   9
ATOM      9  C   LIG d   1      -6.439  76.339 116.769  0.00  0.00     0.028 C 
ATOM     10  C   LIG d   1      -6.437  77.841 117.099  0.00  0.00     0.006 C 
ENDBRANCH   8   9
BRANCH   8  11
ATOM     11  C   LIG d   1      -6.530  74.843 114.839  0.00  0.00     0.028 C 
ATOM     12  C   LIG d   1      -7.465  74.181 115.864  0.00  0.00     0.006 C 
ENDBRANCH   8  11
ENDBRANCH   7   8
ENDBRANCH   1   7
BRANCH   6  13
ATOM     13  N   LIG d   1      -1.714  76.069 117.047  0.00  0.00    -0.311 N 
ATOM     14  C   LIG d   1      -1.001  75.107 117.632  0.00  0.00     0.210 C 
ATOM     15  C   LIG d   1      -0.872  75.231 119.153  0.00  0.00     0.109 C 
ATOM     16  O   LIG d   1      -0.436  74.181 117.031  0.00  0.00    -0.276 OA
ATOM     17  H   LIG d   1      -2.109  76.799 117.607  0.00  0.00     0.149 HD
ENDBRANCH   6  13
BRANCH   5  18
ATOM     18  N   LIG d   1       0.440  76.380 114.903  0.00  0.00     0.381 N 
ATOM     19  H   LIG d   1       1.028  76.968 115.460  0.00  0.00    -0.090 HD
ATOM     20  H   LIG d   1       0.825  76.336 113.976  0.00  0.00    -0.090 HD
ATOM     21  H   LIG d   1       0.400  75.467 115.298  0.00  0.00    -0.090 HD
ENDBRANCH   5  18
BRANCH   3  22
ATOM     22  C   LIG d   1      -2.926  78.145 111.988  0.00  0.00     0.382 C 
ATOM     23  O   LIG d   1      -2.648  79.365 111.901  0.00  0.00    -0.241 OA
ATOM     24  O   LIG d   1      -3.511  77.580 111.045  0.00  0.00    -0.241 OA
ENDBRANCH   3  22
TORSDOF 7
ENDMDL
MODEL 4
REMARK VINA RESULT:      -5.2      3.599      6.187
REMARK  7 active torsions:
REMARK  status: ('A' for Active; 'I' for Inactive)
REMARK    1  A    between atoms: C_2  and  C_3 
REMARK    2  A    between atoms: C_3  and  O_6 
REMARK    3  A    between atoms: C_3  and  C_4 
REMARK    4  A    between atoms: C_7  and  O_6 
REMARK    5  A    between atoms: C_9  and  C_10 
REMARK    6  A    between atoms: N_15  and  C_14 
REMARK    7  A    between atoms: N_20  and  C_19 
REMARK       I    between atoms: C_22  and  N_20 
ROOT
ATOM      1  C   LIG d   1      -2.359  78.121 116.268  0.00  0.00     0.161 C 
ATOM      2  C   LIG d   1      -2.764  78.917 115.183  0.00  0.00     0.016 C 
ATOM      3  C   LIG d   1      -2.278  78.744 113.866  0.00  0.00     0.038 C 
ATOM      4  C   LIG d   1      -1.462  77.658 113.514  0.00  0.00     0.028 C 
ATOM      5  C   LIG d   1      -0.627  77.127 114.674  0.00  0.00    -0.047 C 
ATOM      6  C   LIG d   1      -1.555  76.862 115.881  0.00  0.00     0.091 C 
ENDROOT
BRANCH   1   7
ATOM      7  O   LIG d   1      -3.505  77.760 117.063  0.00  0.00    -0.368 OA
BRANCH   7   8
ATOM      8  C   LIG d   1      -4.777  77.731 116.371  0.00  0.00     0.119 C 
BRANCH   8   9
ATOM      9  C   LIG d   1      -5.834  78.331 117.319  0.00  0.00     0.028 C 
ATOM     10  C   LIG d   1      -5.556  79.807 117.648  0.00  0.00     0.006 C 
ENDBRANCH   8   9
BRANCH   8  11
ATOM     11  C   LIG d   1      -5.237  76.293 116.109  0.00  0.00     0.028 C 
ATOM     12  C   LIG d   1      -4.855  75.792 114.708  0.00  0.00     0.006 C 
ENDBRANCH   8  11
ENDBRANCH   7   8
ENDBRANCH   1   7
BRANCH   6  13
ATOM     13  N   LIG d   1      -0.805  76.420 117.086  0.00  0.00    -0.311 N 
ATOM     14  C   LIG d   1      -0.589  75.141 117.386  0.00  0.00     0.210 C 
ATOM     15  C   LIG d   1       0.189  74.904 118.685  0.00  0.00     0.109 C 
ATOM     16  O   LIG d   1      -0.939  74.180 116.684  0.00  0.00    -0.276 OA
ATOM     17  H   LIG d   1      -0.458  77.135 117.695  0.00  0.00     0.149 HD
ENDBRANCH   6  13
BRANCH   5  18
ATOM     18  N   LIG d   1       0.069  75.915 114.203  0.00  0.00     0.381 N 
ATOM     19  H   LIG d   1      -0.261  75.666 113.292  0.00  0.00    -0.090 HD
ATOM     20  H   LIG d   1      -0.136  75.157 114.830  0.00  0.00    -0.090 HD
ATOM     21  H   LIG d   1       1.052  76.075 114.175  0.00  0.00    -0.090 HD
ENDBRANCH   5  18
BRANCH   3  22
ATOM     22  C   LIG d   1      -2.576  79.686 112.894  0.00  0.00     0.382 C 
ATOM     23  O   LIG d   1      -3.297  80.673 113.178  0.00  0.00    -0.241 OA
ATOM     24  O   LIG d   1      -2.171  79.539 111.726  0.00  0.00    -0.241 OA
ENDBRANCH   3  22
TORSDOF 7
ENDMDL
MODEL 5
REMARK VINA RESULT:      -5.1      3.875      5.722
REMARK  7 active torsions:
REMARK  status: ('A' for Active; 'I' for Inactive)
REMARK    1  A    between atoms: C_2  and  C_3 
REMARK    2  A    between atoms: C_3  and  O_6 
REMARK    3  A    between atoms: C_3  and  C_4 
REMARK    4  A    between atoms: C_7  and  O_6 
REMARK    5  A    between atoms: C_9  and  C_10 
REMARK    6  A    between atoms: N_15  and  C_14 
REMARK    7  A    between atoms: N_20  and  C_19 
REMARK       I    between atoms: C_22  and  N_20 
ROOT
ATOM      1  C   LIG d   1      -2.356  76.028 115.030  0.00  0.00     0.161 C 
ATOM      2  C   LIG d   1      -2.262  75.699 116.393  0.00  0.00     0.016 C 
ATOM      3  C   LIG d   1      -1.648  76.534 117.354  0.00  0.00     0.038 C 
ATOM      4  C   LIG d   1      -1.216  77.832 117.043  0.00  0.00     0.028 C 
ATOM      5  C   LIG d   1      -0.834  78.007 115.577  0.00  0.00    -0.047 C 
ATOM      6  C   LIG d   1      -1.990  77.489 114.691  0.00  0.00     0.091 C 
ENDROOT
BRANCH   1   7
ATOM      7  O   LIG d   1      -3.675  75.716 114.542  0.00  0.00    -0.368 OA
BRANCH   7   8
ATOM      8  C   LIG d   1      -4.682  75.452 115.549  0.00  0.00     0.119 C 
BRANCH   8   9
ATOM      9  C   LIG d   1      -5.521  74.254 115.063  0.00  0.00     0.028 C 
ATOM     10  C   LIG d   1      -6.893  74.180 115.753  0.00  0.00     0.006 C 
ENDBRANCH   8   9
BRANCH   8  11
ATOM     11  C   LIG d   1      -5.670  76.617 115.669  0.00  0.00     0.028 C 
ATOM     12  C   LIG d   1      -5.431  77.474 116.921  0.00  0.00     0.006 C 
ENDBRANCH   8  11
ENDBRANCH   7   8
ENDBRANCH   1   7
BRANCH   6  13
ATOM     13  N   LIG d   1      -1.663  77.546 113.242  0.00  0.00    -0.311 N 
ATOM     14  C   LIG d   1      -2.287  78.348 112.381  0.00  0.00     0.210 C 
ATOM     15  C   LIG d   1      -1.809  78.235 110.930  0.00  0.00     0.109 C 
ATOM     16  O   LIG d   1      -3.168  79.165 112.687  0.00  0.00    -0.276 OA
ATOM     17  H   LIG d   1      -0.939  76.938 112.914  0.00  0.00     0.149 HD
ENDBRANCH   6  13
BRANCH   5  18
ATOM     18  N   LIG d   1      -0.536  79.435 115.362  0.00  0.00     0.381 N 
ATOM     19  H   LIG d   1      -1.290  79.994 115.708  0.00  0.00    -0.090 HD
ATOM     20  H   LIG d   1      -0.446  79.604 114.375  0.00  0.00    -0.090 HD
ATOM     21  H   LIG d   1       0.310  79.681 115.826  0.00  0.00    -0.090 HD
ENDBRANCH   5  18
BRANCH   3  22
ATOM     22  C   LIG d   1      -1.424  76.056 118.637  0.00  0.00     0.382 C 
ATOM     23  O   LIG d   1      -0.872  74.941 118.803  0.00  0.00    -0.241 OA
ATOM     24  O   LIG d   1      -1.808  76.704 119.629  0.00  0.00    -0.241 OA
ENDBRANCH   3  22
TORSDOF 7
ENDMDL
MODEL 6
REMARK VINA RESULT:      -5.0      2.222      4.596
REMARK  7 active torsions:
REMARK  status: ('A' for Active; 'I' for Inactive)
REMARK    1  A    between atoms: C_2  and  C_3 
REMARK    2  A    between atoms: C_3  and  O_6 
REMARK    3  A    between atoms: C_3  and  C_4 
REMARK    4  A    between atoms: C_7  and  O_6 
REMARK    5  A    between atoms: C_9  and  C_10 
REMARK    6  A    between atoms: N_15  and  C_14 
REMARK    7  A    between atoms: N_20  and  C_19 
REMARK       I    between atoms: C_22  and  N_20 
ROOT
ATOM      1  C   LIG d   1      -6.186  77.283 116.571  0.00  0.00     0.161 C 
ATOM      2  C   LIG d   1      -7.449  76.850 117.008  0.00  0.00     0.016 C 
ATOM      3  C   LIG d   1      -8.034  75.627 116.607  0.00  0.00     0.038 C 
ATOM      4  C   LIG d   1      -7.325  74.678 115.855  0.00  0.00     0.028 C 
ATOM      5  C   LIG d   1      -6.241  75.290 114.974  0.00  0.00    -0.047 C 
ATOM      6  C   LIG d   1      -5.352  76.211 115.840  0.00  0.00     0.091 C 
ENDROOT
BRANCH   1   7
ATOM      7  O   LIG d   1      -5.444  77.824 117.682  0.00  0.00    -0.368 OA
BRANCH   7   8
ATOM      8  C   LIG d   1      -4.937  79.171 117.515  0.00  0.00     0.119 C 
BRANCH   8   9
ATOM      9  C   LIG d   1      -3.449  79.159 117.914  0.00  0.00     0.028 C 
ATOM     10  C   LIG d   1      -2.961  77.757 118.317  0.00  0.00     0.006 C 
ENDBRANCH   8   9
BRANCH   8  11
ATOM     11  C   LIG d   1      -5.610  80.144 118.489  0.00  0.00     0.028 C 
ATOM     12  C   LIG d   1      -7.052  80.489 118.085  0.00  0.00     0.006 C 
ENDBRANCH   8  11
ENDBRANCH   7   8
ENDBRANCH   1   7
BRANCH   6  13
ATOM     13  N   LIG d   1      -4.317  76.915 115.039  0.00  0.00    -0.311 N 
ATOM     14  C   LIG d   1      -3.102  76.419 114.813  0.00  0.00     0.210 C 
ATOM     15  C   LIG d   1      -2.182  77.317 113.979  0.00  0.00     0.109 C 
ATOM     16  O   LIG d   1      -2.709  75.307 115.196  0.00  0.00    -0.276 OA
ATOM     17  H   LIG d   1      -4.561  77.811 114.664  0.00  0.00     0.149 HD
ENDBRANCH   6  13
BRANCH   5  18
ATOM     18  N   LIG d   1      -5.493  74.180 114.353  0.00  0.00     0.381 N 
ATOM     19  H   LIG d   1      -5.191  74.446 113.437  0.00  0.00    -0.090 HD
ATOM     20  H   LIG d   1      -6.101  73.386 114.267  0.00  0.00    -0.090 HD
ATOM     21  H   LIG d   1      -4.704  73.945 114.915  0.00  0.00    -0.090 HD
ENDBRANCH   5  18
BRANCH   3  22
ATOM     22  C   LIG d   1      -9.357  75.361 116.925  0.00  0.00     0.382 C 
ATOM     23  O   LIG d   1      -9.910  74.323 116.488  0.00  0.00    -0.241 OA
ATOM     24  O   LIG d   1     -10.018  76.168 117.605  0.00  0.00    -0.241 OA
ENDBRANCH   3  22
TORSDOF 7
ENDMDL
MODEL 7
REMARK VINA RESULT:      -4.7      2.220      4.775
REMARK  7 active torsions:
REMARK  status: ('A' for Active; 'I' for Inactive)
REMARK    1  A    between atoms: C_2  and  C_3 
REMARK    2  A    between atoms: C_3  and  O_6 
REMARK    3  A    between atoms: C_3  and  C_4 
REMARK    4  A    between atoms: C_7  and  O_6 
REMARK    5  A    between atoms: C_9  and  C_10 
REMARK    6  A    between atoms: N_15  and  C_14 
REMARK    7  A    between atoms: N_20  and  C_19 
REMARK       I    between atoms: C_22  and  N_20 
ROOT
ATOM      1  C   LIG d   1      -5.930  77.469 117.035  0.00  0.00     0.161 C 
ATOM      2  C   LIG d   1      -7.233  77.170 117.466  0.00  0.00     0.016 C 
ATOM      3  C   LIG d   1      -8.012  76.123 116.922  0.00  0.00     0.038 C 
ATOM      4  C   LIG d   1      -7.480  75.202 116.008  0.00  0.00     0.028 C 
ATOM      5  C   LIG d   1      -6.337  75.768 115.172  0.00  0.00    -0.047 C 
ATOM      6  C   LIG d   1      -5.292  76.405 116.118  0.00  0.00     0.091 C 
ENDROOT
BRANCH   1   7
ATOM      7  O   LIG d   1      -5.084  77.719 118.175  0.00  0.00    -0.368 OA
BRANCH   7   8
ATOM      8  C   LIG d   1      -4.675  79.094 118.376  0.00  0.00     0.119 C 
BRANCH   8   9
ATOM      9  C   LIG d   1      -5.535  79.973 117.448  0.00  0.00     0.028 C 
ATOM     10  C   LIG d   1      -6.439  80.942 118.229  0.00  0.00     0.006 C 
ENDBRANCH   8   9
BRANCH   8  11
ATOM     11  C   LIG d   1      -3.229  79.318 117.922  0.00  0.00     0.028 C 
ATOM     12  C   LIG d   1      -2.358  79.971 119.007  0.00  0.00     0.006 C 
ENDBRANCH   8  11
ENDBRANCH   7   8
ENDBRANCH   1   7
BRANCH   6  13
ATOM     13  N   LIG d   1      -4.181  77.057 115.377  0.00  0.00    -0.311 N 
ATOM     14  C   LIG d   1      -3.072  76.418 115.007  0.00  0.00     0.210 C 
ATOM     15  C   LIG d   1      -2.043  77.282 114.271  0.00  0.00     0.109 C 
ATOM     16  O   LIG d   1      -2.858  75.210 115.190  0.00  0.00    -0.276 OA
ATOM     17  H   LIG d   1      -4.286  78.028 115.160  0.00  0.00     0.149 HD
ENDBRANCH   6  13
BRANCH   5  18
ATOM     18  N   LIG d   1      -5.787  74.664 114.363  0.00  0.00     0.381 N 
ATOM     19  H   LIG d   1      -6.320  73.832 114.519  0.00  0.00    -0.090 HD
ATOM     20  H   LIG d   1      -4.840  74.491 114.650  0.00  0.00    -0.090 HD
ATOM     21  H   LIG d   1      -5.810  74.906 113.397  0.00  0.00    -0.090 HD
ENDBRANCH   5  18
BRANCH   3  22
ATOM     22  C   LIG d   1      -9.352  76.015 117.262  0.00  0.00     0.382 C 
ATOM     23  O   LIG d   1      -9.857  76.817 118.084  0.00  0.00    -0.241 OA
ATOM     24  O   LIG d   1     -10.051  75.098 116.791  0.00  0.00    -0.241 OA
ENDBRANCH   3  22
TORSDOF 7
ENDMDL
MODEL 8
REMARK VINA RESULT:      -4.6      2.107      5.329
REMARK  7 active torsions:
REMARK  status: ('A' for Active; 'I' for Inactive)
REMARK    1  A    between atoms: C_2  and  C_3 
REMARK    2  A    between atoms: C_3  and  O_6 
REMARK    3  A    between atoms: C_3  and  C_4 
REMARK    4  A    between atoms: C_7  and  O_6 
REMARK    5  A    between atoms: C_9  and  C_10 
REMARK    6  A    between atoms: N_15  and  C_14 
REMARK    7  A    between atoms: N_20  and  C_19 
REMARK       I    between atoms: C_22  and  N_20 
ROOT
ATOM      1  C   LIG d   1      -4.720  76.590 115.480  0.00  0.00     0.161 C 
ATOM      2  C   LIG d   1      -3.524  76.404 114.768  0.00  0.00     0.016 C 
ATOM      3  C   LIG d   1      -2.358  77.172 114.992  0.00  0.00     0.038 C 
ATOM      4  C   LIG d   1      -2.262  78.082 116.055  0.00  0.00     0.028 C 
ATOM      5  C   LIG d   1      -3.607  78.662 116.479  0.00  0.00    -0.047 C 
ATOM      6  C   LIG d   1      -4.600  77.503 116.719  0.00  0.00     0.091 C 
ENDROOT
BRANCH   1   7
ATOM      7  O   LIG d   1      -5.272  75.311 115.852  0.00  0.00    -0.368 OA
BRANCH   7   8
ATOM      8  C   LIG d   1      -6.382  74.839 115.050  0.00  0.00     0.119 C 
BRANCH   8   9
ATOM      9  C   LIG d   1      -7.061  76.073 114.426  0.00  0.00     0.028 C 
ATOM     10  C   LIG d   1      -6.785  76.196 112.918  0.00  0.00     0.006 C 
ENDBRANCH   8   9
BRANCH   8  11
ATOM     11  C   LIG d   1      -7.457  74.180 115.919  0.00  0.00     0.028 C 
ATOM     12  C   LIG d   1      -8.492  75.185 116.450  0.00  0.00     0.006 C 
ENDBRANCH   8  11
ENDBRANCH   7   8
ENDBRANCH   1   7
BRANCH   6  13
ATOM     13  N   LIG d   1      -5.965  77.986 117.056  0.00  0.00    -0.311 N 
ATOM     14  C   LIG d   1      -6.382  78.193 118.304  0.00  0.00     0.210 C 
ATOM     15  C   LIG d   1      -7.832  78.672 118.430  0.00  0.00     0.109 C 
ATOM     16  O   LIG d   1      -5.679  78.056 119.316  0.00  0.00    -0.276 OA
ATOM     17  H   LIG d   1      -6.591  78.153 116.292  0.00  0.00     0.149 HD
ENDBRANCH   6  13
BRANCH   5  18
ATOM     18  N   LIG d   1      -3.378  79.486 117.681  0.00  0.00     0.381 N 
ATOM     19  H   LIG d   1      -2.687  79.055 118.260  0.00  0.00    -0.090 HD
ATOM     20  H   LIG d   1      -4.235  79.545 118.202  0.00  0.00    -0.090 HD
ATOM     21  H   LIG d   1      -3.078  80.399 117.416  0.00  0.00    -0.090 HD
ENDBRANCH   5  18
BRANCH   3  22
ATOM     22  C   LIG d   1      -1.284  77.061 114.121  0.00  0.00     0.382 C 
ATOM     23  O   LIG d   1      -0.984  78.020 113.370  0.00  0.00    -0.241 OA
ATOM     24  O   LIG d   1      -0.640  75.997 114.045  0.00  0.00    -0.241 OA
ENDBRANCH   3  22
TORSDOF 7
ENDMDL
MODEL 9
REMARK VINA RESULT:      -4.6      2.189      5.641
REMARK  7 active torsions:
REMARK  status: ('A' for Active; 'I' for Inactive)
REMARK    1  A    between atoms: C_2  and  C_3 
REMARK    2  A    between atoms: C_3  and  O_6 
REMARK    3  A    between atoms: C_3  and  C_4 
REMARK    4  A    between atoms: C_7  and  O_6 
REMARK    5  A    between atoms: C_9  and  C_10 
REMARK    6  A    between atoms: N_15  and  C_14 
REMARK    7  A    between atoms: N_20  and  C_19 
REMARK       I    between atoms: C_22  and  N_20 
ROOT
ATOM      1  C   LIG d   1      -4.441  77.389 116.168  0.00  0.00     0.161 C 
ATOM      2  C   LIG d   1      -3.479  76.532 115.608  0.00  0.00     0.016 C 
ATOM      3  C   LIG d   1      -2.096  76.826 115.582  0.00  0.00     0.038 C 
ATOM      4  C   LIG d   1      -1.561  77.936 116.253  0.00  0.00     0.028 C 
ATOM      5  C   LIG d   1      -2.548  79.089 116.398  0.00  0.00    -0.047 C 
ATOM      6  C   LIG d   1      -3.865  78.551 117.003  0.00  0.00     0.091 C 
ENDROOT
BRANCH   1   7
ATOM      7  O   LIG d   1      -5.378  76.625 116.952  0.00  0.00    -0.368 OA
BRANCH   7   8
ATOM      8  C   LIG d   1      -6.676  76.396 116.350  0.00  0.00     0.119 C 
BRANCH   8   9
ATOM      9  C   LIG d   1      -7.737  76.987 117.299  0.00  0.00     0.028 C 
ATOM     10  C   LIG d   1      -9.032  76.158 117.320  0.00  0.00     0.006 C 
ENDBRANCH   8   9
BRANCH   8  11
ATOM     11  C   LIG d   1      -6.996  74.901 116.265  0.00  0.00     0.028 C 
ATOM     12  C   LIG d   1      -6.188  74.180 115.174  0.00  0.00     0.006 C 
ENDBRANCH   8  11
ENDBRANCH   7   8
ENDBRANCH   1   7
BRANCH   6  13
ATOM     13  N   LIG d   1      -4.914  79.599 117.100  0.00  0.00    -0.311 N 
ATOM     14  C   LIG d   1      -5.583  79.865 118.221  0.00  0.00     0.210 C 
ATOM     15  C   LIG d   1      -6.636  80.970 118.099  0.00  0.00     0.109 C 
ATOM     16  O   LIG d   1      -5.381  79.312 119.313  0.00  0.00    -0.276 OA
ATOM     17  H   LIG d   1      -5.120  80.117 116.269  0.00  0.00     0.149 HD
ENDBRANCH   6  13
BRANCH   5  18
ATOM     18  N   LIG d   1      -1.907  80.122 117.234  0.00  0.00     0.381 N 
ATOM     19  H   LIG d   1      -1.436  79.690 118.004  0.00  0.00    -0.090 HD
ATOM     20  H   LIG d   1      -2.618  80.730 117.601  0.00  0.00    -0.090 HD
ATOM     21  H   LIG d   1      -1.258  80.647 116.690  0.00  0.00    -0.090 HD
ENDBRANCH   5  18
BRANCH   3  22
ATOM     22  C   LIG d   1      -1.237  76.026 114.844  0.00  0.00     0.382 C 
ATOM     23  O   LIG d   1      -1.030  76.279 113.633  0.00  0.00    -0.241 OA
ATOM     24  O   LIG d   1      -0.701  75.029 115.363  0.00  0.00    -0.241 OA
ENDBRANCH   3  22
TORSDOF 7
ENDMDL
