MODEL 1
REMARK VINA RESULT:      -5.3      0.000      0.000
REMARK  7 active torsions:
REMARK  status: ('A' for Active; 'I' for Inactive)
REMARK    1  A    between atoms: C_2  and  C_3 
REMARK    2  A    between atoms: C_3  and  O_6 
REMARK    3  A    between atoms: C_3  and  C_4 
REMARK    4  A    between atoms: C_7  and  O_6 
REMARK    5  A    between atoms: C_9  and  C_10 
REMARK    6  A    between atoms: N_15  and  C_14 
REMARK    7  A    between atoms: N_20  and  C_19 
REMARK       I    between atoms: C_22  and  N_20 
ROOT
ATOM      1  C   LIG d   1      -3.479  77.452 116.549  0.00  0.00     0.161 C 
ATOM      2  C   LIG d   1      -3.804  78.143 115.370  0.00  0.00     0.016 C 
ATOM      3  C   LIG d   1      -2.951  78.203 114.244  0.00  0.00     0.038 C 
ATOM      4  C   LIG d   1      -1.773  77.446 114.164  0.00  0.00     0.028 C 
ATOM      5  C   LIG d   1      -1.159  77.136 115.526  0.00  0.00    -0.047 C 
ATOM      6  C   LIG d   1      -2.248  76.529 116.440  0.00  0.00     0.091 C 
ENDROOT
BRANCH   1   7
ATOM      7  O   LIG d   1      -4.624  76.708 117.011  0.00  0.00    -0.368 OA
BRANCH   7   8
ATOM      8  C   LIG d   1      -5.649  76.437 116.023  0.00  0.00     0.119 C 
BRANCH   8   9
ATOM      9  C   LIG d   1      -7.014  76.554 116.728  0.00  0.00     0.028 C 
ATOM     10  C   LIG d   1      -8.076  75.632 116.107  0.00  0.00     0.006 C 
ENDBRANCH   8   9
BRANCH   8  11
ATOM     11  C   LIG d   1      -5.573  74.991 115.524  0.00  0.00     0.028 C 
ATOM     12  C   LIG d   1      -5.113  74.889 114.061  0.00  0.00     0.006 C 
ENDBRANCH   8  11
ENDBRANCH   7   8
ENDBRANCH   1   7
BRANCH   6  13
ATOM     13  N   LIG d   1      -1.753  76.274 117.818  0.00  0.00    -0.311 N 
ATOM     14  C   LIG d   1      -1.174  75.133 118.190  0.00  0.00     0.210 C 
ATOM     15  C   LIG d   1      -0.756  75.071 119.662  0.00  0.00     0.109 C 
ATOM     16  O   LIG d   1      -0.939  74.180 117.433  0.00  0.00    -0.276 OA
ATOM     17  H   LIG d   1      -1.876  77.007 118.490  0.00  0.00     0.149 HD
ENDBRANCH   6  13
BRANCH   5  18
ATOM     18  N   LIG d   1      -0.018  76.228 115.304  0.00  0.00     0.381 N 
ATOM     19  H   LIG d   1      -0.301  75.282 115.466  0.00  0.00    -0.090 HD
ATOM     20  H   LIG d   1       0.710  76.455 115.958  0.00  0.00    -0.090 HD
ATOM     21  H   LIG d   1       0.320  76.326 114.372  0.00  0.00    -0.090 HD
ENDBRANCH   5  18
BRANCH   3  22
ATOM     22  C   LIG d   1      -3.255  79.059 113.196  0.00  0.00     0.382 C 
ATOM     23  O   LIG d   1      -3.644  78.594 112.098  0.00  0.00    -0.241 OA
ATOM     24  O   LIG d   1      -3.103  80.289 113.322  0.00  0.00    -0.241 OA
ENDBRANCH   3  22
TORSDOF 7
ENDMDL
MODEL 2
REMARK VINA RESULT:      -5.1      3.563      5.641
REMARK  7 active torsions:
REMARK  status: ('A' for Active; 'I' for Inactive)
REMARK    1  A    between atoms: C_2  and  C_3 
REMARK    2  A    between atoms: C_3  and  O_6 
REMARK    3  A    between atoms: C_3  and  C_4 
REMARK    4  A    between atoms: C_7  and  O_6 
REMARK    5  A    between atoms: C_9  and  C_10 
REMARK    6  A    between atoms: N_15  and  C_14 
REMARK    7  A    between atoms: N_20  and  C_19 
REMARK       I    between atoms: C_22  and  N_20 
ROOT
ATOM      1  C   LIG d   1      -1.785  80.857 113.875  0.00  0.00     0.161 C 
ATOM      2  C   LIG d   1      -1.590  82.215 113.572  0.00  0.00     0.016 C 
ATOM      3  C   LIG d   1      -1.073  82.670 112.337  0.00  0.00     0.038 C 
ATOM      4  C   LIG d   1      -0.855  81.799 111.259  0.00  0.00     0.028 C 
ATOM      5  C   LIG d   1      -0.560  80.366 111.687  0.00  0.00    -0.047 C 
ATOM      6  C   LIG d   1      -1.657  79.900 112.671  0.00  0.00     0.091 C 
ENDROOT
BRANCH   1   7
ATOM      7  O   LIG d   1      -3.060  80.679 114.524  0.00  0.00    -0.368 OA
BRANCH   7   8
ATOM      8  C   LIG d   1      -3.017  80.354 115.935  0.00  0.00     0.119 C 
BRANCH   8   9
ATOM      9  C   LIG d   1      -4.115  79.306 116.202  0.00  0.00     0.028 C 
ATOM     10  C   LIG d   1      -3.557  78.020 116.834  0.00  0.00     0.006 C 
ENDBRANCH   8   9
BRANCH   8  11
ATOM     11  C   LIG d   1      -3.393  81.563 116.797  0.00  0.00     0.028 C 
ATOM     12  C   LIG d   1      -2.205  82.110 117.605  0.00  0.00     0.006 C 
ENDBRANCH   8  11
ENDBRANCH   7   8
ENDBRANCH   1   7
BRANCH   6  13
ATOM     13  N   LIG d   1      -1.399  78.537 113.205  0.00  0.00    -0.311 N 
ATOM     14  C   LIG d   1      -2.345  77.607 113.328  0.00  0.00     0.210 C 
ATOM     15  C   LIG d   1      -1.869  76.276 113.919  0.00  0.00     0.109 C 
ATOM     16  O   LIG d   1      -3.525  77.747 112.974  0.00  0.00    -0.276 OA
ATOM     17  H   LIG d   1      -0.462  78.328 113.487  0.00  0.00     0.149 HD
ENDBRANCH   6  13
BRANCH   5  18
ATOM     18  N   LIG d   1      -0.490  79.541 110.466  0.00  0.00     0.381 N 
ATOM     19  H   LIG d   1       0.252  79.866 109.879  0.00  0.00    -0.090 HD
ATOM     20  H   LIG d   1      -1.355  79.633 109.962  0.00  0.00    -0.090 HD
ATOM     21  H   LIG d   1      -0.338  78.586 110.708  0.00  0.00    -0.090 HD
ENDBRANCH   5  18
BRANCH   3  22
ATOM     22  C   LIG d   1      -0.730  84.004 112.186  0.00  0.00     0.382 C 
ATOM     23  O   LIG d   1      -1.115  84.640 111.175  0.00  0.00    -0.241 OA
ATOM     24  O   LIG d   1      -0.003  84.569 113.025  0.00  0.00    -0.241 OA
ENDBRANCH   3  22
TORSDOF 7
ENDMDL
MODEL 3
REMARK VINA RESULT:      -5.1      3.003      4.672
REMARK  7 active torsions:
REMARK  status: ('A' for Active; 'I' for Inactive)
REMARK    1  A    between atoms: C_2  and  C_3 
REMARK    2  A    between atoms: C_3  and  O_6 
REMARK    3  A    between atoms: C_3  and  C_4 
REMARK    4  A    between atoms: C_7  and  O_6 
REMARK    5  A    between atoms: C_9  and  C_10 
REMARK    6  A    between atoms: N_15  and  C_14 
REMARK    7  A    between atoms: N_20  and  C_19 
REMARK       I    between atoms: C_22  and  N_20 
ROOT
ATOM      1  C   LIG d   1      -4.699  77.660 116.190  0.00  0.00     0.161 C 
ATOM      2  C   LIG d   1      -3.684  77.801 115.229  0.00  0.00     0.016 C 
ATOM      3  C   LIG d   1      -3.405  76.826 114.243  0.00  0.00     0.038 C 
ATOM      4  C   LIG d   1      -4.227  75.704 114.057  0.00  0.00     0.028 C 
ATOM      5  C   LIG d   1      -4.956  75.270 115.324  0.00  0.00    -0.047 C 
ATOM      6  C   LIG d   1      -5.676  76.495 115.933  0.00  0.00     0.091 C 
ENDROOT
BRANCH   1   7
ATOM      7  O   LIG d   1      -5.421  78.901 116.323  0.00  0.00    -0.368 OA
BRANCH   7   8
ATOM      8  C   LIG d   1      -5.085  79.714 117.473  0.00  0.00     0.119 C 
BRANCH   8   9
ATOM      9  C   LIG d   1      -6.237  79.582 118.487  0.00  0.00     0.028 C 
ATOM     10  C   LIG d   1      -7.617  79.557 117.808  0.00  0.00     0.006 C 
ENDBRANCH   8   9
BRANCH   8  11
ATOM     11  C   LIG d   1      -5.035  81.201 117.108  0.00  0.00     0.028 C 
ATOM     12  C   LIG d   1      -3.683  81.623 116.511  0.00  0.00     0.006 C 
ENDBRANCH   8  11
ENDBRANCH   7   8
ENDBRANCH   1   7
BRANCH   6  13
ATOM     13  N   LIG d   1      -6.346  76.176 117.221  0.00  0.00    -0.311 N 
ATOM     14  C   LIG d   1      -7.631  75.841 117.316  0.00  0.00     0.210 C 
ATOM     15  C   LIG d   1      -8.125  75.572 118.741  0.00  0.00     0.109 C 
ATOM     16  O   LIG d   1      -8.401  75.708 116.353  0.00  0.00    -0.276 OA
ATOM     17  H   LIG d   1      -5.787  76.229 118.050  0.00  0.00     0.149 HD
ENDBRANCH   6  13
BRANCH   5  18
ATOM     18  N   LIG d   1      -5.879  74.180 114.956  0.00  0.00     0.381 N 
ATOM     19  H   LIG d   1      -6.786  74.555 114.762  0.00  0.00    -0.090 HD
ATOM     20  H   LIG d   1      -5.959  73.546 115.732  0.00  0.00    -0.090 HD
ATOM     21  H   LIG d   1      -5.534  73.696 114.156  0.00  0.00    -0.090 HD
ENDBRANCH   5  18
BRANCH   3  22
ATOM     22  C   LIG d   1      -2.270  76.948 113.457  0.00  0.00     0.382 C 
ATOM     23  O   LIG d   1      -1.938  78.071 113.005  0.00  0.00    -0.241 OA
ATOM     24  O   LIG d   1      -1.597  75.944 113.157  0.00  0.00    -0.241 OA
ENDBRANCH   3  22
TORSDOF 7
ENDMDL
MODEL 4
REMARK VINA RESULT:      -5.1      3.217      5.547
REMARK  7 active torsions:
REMARK  status: ('A' for Active; 'I' for Inactive)
REMARK    1  A    between atoms: C_2  and  C_3 
REMARK    2  A    between atoms: C_3  and  O_6 
REMARK    3  A    between atoms: C_3  and  C_4 
REMARK    4  A    between atoms: C_7  and  O_6 
REMARK    5  A    between atoms: C_9  and  C_10 
REMARK    6  A    between atoms: N_15  and  C_14 
REMARK    7  A    between atoms: N_20  and  C_19 
REMARK       I    between atoms: C_22  and  N_20 
ROOT
ATOM      1  C   LIG d   1      -6.453  77.527 117.088  0.00  0.00     0.161 C 
ATOM      2  C   LIG d   1      -7.664  77.921 117.682  0.00  0.00     0.016 C 
ATOM      3  C   LIG d   1      -7.959  79.258 118.036  0.00  0.00     0.038 C 
ATOM      4  C   LIG d   1      -7.118  80.322 117.678  0.00  0.00     0.028 C 
ATOM      5  C   LIG d   1      -5.656  79.915 117.529  0.00  0.00    -0.047 C 
ATOM      6  C   LIG d   1      -5.569  78.690 116.590  0.00  0.00     0.091 C 
ENDROOT
BRANCH   1   7
ATOM      7  O   LIG d   1      -6.713  76.600 116.016  0.00  0.00    -0.368 OA
BRANCH   7   8
ATOM      8  C   LIG d   1      -6.455  75.204 116.304  0.00  0.00     0.119 C 
BRANCH   8   9
ATOM      9  C   LIG d   1      -5.977  74.543 114.996  0.00  0.00     0.028 C 
ATOM     10  C   LIG d   1      -5.183  75.512 114.105  0.00  0.00     0.006 C 
ENDBRANCH   8   9
BRANCH   8  11
ATOM     11  C   LIG d   1      -7.743  74.466 116.684  0.00  0.00     0.028 C 
ATOM     12  C   LIG d   1      -7.846  74.186 118.191  0.00  0.00     0.006 C 
ENDBRANCH   8  11
ENDBRANCH   7   8
ENDBRANCH   1   7
BRANCH   6  13
ATOM     13  N   LIG d   1      -4.182  78.175 116.456  0.00  0.00    -0.311 N 
ATOM     14  C   LIG d   1      -3.374  78.497 115.447  0.00  0.00     0.210 C 
ATOM     15  C   LIG d   1      -1.991  77.839 115.490  0.00  0.00     0.109 C 
ATOM     16  O   LIG d   1      -3.661  79.289 114.537  0.00  0.00    -0.276 OA
ATOM     17  H   LIG d   1      -3.856  77.550 117.168  0.00  0.00     0.149 HD
ENDBRANCH   6  13
BRANCH   5  18
ATOM     18  N   LIG d   1      -4.917  81.086 117.021  0.00  0.00     0.381 N 
ATOM     19  H   LIG d   1      -5.264  81.340 116.118  0.00  0.00    -0.090 HD
ATOM     20  H   LIG d   1      -3.946  80.843 116.929  0.00  0.00    -0.090 HD
ATOM     21  H   LIG d   1      -5.016  81.852 117.651  0.00  0.00    -0.090 HD
ENDBRANCH   5  18
BRANCH   3  22
ATOM     22  C   LIG d   1      -9.089  79.536 118.790  0.00  0.00     0.382 C 
ATOM     23  O   LIG d   1      -9.120  80.556 119.520  0.00  0.00    -0.241 OA
ATOM     24  O   LIG d   1     -10.060  78.756 118.784  0.00  0.00    -0.241 OA
ENDBRANCH   3  22
TORSDOF 7
ENDMDL
MODEL 5
REMARK VINA RESULT:      -5.1      2.635      4.150
REMARK  7 active torsions:
REMARK  status: ('A' for Active; 'I' for Inactive)
REMARK    1  A    between atoms: C_2  and  C_3 
REMARK    2  A    between atoms: C_3  and  O_6 
REMARK    3  A    between atoms: C_3  and  C_4 
REMARK    4  A    between atoms: C_7  and  O_6 
REMARK    5  A    between atoms: C_9  and  C_10 
REMARK    6  A    between atoms: N_15  and  C_14 
REMARK    7  A    between atoms: N_20  and  C_19 
REMARK       I    between atoms: C_22  and  N_20 
ROOT
ATOM      1  C   LIG d   1      -4.697  77.853 116.205  0.00  0.00     0.161 C 
ATOM      2  C   LIG d   1      -5.428  78.855 116.865  0.00  0.00     0.016 C 
ATOM      3  C   LIG d   1      -4.971  80.186 117.007  0.00  0.00     0.038 C 
ATOM      4  C   LIG d   1      -3.813  80.645 116.362  0.00  0.00     0.028 C 
ATOM      5  C   LIG d   1      -2.786  79.547 116.108  0.00  0.00    -0.047 C 
ATOM      6  C   LIG d   1      -3.483  78.362 115.400  0.00  0.00     0.091 C 
ENDROOT
BRANCH   1   7
ATOM      7  O   LIG d   1      -5.574  77.087 115.357  0.00  0.00    -0.368 OA
BRANCH   7   8
ATOM      8  C   LIG d   1      -5.996  75.800 115.874  0.00  0.00     0.119 C 
BRANCH   8   9
ATOM      9  C   LIG d   1      -5.495  74.721 114.893  0.00  0.00     0.028 C 
ATOM     10  C   LIG d   1      -5.117  75.305 113.522  0.00  0.00     0.006 C 
ENDBRANCH   8   9
BRANCH   8  11
ATOM     11  C   LIG d   1      -7.522  75.672 115.873  0.00  0.00     0.028 C 
ATOM     12  C   LIG d   1      -8.159  76.136 117.192  0.00  0.00     0.006 C 
ENDBRANCH   8  11
ENDBRANCH   7   8
ENDBRANCH   1   7
BRANCH   6  13
ATOM     13  N   LIG d   1      -2.568  77.210 115.189  0.00  0.00    -0.311 N 
ATOM     14  C   LIG d   1      -1.903  77.000 114.054  0.00  0.00     0.210 C 
ATOM     15  C   LIG d   1      -1.029  75.742 114.040  0.00  0.00     0.109 C 
ATOM     16  O   LIG d   1      -1.929  77.753 113.070  0.00  0.00    -0.276 OA
ATOM     17  H   LIG d   1      -2.463  76.566 115.949  0.00  0.00     0.149 HD
ENDBRANCH   6  13
BRANCH   5  18
ATOM     18  N   LIG d   1      -1.693  80.135 115.310  0.00  0.00     0.381 N 
ATOM     19  H   LIG d   1      -0.869  79.575 115.400  0.00  0.00    -0.090 HD
ATOM     20  H   LIG d   1      -1.490  81.053 115.663  0.00  0.00    -0.090 HD
ATOM     21  H   LIG d   1      -1.962  80.191 114.352  0.00  0.00    -0.090 HD
ENDBRANCH   5  18
BRANCH   3  22
ATOM     22  C   LIG d   1      -5.656  81.063 117.834  0.00  0.00     0.382 C 
ATOM     23  O   LIG d   1      -5.083  81.559 118.834  0.00  0.00    -0.241 OA
ATOM     24  O   LIG d   1      -6.853  81.330 117.618  0.00  0.00    -0.241 OA
ENDBRANCH   3  22
TORSDOF 7
ENDMDL
MODEL 6
REMARK VINA RESULT:      -4.7      3.244      5.956
REMARK  7 active torsions:
REMARK  status: ('A' for Active; 'I' for Inactive)
REMARK    1  A    between atoms: C_2  and  C_3 
REMARK    2  A    between atoms: C_3  and  O_6 
REMARK    3  A    between atoms: C_3  and  C_4 
REMARK    4  A    between atoms: C_7  and  O_6 
REMARK    5  A    between atoms: C_9  and  C_10 
REMARK    6  A    between atoms: N_15  and  C_14 
REMARK    7  A    between atoms: N_20  and  C_19 
REMARK       I    between atoms: C_22  and  N_20 
ROOT
ATOM      1  C   LIG d   1      -4.696  78.480 116.559  0.00  0.00     0.161 C 
ATOM      2  C   LIG d   1      -5.782  77.641 116.860  0.00  0.00     0.016 C 
ATOM      3  C   LIG d   1      -6.979  78.101 117.455  0.00  0.00     0.038 C 
ATOM      4  C   LIG d   1      -7.231  79.467 117.654  0.00  0.00     0.028 C 
ATOM      5  C   LIG d   1      -5.964  80.297 117.830  0.00  0.00    -0.047 C 
ATOM      6  C   LIG d   1      -4.996  79.989 116.666  0.00  0.00     0.091 C 
ENDROOT
BRANCH   1   7
ATOM      7  O   LIG d   1      -4.182  78.162 115.250  0.00  0.00    -0.368 OA
BRANCH   7   8
ATOM      8  C   LIG d   1      -3.699  76.809 115.066  0.00  0.00     0.119 C 
BRANCH   8   9
ATOM      9  C   LIG d   1      -2.160  76.854 115.125  0.00  0.00     0.028 C 
ATOM     10  C   LIG d   1      -1.507  76.312 113.842  0.00  0.00     0.006 C 
ENDBRANCH   8   9
BRANCH   8  11
ATOM     11  C   LIG d   1      -4.036  76.282 113.668  0.00  0.00     0.028 C 
ATOM     12  C   LIG d   1      -5.072  75.148 113.692  0.00  0.00     0.006 C 
ENDBRANCH   8  11
ENDBRANCH   7   8
ENDBRANCH   1   7
BRANCH   6  13
ATOM     13  N   LIG d   1      -3.697  80.697 116.807  0.00  0.00    -0.311 N 
ATOM     14  C   LIG d   1      -3.423  81.854 116.206  0.00  0.00     0.210 C 
ATOM     15  C   LIG d   1      -2.017  82.403 116.469  0.00  0.00     0.109 C 
ATOM     16  O   LIG d   1      -4.223  82.495 115.508  0.00  0.00    -0.276 OA
ATOM     17  H   LIG d   1      -3.001  80.263 117.381  0.00  0.00     0.149 HD
ENDBRANCH   6  13
BRANCH   5  18
ATOM     18  N   LIG d   1      -6.366  81.715 117.889  0.00  0.00     0.381 N 
ATOM     19  H   LIG d   1      -5.553  82.299 117.863  0.00  0.00    -0.090 HD
ATOM     20  H   LIG d   1      -6.846  81.882 118.756  0.00  0.00    -0.090 HD
ATOM     21  H   LIG d   1      -6.964  81.933 117.123  0.00  0.00    -0.090 HD
ENDBRANCH   5  18
BRANCH   3  22
ATOM     22  C   LIG d   1      -7.923  77.186 117.897  0.00  0.00     0.382 C 
ATOM     23  O   LIG d   1      -7.569  76.028 118.222  0.00  0.00    -0.241 OA
ATOM     24  O   LIG d   1      -9.130  77.491 117.931  0.00  0.00    -0.241 OA
ENDBRANCH   3  22
TORSDOF 7
ENDMDL
MODEL 7
REMARK VINA RESULT:      -4.6      2.323      3.146
REMARK  7 active torsions:
REMARK  status: ('A' for Active; 'I' for Inactive)
REMARK    1  A    between atoms: C_2  and  C_3 
REMARK    2  A    between atoms: C_3  and  O_6 
REMARK    3  A    between atoms: C_3  and  C_4 
REMARK    4  A    between atoms: C_7  and  O_6 
REMARK    5  A    between atoms: C_9  and  C_10 
REMARK    6  A    between atoms: N_15  and  C_14 
REMARK    7  A    between atoms: N_20  and  C_19 
REMARK       I    between atoms: C_22  and  N_20 
ROOT
ATOM      1  C   LIG d   1      -2.425  79.557 116.059  0.00  0.00     0.161 C 
ATOM      2  C   LIG d   1      -2.729  80.532 115.095  0.00  0.00     0.016 C 
ATOM      3  C   LIG d   1      -2.599  80.318 113.703  0.00  0.00     0.038 C 
ATOM      4  C   LIG d   1      -2.298  79.055 113.173  0.00  0.00     0.028 C 
ATOM      5  C   LIG d   1      -1.492  78.175 114.123  0.00  0.00    -0.047 C 
ATOM      6  C   LIG d   1      -2.201  78.138 115.496  0.00  0.00     0.091 C 
ENDROOT
BRANCH   1   7
ATOM      7  O   LIG d   1      -3.448  79.538 117.074  0.00  0.00    -0.368 OA
BRANCH   7   8
ATOM      8  C   LIG d   1      -4.816  79.619 116.602  0.00  0.00     0.119 C 
BRANCH   8   9
ATOM      9  C   LIG d   1      -5.535  80.687 117.449  0.00  0.00     0.028 C 
ATOM     10  C   LIG d   1      -4.621  81.294 118.528  0.00  0.00     0.006 C 
ENDBRANCH   8   9
BRANCH   8  11
ATOM     11  C   LIG d   1      -5.574  78.315 116.864  0.00  0.00     0.028 C 
ATOM     12  C   LIG d   1      -4.958  77.485 118.002  0.00  0.00     0.006 C 
ENDBRANCH   8  11
ENDBRANCH   7   8
ENDBRANCH   1   7
BRANCH   6  13
ATOM     13  N   LIG d   1      -1.435  77.367 116.509  0.00  0.00    -0.311 N 
ATOM     14  C   LIG d   1      -1.667  76.085 116.784  0.00  0.00     0.210 C 
ATOM     15  C   LIG d   1      -0.776  75.486 117.877  0.00  0.00     0.109 C 
ATOM     16  O   LIG d   1      -2.504  75.377 116.204  0.00  0.00    -0.276 OA
ATOM     17  H   LIG d   1      -0.715  77.856 117.005  0.00  0.00     0.149 HD
ENDBRANCH   6  13
BRANCH   5  18
ATOM     18  N   LIG d   1      -1.367  76.844 113.500  0.00  0.00     0.381 N 
ATOM     19  H   LIG d   1      -2.197  76.633 112.982  0.00  0.00    -0.090 HD
ATOM     20  H   LIG d   1      -1.264  76.155 114.224  0.00  0.00    -0.090 HD
ATOM     21  H   LIG d   1      -0.576  76.823 112.896  0.00  0.00    -0.090 HD
ENDBRANCH   5  18
BRANCH   3  22
ATOM     22  C   LIG d   1      -2.732  81.385 112.828  0.00  0.00     0.382 C 
ATOM     23  O   LIG d   1      -3.722  82.150 112.919  0.00  0.00    -0.241 OA
ATOM     24  O   LIG d   1      -1.898  81.566 111.921  0.00  0.00    -0.241 OA
ENDBRANCH   3  22
TORSDOF 7
ENDMDL
MODEL 8
REMARK VINA RESULT:      -4.5      3.621      5.102
REMARK  7 active torsions:
REMARK  status: ('A' for Active; 'I' for Inactive)
REMARK    1  A    between atoms: C_2  and  C_3 
REMARK    2  A    between atoms: C_3  and  O_6 
REMARK    3  A    between atoms: C_3  and  C_4 
REMARK    4  A    between atoms: C_7  and  O_6 
REMARK    5  A    between atoms: C_9  and  C_10 
REMARK    6  A    between atoms: N_15  and  C_14 
REMARK    7  A    between atoms: N_20  and  C_19 
REMARK       I    between atoms: C_22  and  N_20 
ROOT
ATOM      1  C   LIG d   1      -5.634  78.149 116.718  0.00  0.00     0.161 C 
ATOM      2  C   LIG d   1      -4.446  78.670 116.179  0.00  0.00     0.016 C 
ATOM      3  C   LIG d   1      -4.049  80.019 116.329  0.00  0.00     0.038 C 
ATOM      4  C   LIG d   1      -4.744  80.908 117.162  0.00  0.00     0.028 C 
ATOM      5  C   LIG d   1      -6.221  80.562 117.318  0.00  0.00    -0.047 C 
ATOM      6  C   LIG d   1      -6.349  79.076 117.723  0.00  0.00     0.091 C 
ENDROOT
BRANCH   1   7
ATOM      7  O   LIG d   1      -5.376  76.864 117.318  0.00  0.00    -0.368 OA
BRANCH   7   8
ATOM      8  C   LIG d   1      -5.876  75.712 116.596  0.00  0.00     0.119 C 
BRANCH   8   9
ATOM      9  C   LIG d   1      -4.791  75.292 115.585  0.00  0.00     0.028 C 
ATOM     10  C   LIG d   1      -5.313  75.269 114.139  0.00  0.00     0.006 C 
ENDBRANCH   8   9
BRANCH   8  11
ATOM     11  C   LIG d   1      -7.100  76.072 115.750  0.00  0.00     0.028 C 
ATOM     12  C   LIG d   1      -8.381  75.369 116.225  0.00  0.00     0.006 C 
ENDBRANCH   8  11
ENDBRANCH   7   8
ENDBRANCH   1   7
BRANCH   6  13
ATOM     13  N   LIG d   1      -7.765  78.633 117.815  0.00  0.00    -0.311 N 
ATOM     14  C   LIG d   1      -8.273  78.019 118.882  0.00  0.00     0.210 C 
ATOM     15  C   LIG d   1      -9.749  77.629 118.762  0.00  0.00     0.109 C 
ATOM     16  O   LIG d   1      -7.650  77.790 119.930  0.00  0.00    -0.276 OA
ATOM     17  H   LIG d   1      -8.350  78.808 117.022  0.00  0.00     0.149 HD
ENDBRANCH   6  13
BRANCH   5  18
ATOM     18  N   LIG d   1      -6.792  81.485 118.317  0.00  0.00     0.381 N 
ATOM     19  H   LIG d   1      -6.201  81.517 119.124  0.00  0.00    -0.090 HD
ATOM     20  H   LIG d   1      -7.693  81.142 118.600  0.00  0.00    -0.090 HD
ATOM     21  H   LIG d   1      -6.883  82.397 117.927  0.00  0.00    -0.090 HD
ENDBRANCH   5  18
BRANCH   3  22
ATOM     22  C   LIG d   1      -2.967  80.501 115.608  0.00  0.00     0.382 C 
ATOM     23  O   LIG d   1      -1.870  80.702 116.183  0.00  0.00    -0.241 OA
ATOM     24  O   LIG d   1      -3.086  80.779 114.400  0.00  0.00    -0.241 OA
ENDBRANCH   3  22
TORSDOF 7
ENDMDL
MODEL 9
REMARK VINA RESULT:      -4.5      3.290      5.010
REMARK  7 active torsions:
REMARK  status: ('A' for Active; 'I' for Inactive)
REMARK    1  A    between atoms: C_2  and  C_3 
REMARK    2  A    between atoms: C_3  and  O_6 
REMARK    3  A    between atoms: C_3  and  C_4 
REMARK    4  A    between atoms: C_7  and  O_6 
REMARK    5  A    between atoms: C_9  and  C_10 
REMARK    6  A    between atoms: N_15  and  C_14 
REMARK    7  A    between atoms: N_20  and  C_19 
REMARK       I    between atoms: C_22  and  N_20 
ROOT
ATOM      1  C   LIG d   1      -2.808  80.897 115.126  0.00  0.00     0.161 C 
ATOM      2  C   LIG d   1      -2.515  81.945 114.238  0.00  0.00     0.016 C 
ATOM      3  C   LIG d   1      -1.919  81.747 112.971  0.00  0.00     0.038 C 
ATOM      4  C   LIG d   1      -1.714  80.465 112.440  0.00  0.00     0.028 C 
ATOM      5  C   LIG d   1      -1.530  79.390 113.506  0.00  0.00    -0.047 C 
ATOM      6  C   LIG d   1      -2.694  79.483 114.518  0.00  0.00     0.091 C 
ENDROOT
BRANCH   1   7
ATOM      7  O   LIG d   1      -4.117  81.092 115.697  0.00  0.00    -0.368 OA
BRANCH   7   8
ATOM      8  C   LIG d   1      -4.153  81.457 117.098  0.00  0.00     0.119 C 
BRANCH   8   9
ATOM      9  C   LIG d   1      -2.803  81.047 117.718  0.00  0.00     0.028 C 
ATOM     10  C   LIG d   1      -2.266  82.099 118.703  0.00  0.00     0.006 C 
ENDBRANCH   8   9
BRANCH   8  11
ATOM     11  C   LIG d   1      -5.210  80.649 117.858  0.00  0.00     0.028 C 
ATOM     12  C   LIG d   1      -6.500  81.446 118.112  0.00  0.00     0.006 C 
ENDBRANCH   8  11
ENDBRANCH   7   8
ENDBRANCH   1   7
BRANCH   6  13
ATOM     13  N   LIG d   1      -2.546  78.521 115.642  0.00  0.00    -0.311 N 
ATOM     14  C   LIG d   1      -3.539  77.753 116.085  0.00  0.00     0.210 C 
ATOM     15  C   LIG d   1      -3.178  76.846 117.266  0.00  0.00     0.109 C 
ATOM     16  O   LIG d   1      -4.676  77.712 115.591  0.00  0.00    -0.276 OA
ATOM     17  H   LIG d   1      -1.647  78.467 116.080  0.00  0.00     0.149 HD
ENDBRANCH   6  13
BRANCH   5  18
ATOM     18  N   LIG d   1      -1.464  78.087 112.818  0.00  0.00     0.381 N 
ATOM     19  H   LIG d   1      -2.266  77.973 112.231  0.00  0.00    -0.090 HD
ATOM     20  H   LIG d   1      -1.470  77.355 113.507  0.00  0.00    -0.090 HD
ATOM     21  H   LIG d   1      -0.633  78.031 112.271  0.00  0.00    -0.090 HD
ENDBRANCH   5  18
BRANCH   3  22
ATOM     22  C   LIG d   1      -1.486  82.841 112.237  0.00  0.00     0.382 C 
ATOM     23  O   LIG d   1      -1.381  83.963 112.788  0.00  0.00    -0.241 OA
ATOM     24  O   LIG d   1      -1.240  82.729 111.021  0.00  0.00    -0.241 OA
ENDBRANCH   3  22
TORSDOF 7
ENDMDL
