MODEL 1
REMARK VINA RESULT:      -5.3      0.000      0.000
REMARK  7 active torsions:
REMARK  status: ('A' for Active; 'I' for Inactive)
REMARK    1  A    between atoms: C_2  and  C_3 
REMARK    2  A    between atoms: C_3  and  O_6 
REMARK    3  A    between atoms: C_3  and  C_4 
REMARK    4  A    between atoms: C_7  and  O_6 
REMARK    5  A    between atoms: C_9  and  C_10 
REMARK    6  A    between atoms: N_15  and  C_14 
REMARK    7  A    between atoms: N_20  and  C_19 
REMARK       I    between atoms: C_22  and  N_20 
ROOT
ATOM      1  C   LIG d   1      -3.094  78.732 115.510  0.00  0.00     0.161 C 
ATOM      2  C   LIG d   1      -2.986  79.863 114.684  0.00  0.00     0.016 C 
ATOM      3  C   LIG d   1      -2.140  79.922 113.552  0.00  0.00     0.038 C 
ATOM      4  C   LIG d   1      -1.453  78.794 113.080  0.00  0.00     0.028 C 
ATOM      5  C   LIG d   1      -1.139  77.775 114.170  0.00  0.00    -0.047 C 
ATOM      6  C   LIG d   1      -2.437  77.454 114.946  0.00  0.00     0.091 C 
ENDROOT
BRANCH   1   7
ATOM      7  O   LIG d   1      -4.479  78.486 115.823  0.00  0.00    -0.368 OA
BRANCH   7   8
ATOM      8  C   LIG d   1      -4.874  78.730 117.196  0.00  0.00     0.119 C 
BRANCH   8   9
ATOM      9  C   LIG d   1      -5.983  77.718 117.545  0.00  0.00     0.028 C 
ATOM     10  C   LIG d   1      -6.141  76.628 116.472  0.00  0.00     0.006 C 
ENDBRANCH   8   9
BRANCH   8  11
ATOM     11  C   LIG d   1      -5.521  80.110 117.352  0.00  0.00     0.028 C 
ATOM     12  C   LIG d   1      -7.018  80.031 117.690  0.00  0.00     0.006 C 
ENDBRANCH   8  11
ENDBRANCH   7   8
ENDBRANCH   1   7
BRANCH   6  13
ATOM     13  N   LIG d   1      -2.202  76.529 116.085  0.00  0.00    -0.311 N 
ATOM     14  C   LIG d   1      -2.374  75.211 116.006  0.00  0.00     0.210 C 
ATOM     15  C   LIG d   1      -2.096  74.443 117.303  0.00  0.00     0.109 C 
ATOM     16  O   LIG d   1      -2.700  74.600 114.977  0.00  0.00    -0.276 OA
ATOM     17  H   LIG d   1      -1.905  76.937 116.950  0.00  0.00     0.149 HD
ENDBRANCH   6  13
BRANCH   5  18
ATOM     18  N   LIG d   1      -0.547  76.592 113.517  0.00  0.00     0.381 N 
ATOM     19  H   LIG d   1       0.260  76.293 114.027  0.00  0.00    -0.090 HD
ATOM     20  H   LIG d   1      -0.259  76.844 112.588  0.00  0.00    -0.090 HD
ATOM     21  H   LIG d   1      -1.216  75.855 113.478  0.00  0.00    -0.090 HD
ENDBRANCH   5  18
BRANCH   3  22
ATOM     22  C   LIG d   1      -1.943  81.132 112.904  0.00  0.00     0.382 C 
ATOM     23  O   LIG d   1      -2.930  81.815 112.538  0.00  0.00    -0.241 OA
ATOM     24  O   LIG d   1      -0.792  81.529 112.641  0.00  0.00    -0.241 OA
ENDBRANCH   3  22
TORSDOF 7
ENDMDL
MODEL 2
REMARK VINA RESULT:      -5.2      2.995      6.408
REMARK  7 active torsions:
REMARK  status: ('A' for Active; 'I' for Inactive)
REMARK    1  A    between atoms: C_2  and  C_3 
REMARK    2  A    between atoms: C_3  and  O_6 
REMARK    3  A    between atoms: C_3  and  C_4 
REMARK    4  A    between atoms: C_7  and  O_6 
REMARK    5  A    between atoms: C_9  and  C_10 
REMARK    6  A    between atoms: N_15  and  C_14 
REMARK    7  A    between atoms: N_20  and  C_19 
REMARK       I    between atoms: C_22  and  N_20 
ROOT
ATOM      1  C   LIG d   1      -6.072  77.860 117.139  0.00  0.00     0.161 C 
ATOM      2  C   LIG d   1      -7.430  77.757 117.482  0.00  0.00     0.016 C 
ATOM      3  C   LIG d   1      -8.173  78.820 118.044  0.00  0.00     0.038 C 
ATOM      4  C   LIG d   1      -7.645  80.114 118.160  0.00  0.00     0.028 C 
ATOM      5  C   LIG d   1      -6.126  80.138 118.295  0.00  0.00    -0.047 C 
ATOM      6  C   LIG d   1      -5.508  79.296 117.155  0.00  0.00     0.091 C 
ENDROOT
BRANCH   1   7
ATOM      7  O   LIG d   1      -5.845  77.247 115.854  0.00  0.00    -0.368 OA
BRANCH   7   8
ATOM      8  C   LIG d   1      -5.359  75.883 115.875  0.00  0.00     0.119 C 
BRANCH   8   9
ATOM      9  C   LIG d   1      -4.098  75.826 114.992  0.00  0.00     0.028 C 
ATOM     10  C   LIG d   1      -2.806  75.711 115.819  0.00  0.00     0.006 C 
ENDBRANCH   8   9
BRANCH   8  11
ATOM     11  C   LIG d   1      -6.357  74.925 115.218  0.00  0.00     0.028 C 
ATOM     12  C   LIG d   1      -7.426  74.414 116.197  0.00  0.00     0.006 C 
ENDBRANCH   8  11
ENDBRANCH   7   8
ENDBRANCH   1   7
BRANCH   6  13
ATOM     13  N   LIG d   1      -4.029  79.197 117.262  0.00  0.00    -0.311 N 
ATOM     14  C   LIG d   1      -3.206  79.371 116.229  0.00  0.00     0.210 C 
ATOM     15  C   LIG d   1      -1.718  79.205 116.552  0.00  0.00     0.109 C 
ATOM     16  O   LIG d   1      -3.565  79.678 115.082  0.00  0.00    -0.276 OA
ATOM     17  H   LIG d   1      -3.649  78.982 118.163  0.00  0.00     0.149 HD
ENDBRANCH   6  13
BRANCH   5  18
ATOM     18  N   LIG d   1      -5.698  81.550 118.268  0.00  0.00     0.381 N 
ATOM     19  H   LIG d   1      -6.480  82.144 118.459  0.00  0.00    -0.090 HD
ATOM     20  H   LIG d   1      -5.353  81.768 117.350  0.00  0.00    -0.090 HD
ATOM     21  H   LIG d   1      -4.983  81.702 118.945  0.00  0.00    -0.090 HD
ENDBRANCH   5  18
BRANCH   3  22
ATOM     22  C   LIG d   1      -9.449  78.584 118.532  0.00  0.00     0.382 C 
ATOM     23  O   LIG d   1     -10.059  77.536 118.211  0.00  0.00    -0.241 OA
ATOM     24  O   LIG d   1     -10.015  79.426 119.255  0.00  0.00    -0.241 OA
ENDBRANCH   3  22
TORSDOF 7
ENDMDL
MODEL 3
REMARK VINA RESULT:      -5.2      2.986      4.176
REMARK  7 active torsions:
REMARK  status: ('A' for Active; 'I' for Inactive)
REMARK    1  A    between atoms: C_2  and  C_3 
REMARK    2  A    between atoms: C_3  and  O_6 
REMARK    3  A    between atoms: C_3  and  C_4 
REMARK    4  A    between atoms: C_7  and  O_6 
REMARK    5  A    between atoms: C_9  and  C_10 
REMARK    6  A    between atoms: N_15  and  C_14 
REMARK    7  A    between atoms: N_20  and  C_19 
REMARK       I    between atoms: C_22  and  N_20 
ROOT
ATOM      1  C   LIG d   1      -5.430  77.316 116.870  0.00  0.00     0.161 C 
ATOM      2  C   LIG d   1      -6.064  78.544 117.124  0.00  0.00     0.016 C 
ATOM      3  C   LIG d   1      -5.373  79.775 117.200  0.00  0.00     0.038 C 
ATOM      4  C   LIG d   1      -4.012  79.883 116.876  0.00  0.00     0.028 C 
ATOM      5  C   LIG d   1      -3.230  78.594 117.108  0.00  0.00    -0.047 C 
ATOM      6  C   LIG d   1      -3.963  77.429 116.405  0.00  0.00     0.091 C 
ENDROOT
BRANCH   1   7
ATOM      7  O   LIG d   1      -6.201  76.556 115.919  0.00  0.00    -0.368 OA
BRANCH   7   8
ATOM      8  C   LIG d   1      -6.752  75.305 116.399  0.00  0.00     0.119 C 
BRANCH   8   9
ATOM      9  C   LIG d   1      -6.248  74.188 115.465  0.00  0.00     0.028 C 
ATOM     10  C   LIG d   1      -5.559  74.742 114.206  0.00  0.00     0.006 C 
ENDBRANCH   8   9
BRANCH   8  11
ATOM     11  C   LIG d   1      -8.278  75.283 116.272  0.00  0.00     0.028 C 
ATOM     12  C   LIG d   1      -8.972  76.240 117.254  0.00  0.00     0.006 C 
ENDBRANCH   8  11
ENDBRANCH   7   8
ENDBRANCH   1   7
BRANCH   6  13
ATOM     13  N   LIG d   1      -3.311  76.117 116.652  0.00  0.00    -0.311 N 
ATOM     14  C   LIG d   1      -2.459  75.550 115.799  0.00  0.00     0.210 C 
ATOM     15  C   LIG d   1      -1.916  74.187 116.238  0.00  0.00     0.109 C 
ATOM     16  O   LIG d   1      -2.077  76.061 114.736  0.00  0.00    -0.276 OA
ATOM     17  H   LIG d   1      -3.540  75.647 117.505  0.00  0.00     0.149 HD
ENDBRANCH   6  13
BRANCH   5  18
ATOM     18  N   LIG d   1      -1.861  78.806 116.601  0.00  0.00     0.381 N 
ATOM     19  H   LIG d   1      -1.253  79.047 117.358  0.00  0.00    -0.090 HD
ATOM     20  H   LIG d   1      -1.871  79.570 115.948  0.00  0.00    -0.090 HD
ATOM     21  H   LIG d   1      -1.533  77.980 116.151  0.00  0.00    -0.090 HD
ENDBRANCH   5  18
BRANCH   3  22
ATOM     22  C   LIG d   1      -6.036  80.910 117.643  0.00  0.00     0.382 C 
ATOM     23  O   LIG d   1      -6.543  81.703 116.814  0.00  0.00    -0.241 OA
ATOM     24  O   LIG d   1      -6.095  81.172 118.859  0.00  0.00    -0.241 OA
ENDBRANCH   3  22
TORSDOF 7
ENDMDL
MODEL 4
REMARK VINA RESULT:      -5.1      2.851      4.249
REMARK  7 active torsions:
REMARK  status: ('A' for Active; 'I' for Inactive)
REMARK    1  A    between atoms: C_2  and  C_3 
REMARK    2  A    between atoms: C_3  and  O_6 
REMARK    3  A    between atoms: C_3  and  C_4 
REMARK    4  A    between atoms: C_7  and  O_6 
REMARK    5  A    between atoms: C_9  and  C_10 
REMARK    6  A    between atoms: N_15  and  C_14 
REMARK    7  A    between atoms: N_20  and  C_19 
REMARK       I    between atoms: C_22  and  N_20 
ROOT
ATOM      1  C   LIG d   1      -4.752  77.017 117.247  0.00  0.00     0.161 C 
ATOM      2  C   LIG d   1      -5.648  78.074 117.481  0.00  0.00     0.016 C 
ATOM      3  C   LIG d   1      -5.356  79.423 117.178  0.00  0.00     0.038 C 
ATOM      4  C   LIG d   1      -4.199  79.792 116.476  0.00  0.00     0.028 C 
ATOM      5  C   LIG d   1      -3.038  78.823 116.671  0.00  0.00    -0.047 C 
ATOM      6  C   LIG d   1      -3.530  77.386 116.380  0.00  0.00     0.091 C 
ENDROOT
BRANCH   1   7
ATOM      7  O   LIG d   1      -5.455  75.898 116.672  0.00  0.00    -0.368 OA
BRANCH   7   8
ATOM      8  C   LIG d   1      -6.601  76.222 115.846  0.00  0.00     0.119 C 
BRANCH   8   9
ATOM      9  C   LIG d   1      -7.777  75.349 116.325  0.00  0.00     0.028 C 
ATOM     10  C   LIG d   1      -8.801  76.146 117.151  0.00  0.00     0.006 C 
ENDBRANCH   8   9
BRANCH   8  11
ATOM     11  C   LIG d   1      -6.367  75.822 114.387  0.00  0.00     0.028 C 
ATOM     12  C   LIG d   1      -5.307  74.719 114.233  0.00  0.00     0.006 C 
ENDBRANCH   8  11
ENDBRANCH   7   8
ENDBRANCH   1   7
BRANCH   6  13
ATOM     13  N   LIG d   1      -2.478  76.366 116.628  0.00  0.00    -0.311 N 
ATOM     14  C   LIG d   1      -1.834  75.725 115.654  0.00  0.00     0.210 C 
ATOM     15  C   LIG d   1      -0.801  74.698 116.129  0.00  0.00     0.109 C 
ATOM     16  O   LIG d   1      -1.998  75.932 114.443  0.00  0.00    -0.276 OA
ATOM     17  H   LIG d   1      -2.260  76.159 117.583  0.00  0.00     0.149 HD
ENDBRANCH   6  13
BRANCH   5  18
ATOM     18  N   LIG d   1      -1.945  79.251 115.777  0.00  0.00     0.381 N 
ATOM     19  H   LIG d   1      -1.894  80.250 115.759  0.00  0.00    -0.090 HD
ATOM     20  H   LIG d   1      -2.141  78.929 114.846  0.00  0.00    -0.090 HD
ATOM     21  H   LIG d   1      -1.079  78.873 116.092  0.00  0.00    -0.090 HD
ENDBRANCH   5  18
BRANCH   3  22
ATOM     22  C   LIG d   1      -6.209  80.426 117.615  0.00  0.00     0.382 C 
ATOM     23  O   LIG d   1      -6.667  80.395 118.782  0.00  0.00    -0.241 OA
ATOM     24  O   LIG d   1      -6.562  81.336 116.841  0.00  0.00    -0.241 OA
ENDBRANCH   3  22
TORSDOF 7
ENDMDL
MODEL 5
REMARK VINA RESULT:      -5.0      2.810      6.221
REMARK  7 active torsions:
REMARK  status: ('A' for Active; 'I' for Inactive)
REMARK    1  A    between atoms: C_2  and  C_3 
REMARK    2  A    between atoms: C_3  and  O_6 
REMARK    3  A    between atoms: C_3  and  C_4 
REMARK    4  A    between atoms: C_7  and  O_6 
REMARK    5  A    between atoms: C_9  and  C_10 
REMARK    6  A    between atoms: N_15  and  C_14 
REMARK    7  A    between atoms: N_20  and  C_19 
REMARK       I    between atoms: C_22  and  N_20 
ROOT
ATOM      1  C   LIG d   1      -4.303  78.519 116.496  0.00  0.00     0.161 C 
ATOM      2  C   LIG d   1      -4.136  77.268 115.879  0.00  0.00     0.016 C 
ATOM      3  C   LIG d   1      -5.127  76.260 115.881  0.00  0.00     0.038 C 
ATOM      4  C   LIG d   1      -6.420  76.492 116.373  0.00  0.00     0.028 C 
ATOM      5  C   LIG d   1      -6.472  77.566 117.455  0.00  0.00    -0.047 C 
ATOM      6  C   LIG d   1      -5.747  78.831 116.942  0.00  0.00     0.091 C 
ENDROOT
BRANCH   1   7
ATOM      7  O   LIG d   1      -3.810  79.560 115.631  0.00  0.00    -0.368 OA
BRANCH   7   8
ATOM      8  C   LIG d   1      -2.673  79.215 114.802  0.00  0.00     0.119 C 
BRANCH   8   9
ATOM      9  C   LIG d   1      -1.402  79.422 115.649  0.00  0.00     0.028 C 
ATOM     10  C   LIG d   1      -0.425  78.240 115.540  0.00  0.00     0.006 C 
ENDBRANCH   8   9
BRANCH   8  11
ATOM     11  C   LIG d   1      -2.533  80.177 113.619  0.00  0.00     0.028 C 
ATOM     12  C   LIG d   1      -2.428  79.450 112.269  0.00  0.00     0.006 C 
ENDBRANCH   8  11
ENDBRANCH   7   8
ENDBRANCH   1   7
BRANCH   6  13
ATOM     13  N   LIG d   1      -5.679  79.902 117.970  0.00  0.00    -0.311 N 
ATOM     14  C   LIG d   1      -6.330  81.059 117.869  0.00  0.00     0.210 C 
ATOM     15  C   LIG d   1      -6.106  82.032 119.031  0.00  0.00     0.109 C 
ATOM     16  O   LIG d   1      -7.098  81.359 116.942  0.00  0.00    -0.276 OA
ATOM     17  H   LIG d   1      -5.103  79.729 118.771  0.00  0.00     0.149 HD
ENDBRANCH   6  13
BRANCH   5  18
ATOM     18  N   LIG d   1      -7.891  77.804 117.779  0.00  0.00     0.381 N 
ATOM     19  H   LIG d   1      -8.433  76.998 117.539  0.00  0.00    -0.090 HD
ATOM     20  H   LIG d   1      -8.223  78.580 117.235  0.00  0.00    -0.090 HD
ATOM     21  H   LIG d   1      -7.990  78.003 118.750  0.00  0.00    -0.090 HD
ENDBRANCH   5  18
BRANCH   3  22
ATOM     22  C   LIG d   1      -4.816  74.989 115.421  0.00  0.00     0.382 C 
ATOM     23  O   LIG d   1      -5.692  74.298 114.848  0.00  0.00    -0.241 OA
ATOM     24  O   LIG d   1      -3.683  74.508 115.612  0.00  0.00    -0.241 OA
ENDBRANCH   3  22
TORSDOF 7
ENDMDL
MODEL 6
REMARK VINA RESULT:      -4.9      1.654      2.371
REMARK  7 active torsions:
REMARK  status: ('A' for Active; 'I' for Inactive)
REMARK    1  A    between atoms: C_2  and  C_3 
REMARK    2  A    between atoms: C_3  and  O_6 
REMARK    3  A    between atoms: C_3  and  C_4 
REMARK    4  A    between atoms: C_7  and  O_6 
REMARK    5  A    between atoms: C_9  and  C_10 
REMARK    6  A    between atoms: N_15  and  C_14 
REMARK    7  A    between atoms: N_20  and  C_19 
REMARK       I    between atoms: C_22  and  N_20 
ROOT
ATOM      1  C   LIG d   1      -2.736  77.932 116.494  0.00  0.00     0.161 C 
ATOM      2  C   LIG d   1      -3.076  78.780 115.427  0.00  0.00     0.016 C 
ATOM      3  C   LIG d   1      -2.384  78.795 114.194  0.00  0.00     0.038 C 
ATOM      4  C   LIG d   1      -1.392  77.851 113.889  0.00  0.00     0.028 C 
ATOM      5  C   LIG d   1      -0.675  77.306 115.120  0.00  0.00    -0.047 C 
ATOM      6  C   LIG d   1      -1.729  76.818 116.140  0.00  0.00     0.091 C 
ENDROOT
BRANCH   1   7
ATOM      7  O   LIG d   1      -3.931  77.364 117.066  0.00  0.00    -0.368 OA
BRANCH   7   8
ATOM      8  C   LIG d   1      -5.090  77.310 116.199  0.00  0.00     0.119 C 
BRANCH   8   9
ATOM      9  C   LIG d   1      -6.312  77.741 117.033  0.00  0.00     0.028 C 
ATOM     10  C   LIG d   1      -7.369  76.629 117.142  0.00  0.00     0.006 C 
ENDBRANCH   8   9
BRANCH   8  11
ATOM     11  C   LIG d   1      -5.388  75.875 115.754  0.00  0.00     0.028 C 
ATOM     12  C   LIG d   1      -5.326  75.700 114.228  0.00  0.00     0.006 C 
ENDBRANCH   8  11
ENDBRANCH   7   8
ENDBRANCH   1   7
BRANCH   6  13
ATOM     13  N   LIG d   1      -1.114  76.348 117.408  0.00  0.00    -0.311 N 
ATOM     14  C   LIG d   1      -0.735  75.088 117.616  0.00  0.00     0.210 C 
ATOM     15  C   LIG d   1      -0.142  74.811 119.002  0.00  0.00     0.109 C 
ATOM     16  O   LIG d   1      -0.804  74.180 116.774  0.00  0.00    -0.276 OA
ATOM     17  H   LIG d   1      -0.992  77.026 118.135  0.00  0.00     0.149 HD
ENDBRANCH   6  13
BRANCH   5  18
ATOM     18  N   LIG d   1       0.233  76.235 114.669  0.00  0.00     0.381 N 
ATOM     19  H   LIG d   1       1.047  76.636 114.246  0.00  0.00    -0.090 HD
ATOM     20  H   LIG d   1      -0.239  75.678 113.979  0.00  0.00    -0.090 HD
ATOM     21  H   LIG d   1       0.498  75.665 115.442  0.00  0.00    -0.090 HD
ENDBRANCH   5  18
BRANCH   3  22
ATOM     22  C   LIG d   1      -2.655  79.789 113.266  0.00  0.00     0.382 C 
ATOM     23  O   LIG d   1      -2.246  79.672 112.085  0.00  0.00    -0.241 OA
ATOM     24  O   LIG d   1      -3.264  80.821 113.605  0.00  0.00    -0.241 OA
ENDBRANCH   3  22
TORSDOF 7
ENDMDL
MODEL 7
REMARK VINA RESULT:      -4.8      2.937      5.509
REMARK  7 active torsions:
REMARK  status: ('A' for Active; 'I' for Inactive)
REMARK    1  A    between atoms: C_2  and  C_3 
REMARK    2  A    between atoms: C_3  and  O_6 
REMARK    3  A    between atoms: C_3  and  C_4 
REMARK    4  A    between atoms: C_7  and  O_6 
REMARK    5  A    between atoms: C_9  and  C_10 
REMARK    6  A    between atoms: N_15  and  C_14 
REMARK    7  A    between atoms: N_20  and  C_19 
REMARK       I    between atoms: C_22  and  N_20 
ROOT
ATOM      1  C   LIG d   1      -5.414  77.632 116.822  0.00  0.00     0.161 C 
ATOM      2  C   LIG d   1      -6.704  77.301 117.270  0.00  0.00     0.016 C 
ATOM      3  C   LIG d   1      -7.454  76.219 116.754  0.00  0.00     0.038 C 
ATOM      4  C   LIG d   1      -6.901  75.296 115.854  0.00  0.00     0.028 C 
ATOM      5  C   LIG d   1      -5.783  75.882 114.997  0.00  0.00    -0.047 C 
ATOM      6  C   LIG d   1      -4.751  76.570 115.919  0.00  0.00     0.091 C 
ENDROOT
BRANCH   1   7
ATOM      7  O   LIG d   1      -4.567  77.931 117.948  0.00  0.00    -0.368 OA
BRANCH   7   8
ATOM      8  C   LIG d   1      -4.552  79.313 118.385  0.00  0.00     0.119 C 
BRANCH   8   9
ATOM      9  C   LIG d   1      -4.993  80.181 117.190  0.00  0.00     0.028 C 
ATOM     10  C   LIG d   1      -6.128  81.151 117.557  0.00  0.00     0.006 C 
ENDBRANCH   8   9
BRANCH   8  11
ATOM     11  C   LIG d   1      -3.131  79.776 118.720  0.00  0.00     0.028 C 
ATOM     12  C   LIG d   1      -2.078  79.216 117.750  0.00  0.00     0.006 C 
ENDBRANCH   8  11
ENDBRANCH   7   8
ENDBRANCH   1   7
BRANCH   6  13
ATOM     13  N   LIG d   1      -3.668  77.242 115.156  0.00  0.00    -0.311 N 
ATOM     14  C   LIG d   1      -2.532  76.639 114.810  0.00  0.00     0.210 C 
ATOM     15  C   LIG d   1      -1.540  77.519 114.042  0.00  0.00     0.109 C 
ATOM     16  O   LIG d   1      -2.265  75.449 115.037  0.00  0.00    -0.276 OA
ATOM     17  H   LIG d   1      -3.815  78.200 114.902  0.00  0.00     0.149 HD
ENDBRANCH   6  13
BRANCH   5  18
ATOM     18  N   LIG d   1      -5.206  74.780 114.204  0.00  0.00     0.381 N 
ATOM     19  H   LIG d   1      -4.491  74.321 114.733  0.00  0.00    -0.090 HD
ATOM     20  H   LIG d   1      -4.787  75.161 113.374  0.00  0.00    -0.090 HD
ATOM     21  H   LIG d   1      -5.917  74.128 113.957  0.00  0.00    -0.090 HD
ENDBRANCH   5  18
BRANCH   3  22
ATOM     22  C   LIG d   1      -8.786  76.075 117.109  0.00  0.00     0.382 C 
ATOM     23  O   LIG d   1      -9.591  75.528 116.317  0.00  0.00    -0.241 OA
ATOM     24  O   LIG d   1      -9.204  76.526 118.193  0.00  0.00    -0.241 OA
ENDBRANCH   3  22
TORSDOF 7
ENDMDL
MODEL 8
REMARK VINA RESULT:      -4.7      3.498      5.517
REMARK  7 active torsions:
REMARK  status: ('A' for Active; 'I' for Inactive)
REMARK    1  A    between atoms: C_2  and  C_3 
REMARK    2  A    between atoms: C_3  and  O_6 
REMARK    3  A    between atoms: C_3  and  C_4 
REMARK    4  A    between atoms: C_7  and  O_6 
REMARK    5  A    between atoms: C_9  and  C_10 
REMARK    6  A    between atoms: N_15  and  C_14 
REMARK    7  A    between atoms: N_20  and  C_19 
REMARK       I    between atoms: C_22  and  N_20 
ROOT
ATOM      1  C   LIG d   1      -6.534  77.991 117.624  0.00  0.00     0.161 C 
ATOM      2  C   LIG d   1      -6.497  77.027 116.602  0.00  0.00     0.016 C 
ATOM      3  C   LIG d   1      -5.370  76.810 115.777  0.00  0.00     0.038 C 
ATOM      4  C   LIG d   1      -4.142  77.444 116.018  0.00  0.00     0.028 C 
ATOM      5  C   LIG d   1      -4.282  78.791 116.718  0.00  0.00    -0.047 C 
ATOM      6  C   LIG d   1      -5.166  78.614 117.974  0.00  0.00     0.091 C 
ENDROOT
BRANCH   1   7
ATOM      7  O   LIG d   1      -7.146  77.431 118.802  0.00  0.00    -0.368 OA
BRANCH   7   8
ATOM      8  C   LIG d   1      -8.308  78.130 119.311  0.00  0.00     0.119 C 
BRANCH   8   9
ATOM      9  C   LIG d   1      -9.248  77.078 119.930  0.00  0.00     0.028 C 
ATOM     10  C   LIG d   1      -8.674  75.654 119.841  0.00  0.00     0.006 C 
ENDBRANCH   8   9
BRANCH   8  11
ATOM     11  C   LIG d   1      -9.111  78.774 118.176  0.00  0.00     0.028 C 
ATOM     12  C   LIG d   1      -9.691  80.144 118.560  0.00  0.00     0.006 C 
ENDBRANCH   8  11
ENDBRANCH   7   8
ENDBRANCH   1   7
BRANCH   6  13
ATOM     13  N   LIG d   1      -5.424  79.901 118.671  0.00  0.00    -0.311 N 
ATOM     14  C   LIG d   1      -6.065  80.924 118.109  0.00  0.00     0.210 C 
ATOM     15  C   LIG d   1      -6.206  82.165 118.997  0.00  0.00     0.109 C 
ATOM     16  O   LIG d   1      -6.558  80.911 116.972  0.00  0.00    -0.276 OA
ATOM     17  H   LIG d   1      -5.085  79.987 119.610  0.00  0.00     0.149 HD
ENDBRANCH   6  13
BRANCH   5  18
ATOM     18  N   LIG d   1      -2.924  79.275 117.030  0.00  0.00     0.381 N 
ATOM     19  H   LIG d   1      -2.354  79.237 116.209  0.00  0.00    -0.090 HD
ATOM     20  H   LIG d   1      -2.517  78.674 117.725  0.00  0.00    -0.090 HD
ATOM     21  H   LIG d   1      -2.965  80.210 117.372  0.00  0.00    -0.090 HD
ENDBRANCH   5  18
BRANCH   3  22
ATOM     22  C   LIG d   1      -5.477  75.980 114.671  0.00  0.00     0.382 C 
ATOM     23  O   LIG d   1      -4.738  76.165 113.675  0.00  0.00    -0.241 OA
ATOM     24  O   LIG d   1      -6.335  75.077 114.640  0.00  0.00    -0.241 OA
ENDBRANCH   3  22
TORSDOF 7
ENDMDL
MODEL 9
REMARK VINA RESULT:      -4.7      2.414      2.954
REMARK  7 active torsions:
REMARK  status: ('A' for Active; 'I' for Inactive)
REMARK    1  A    between atoms: C_2  and  C_3 
REMARK    2  A    between atoms: C_3  and  O_6 
REMARK    3  A    between atoms: C_3  and  C_4 
REMARK    4  A    between atoms: C_7  and  O_6 
REMARK    5  A    between atoms: C_9  and  C_10 
REMARK    6  A    between atoms: N_15  and  C_14 
REMARK    7  A    between atoms: N_20  and  C_19 
REMARK       I    between atoms: C_22  and  N_20 
ROOT
ATOM      1  C   LIG d   1      -2.973  77.544 114.980  0.00  0.00     0.161 C 
ATOM      2  C   LIG d   1      -2.962  77.596 113.576  0.00  0.00     0.016 C 
ATOM      3  C   LIG d   1      -2.035  78.363 112.834  0.00  0.00     0.038 C 
ATOM      4  C   LIG d   1      -0.954  79.015 113.445  0.00  0.00     0.028 C 
ATOM      5  C   LIG d   1      -1.222  79.403 114.896  0.00  0.00    -0.047 C 
ATOM      6  C   LIG d   1      -1.733  78.160 115.660  0.00  0.00     0.091 C 
ENDROOT
BRANCH   1   7
ATOM      7  O   LIG d   1      -3.160  76.183 115.417  0.00  0.00    -0.368 OA
BRANCH   7   8
ATOM      8  C   LIG d   1      -4.421  75.889 116.066  0.00  0.00     0.119 C 
BRANCH   8   9
ATOM      9  C   LIG d   1      -5.199  74.923 115.152  0.00  0.00     0.028 C 
ATOM     10  C   LIG d   1      -6.253  75.645 114.297  0.00  0.00     0.006 C 
ENDBRANCH   8   9
BRANCH   8  11
ATOM     11  C   LIG d   1      -5.298  77.141 116.173  0.00  0.00     0.028 C 
ATOM     12  C   LIG d   1      -5.612  77.526 117.627  0.00  0.00     0.006 C 
ENDBRANCH   8  11
ENDBRANCH   7   8
ENDBRANCH   1   7
BRANCH   6  13
ATOM     13  N   LIG d   1      -2.099  78.471 117.067  0.00  0.00    -0.311 N 
ATOM     14  C   LIG d   1      -1.744  77.713 118.102  0.00  0.00     0.210 C 
ATOM     15  C   LIG d   1      -2.243  78.203 119.465  0.00  0.00     0.109 C 
ATOM     16  O   LIG d   1      -1.036  76.697 118.025  0.00  0.00    -0.276 OA
ATOM     17  H   LIG d   1      -2.647  79.295 117.224  0.00  0.00     0.149 HD
ENDBRANCH   6  13
BRANCH   5  18
ATOM     18  N   LIG d   1       0.031  79.948 115.450  0.00  0.00     0.381 N 
ATOM     19  H   LIG d   1       0.675  80.140 114.709  0.00  0.00    -0.090 HD
ATOM     20  H   LIG d   1       0.445  79.261 116.056  0.00  0.00    -0.090 HD
ATOM     21  H   LIG d   1      -0.156  80.782 115.961  0.00  0.00    -0.090 HD
ENDBRANCH   5  18
BRANCH   3  22
ATOM     22  C   LIG d   1      -2.208  78.516 111.467  0.00  0.00     0.382 C 
ATOM     23  O   LIG d   1      -2.990  77.756 110.845  0.00  0.00    -0.241 OA
ATOM     24  O   LIG d   1      -1.559  79.374 110.839  0.00  0.00    -0.241 OA
ENDBRANCH   3  22
TORSDOF 7
ENDMDL
