MODEL 1
REMARK VINA RESULT:      -5.8      0.000      0.000
REMARK  7 active torsions:
REMARK  status: ('A' for Active; 'I' for Inactive)
REMARK    1  A    between atoms: C_2  and  C_3 
REMARK    2  A    between atoms: C_3  and  O_6 
REMARK    3  A    between atoms: C_3  and  C_4 
REMARK    4  A    between atoms: C_7  and  O_6 
REMARK    5  A    between atoms: C_9  and  C_10 
REMARK    6  A    between atoms: N_15  and  C_14 
REMARK    7  A    between atoms: N_20  and  C_19 
REMARK       I    between atoms: C_22  and  N_20 
ROOT
ATOM      1  C   LIG d   1      -2.914  77.848 114.120  0.00  0.00     0.161 C 
ATOM      2  C   LIG d   1      -3.095  79.051 113.416  0.00  0.00     0.016 C 
ATOM      3  C   LIG d   1      -2.183  80.130 113.472  0.00  0.00     0.038 C 
ATOM      4  C   LIG d   1      -0.944  80.021 114.121  0.00  0.00     0.028 C 
ATOM      5  C   LIG d   1      -0.945  79.009 115.262  0.00  0.00    -0.047 C 
ATOM      6  C   LIG d   1      -1.514  77.669 114.744  0.00  0.00     0.091 C 
ENDROOT
BRANCH   1   7
ATOM      7  O   LIG d   1      -3.229  76.730 113.266  0.00  0.00    -0.368 OA
BRANCH   7   8
ATOM      8  C   LIG d   1      -4.501  76.081 113.511  0.00  0.00     0.119 C 
BRANCH   8   9
ATOM      9  C   LIG d   1      -5.568  76.827 112.686  0.00  0.00     0.028 C 
ATOM     10  C   LIG d   1      -6.945  76.828 113.371  0.00  0.00     0.006 C 
ENDBRANCH   8   9
BRANCH   8  11
ATOM     11  C   LIG d   1      -4.935  76.237 114.971  0.00  0.00     0.028 C 
ATOM     12  C   LIG d   1      -5.020  74.895 115.714  0.00  0.00     0.006 C 
ENDBRANCH   8  11
ENDBRANCH   7   8
ENDBRANCH   1   7
BRANCH   6  13
ATOM     13  N   LIG d   1      -1.628  76.648 115.818  0.00  0.00    -0.311 N 
ATOM     14  C   LIG d   1      -1.226  75.387 115.677  0.00  0.00     0.210 C 
ATOM     15  C   LIG d   1      -1.453  74.494 116.901  0.00  0.00     0.109 C 
ATOM     16  O   LIG d   1      -0.673  74.930 114.665  0.00  0.00    -0.276 OA
ATOM     17  H   LIG d   1      -2.037  76.941 116.684  0.00  0.00     0.149 HD
ENDBRANCH   6  13
BRANCH   5  18
ATOM     18  N   LIG d   1       0.440  78.896 115.758  0.00  0.00     0.381 N 
ATOM     19  H   LIG d   1       0.681  79.715 116.279  0.00  0.00    -0.090 HD
ATOM     20  H   LIG d   1       1.062  78.828 114.972  0.00  0.00    -0.090 HD
ATOM     21  H   LIG d   1       0.531  78.088 116.334  0.00  0.00    -0.090 HD
ENDBRANCH   5  18
BRANCH   3  22
ATOM     22  C   LIG d   1      -2.526  81.349 112.907  0.00  0.00     0.382 C 
ATOM     23  O   LIG d   1      -3.730  81.697 112.849  0.00  0.00    -0.241 OA
ATOM     24  O   LIG d   1      -1.651  82.085 112.415  0.00  0.00    -0.241 OA
ENDBRANCH   3  22
TORSDOF 7
ENDMDL
MODEL 2
REMARK VINA RESULT:      -5.3      2.272      5.045
REMARK  7 active torsions:
REMARK  status: ('A' for Active; 'I' for Inactive)
REMARK    1  A    between atoms: C_2  and  C_3 
REMARK    2  A    between atoms: C_3  and  O_6 
REMARK    3  A    between atoms: C_3  and  C_4 
REMARK    4  A    between atoms: C_7  and  O_6 
REMARK    5  A    between atoms: C_9  and  C_10 
REMARK    6  A    between atoms: N_15  and  C_14 
REMARK    7  A    between atoms: N_20  and  C_19 
REMARK       I    between atoms: C_22  and  N_20 
ROOT
ATOM      1  C   LIG d   1      -1.872  75.568 115.060  0.00  0.00     0.161 C 
ATOM      2  C   LIG d   1      -1.649  75.045 116.344  0.00  0.00     0.016 C 
ATOM      3  C   LIG d   1      -0.900  75.715 117.339  0.00  0.00     0.038 C 
ATOM      4  C   LIG d   1      -0.447  77.031 117.164  0.00  0.00     0.028 C 
ATOM      5  C   LIG d   1      -0.215  77.404 115.704  0.00  0.00    -0.047 C 
ATOM      6  C   LIG d   1      -1.481  77.051 114.889  0.00  0.00     0.091 C 
ENDROOT
BRANCH   1   7
ATOM      7  O   LIG d   1      -3.249  75.367 114.683  0.00  0.00    -0.368 OA
BRANCH   7   8
ATOM      8  C   LIG d   1      -4.212  75.358 115.765  0.00  0.00     0.119 C 
BRANCH   8   9
ATOM      9  C   LIG d   1      -5.324  74.360 115.387  0.00  0.00     0.028 C 
ATOM     10  C   LIG d   1      -6.487  74.369 116.393  0.00  0.00     0.006 C 
ENDBRANCH   8   9
BRANCH   8  11
ATOM     11  C   LIG d   1      -4.911  76.713 115.901  0.00  0.00     0.028 C 
ATOM     12  C   LIG d   1      -4.510  77.466 117.179  0.00  0.00     0.006 C 
ENDBRANCH   8  11
ENDBRANCH   7   8
ENDBRANCH   1   7
BRANCH   6  13
ATOM     13  N   LIG d   1      -1.308  77.306 113.435  0.00  0.00    -0.311 N 
ATOM     14  C   LIG d   1      -2.149  78.047 112.716  0.00  0.00     0.210 C 
ATOM     15  C   LIG d   1      -1.797  78.166 111.230  0.00  0.00     0.109 C 
ATOM     16  O   LIG d   1      -3.135  78.644 113.174  0.00  0.00    -0.276 OA
ATOM     17  H   LIG d   1      -0.516  76.885 112.989  0.00  0.00     0.149 HD
ENDBRANCH   6  13
BRANCH   5  18
ATOM     18  N   LIG d   1       0.120  78.839 115.658  0.00  0.00     0.381 N 
ATOM     19  H   LIG d   1      -0.070  79.203 114.746  0.00  0.00    -0.090 HD
ATOM     20  H   LIG d   1       1.102  78.950 115.843  0.00  0.00    -0.090 HD
ATOM     21  H   LIG d   1      -0.411  79.336 116.339  0.00  0.00    -0.090 HD
ENDBRANCH   5  18
BRANCH   3  22
ATOM     22  C   LIG d   1      -0.562  75.051 118.508  0.00  0.00     0.382 C 
ATOM     23  O   LIG d   1       0.343  74.183 118.498  0.00  0.00    -0.241 OA
ATOM     24  O   LIG d   1      -1.182  75.279 119.565  0.00  0.00    -0.241 OA
ENDBRANCH   3  22
TORSDOF 7
ENDMDL
MODEL 3
REMARK VINA RESULT:      -5.2      2.708      3.664
REMARK  7 active torsions:
REMARK  status: ('A' for Active; 'I' for Inactive)
REMARK    1  A    between atoms: C_2  and  C_3 
REMARK    2  A    between atoms: C_3  and  O_6 
REMARK    3  A    between atoms: C_3  and  C_4 
REMARK    4  A    between atoms: C_7  and  O_6 
REMARK    5  A    between atoms: C_9  and  C_10 
REMARK    6  A    between atoms: N_15  and  C_14 
REMARK    7  A    between atoms: N_20  and  C_19 
REMARK       I    between atoms: C_22  and  N_20 
ROOT
ATOM      1  C   LIG d   1      -2.513  77.419 114.055  0.00  0.00     0.161 C 
ATOM      2  C   LIG d   1      -3.093  78.121 115.125  0.00  0.00     0.016 C 
ATOM      3  C   LIG d   1      -2.984  79.521 115.287  0.00  0.00     0.038 C 
ATOM      4  C   LIG d   1      -2.412  80.339 114.302  0.00  0.00     0.028 C 
ATOM      5  C   LIG d   1      -1.369  79.623 113.450  0.00  0.00    -0.047 C 
ATOM      6  C   LIG d   1      -1.979  78.308 112.912  0.00  0.00     0.091 C 
ENDROOT
BRANCH   1   7
ATOM      7  O   LIG d   1      -3.448  76.451 113.541  0.00  0.00    -0.368 OA
BRANCH   7   8
ATOM      8  C   LIG d   1      -4.665  76.271 114.307  0.00  0.00     0.119 C 
BRANCH   8   9
ATOM      9  C   LIG d   1      -4.708  74.801 114.768  0.00  0.00     0.028 C 
ATOM     10  C   LIG d   1      -5.735  74.567 115.889  0.00  0.00     0.006 C 
ENDBRANCH   8   9
BRANCH   8  11
ATOM     11  C   LIG d   1      -5.907  76.459 113.432  0.00  0.00     0.028 C 
ATOM     12  C   LIG d   1      -5.601  77.176 112.108  0.00  0.00     0.006 C 
ENDBRANCH   8  11
ENDBRANCH   7   8
ENDBRANCH   1   7
BRANCH   6  13
ATOM     13  N   LIG d   1      -0.998  77.504 112.138  0.00  0.00    -0.311 N 
ATOM     14  C   LIG d   1      -0.817  77.634 110.824  0.00  0.00     0.210 C 
ATOM     15  C   LIG d   1       0.230  76.694 110.219  0.00  0.00     0.109 C 
ATOM     16  O   LIG d   1      -1.401  78.462 110.109  0.00  0.00    -0.276 OA
ATOM     17  H   LIG d   1      -0.459  76.830 112.645  0.00  0.00     0.149 HD
ENDBRANCH   6  13
BRANCH   5  18
ATOM     18  N   LIG d   1      -0.956  80.549 112.379  0.00  0.00     0.381 N 
ATOM     19  H   LIG d   1      -0.945  80.069 111.501  0.00  0.00    -0.090 HD
ATOM     20  H   LIG d   1      -0.025  80.874 112.572  0.00  0.00    -0.090 HD
ATOM     21  H   LIG d   1      -1.583  81.322 112.335  0.00  0.00    -0.090 HD
ENDBRANCH   5  18
BRANCH   3  22
ATOM     22  C   LIG d   1      -3.417  80.112 116.464  0.00  0.00     0.382 C 
ATOM     23  O   LIG d   1      -4.599  79.946 116.852  0.00  0.00    -0.241 OA
ATOM     24  O   LIG d   1      -2.654  80.846 117.121  0.00  0.00    -0.241 OA
ENDBRANCH   3  22
TORSDOF 7
ENDMDL
MODEL 4
REMARK VINA RESULT:      -5.2      5.198      6.457
REMARK  7 active torsions:
REMARK  status: ('A' for Active; 'I' for Inactive)
REMARK    1  A    between atoms: C_2  and  C_3 
REMARK    2  A    between atoms: C_3  and  O_6 
REMARK    3  A    between atoms: C_3  and  C_4 
REMARK    4  A    between atoms: C_7  and  O_6 
REMARK    5  A    between atoms: C_9  and  C_10 
REMARK    6  A    between atoms: N_15  and  C_14 
REMARK    7  A    between atoms: N_20  and  C_19 
REMARK       I    between atoms: C_22  and  N_20 
ROOT
ATOM      1  C   LIG d   1      -5.967  79.025 117.749  0.00  0.00     0.161 C 
ATOM      2  C   LIG d   1      -7.343  78.918 118.012  0.00  0.00     0.016 C 
ATOM      3  C   LIG d   1      -8.160  80.023 118.347  0.00  0.00     0.038 C 
ATOM      4  C   LIG d   1      -7.682  81.341 118.294  0.00  0.00     0.028 C 
ATOM      5  C   LIG d   1      -6.179  81.450 118.526  0.00  0.00    -0.047 C 
ATOM      6  C   LIG d   1      -5.452  80.470 117.577  0.00  0.00     0.091 C 
ENDROOT
BRANCH   1   7
ATOM      7  O   LIG d   1      -5.627  78.232 116.595  0.00  0.00    -0.368 OA
BRANCH   7   8
ATOM      8  C   LIG d   1      -5.131  76.897 116.862  0.00  0.00     0.119 C 
BRANCH   8   9
ATOM      9  C   LIG d   1      -3.674  76.836 116.364  0.00  0.00     0.028 C 
ATOM     10  C   LIG d   1      -2.658  76.861 117.518  0.00  0.00     0.006 C 
ENDBRANCH   8   9
BRANCH   8  11
ATOM     11  C   LIG d   1      -5.885  75.847 116.041  0.00  0.00     0.028 C 
ATOM     12  C   LIG d   1      -6.243  76.339 114.630  0.00  0.00     0.006 C 
ENDBRANCH   8  11
ENDBRANCH   7   8
ENDBRANCH   1   7
BRANCH   6  13
ATOM     13  N   LIG d   1      -3.983  80.452 117.797  0.00  0.00    -0.311 N 
ATOM     14  C   LIG d   1      -3.092  80.528 116.810  0.00  0.00     0.210 C 
ATOM     15  C   LIG d   1      -1.627  80.473 117.254  0.00  0.00     0.109 C 
ATOM     16  O   LIG d   1      -3.376  80.668 115.611  0.00  0.00    -0.276 OA
ATOM     17  H   LIG d   1      -3.664  80.372 118.743  0.00  0.00     0.149 HD
ENDBRANCH   6  13
BRANCH   5  18
ATOM     18  N   LIG d   1      -5.796  82.858 118.306  0.00  0.00     0.381 N 
ATOM     19  H   LIG d   1      -5.774  83.054 117.326  0.00  0.00    -0.090 HD
ATOM     20  H   LIG d   1      -4.874  83.005 118.678  0.00  0.00    -0.090 HD
ATOM     21  H   LIG d   1      -6.445  83.463 118.759  0.00  0.00    -0.090 HD
ENDBRANCH   5  18
BRANCH   3  22
ATOM     22  C   LIG d   1      -9.460  79.810 118.780  0.00  0.00     0.382 C 
ATOM     23  O   LIG d   1     -10.059  78.753 118.468  0.00  0.00    -0.241 OA
ATOM     24  O   LIG d   1     -10.056  80.682 119.441  0.00  0.00    -0.241 OA
ENDBRANCH   3  22
TORSDOF 7
ENDMDL
MODEL 5
REMARK VINA RESULT:      -5.2      2.157      2.859
REMARK  7 active torsions:
REMARK  status: ('A' for Active; 'I' for Inactive)
REMARK    1  A    between atoms: C_2  and  C_3 
REMARK    2  A    between atoms: C_3  and  O_6 
REMARK    3  A    between atoms: C_3  and  C_4 
REMARK    4  A    between atoms: C_7  and  O_6 
REMARK    5  A    between atoms: C_9  and  C_10 
REMARK    6  A    between atoms: N_15  and  C_14 
REMARK    7  A    between atoms: N_20  and  C_19 
REMARK       I    between atoms: C_22  and  N_20 
ROOT
ATOM      1  C   LIG d   1      -3.144  77.498 116.298  0.00  0.00     0.161 C 
ATOM      2  C   LIG d   1      -3.455  78.018 115.031  0.00  0.00     0.016 C 
ATOM      3  C   LIG d   1      -2.632  77.842 113.894  0.00  0.00     0.038 C 
ATOM      4  C   LIG d   1      -1.510  77.000 113.914  0.00  0.00     0.028 C 
ATOM      5  C   LIG d   1      -0.881  76.863 115.297  0.00  0.00    -0.047 C 
ATOM      6  C   LIG d   1      -1.981  76.483 116.314  0.00  0.00     0.091 C 
ENDROOT
BRANCH   1   7
ATOM      7  O   LIG d   1      -4.323  76.917 116.891  0.00  0.00    -0.368 OA
BRANCH   7   8
ATOM      8  C   LIG d   1      -5.412  76.620 115.983  0.00  0.00     0.119 C 
BRANCH   8   9
ATOM      9  C   LIG d   1      -6.717  77.085 116.657  0.00  0.00     0.028 C 
ATOM     10  C   LIG d   1      -7.412  75.954 117.434  0.00  0.00     0.006 C 
ENDBRANCH   8   9
BRANCH   8  11
ATOM     11  C   LIG d   1      -5.575  75.110 115.783  0.00  0.00     0.028 C 
ATOM     12  C   LIG d   1      -4.788  74.581 114.574  0.00  0.00     0.006 C 
ENDBRANCH   8  11
ENDBRANCH   7   8
ENDBRANCH   1   7
BRANCH   6  13
ATOM     13  N   LIG d   1      -1.466  76.411 117.706  0.00  0.00    -0.311 N 
ATOM     14  C   LIG d   1      -1.051  75.281 118.276  0.00  0.00     0.210 C 
ATOM     15  C   LIG d   1      -0.577  75.425 119.726  0.00  0.00     0.109 C 
ATOM     16  O   LIG d   1      -0.999  74.180 117.708  0.00  0.00    -0.276 OA
ATOM     17  H   LIG d   1      -1.444  77.265 118.229  0.00  0.00     0.149 HD
ENDBRANCH   6  13
BRANCH   5  18
ATOM     18  N   LIG d   1       0.190  75.853 115.200  0.00  0.00     0.381 N 
ATOM     19  H   LIG d   1      -0.016  75.082 115.804  0.00  0.00    -0.090 HD
ATOM     20  H   LIG d   1       1.055  76.266 115.501  0.00  0.00    -0.090 HD
ATOM     21  H   LIG d   1       0.275  75.535 114.260  0.00  0.00    -0.090 HD
ENDBRANCH   5  18
BRANCH   3  22
ATOM     22  C   LIG d   1      -2.907  78.545 112.731  0.00  0.00     0.382 C 
ATOM     23  O   LIG d   1      -3.052  77.931 111.647  0.00  0.00    -0.241 OA
ATOM     24  O   LIG d   1      -2.969  79.789 112.745  0.00  0.00    -0.241 OA
ENDBRANCH   3  22
TORSDOF 7
ENDMDL
MODEL 6
REMARK VINA RESULT:      -5.1      2.805      4.054
REMARK  7 active torsions:
REMARK  status: ('A' for Active; 'I' for Inactive)
REMARK    1  A    between atoms: C_2  and  C_3 
REMARK    2  A    between atoms: C_3  and  O_6 
REMARK    3  A    between atoms: C_3  and  C_4 
REMARK    4  A    between atoms: C_7  and  O_6 
REMARK    5  A    between atoms: C_9  and  C_10 
REMARK    6  A    between atoms: N_15  and  C_14 
REMARK    7  A    between atoms: N_20  and  C_19 
REMARK       I    between atoms: C_22  and  N_20 
ROOT
ATOM      1  C   LIG d   1      -1.864  78.031 114.282  0.00  0.00     0.161 C 
ATOM      2  C   LIG d   1      -2.461  78.522 115.455  0.00  0.00     0.016 C 
ATOM      3  C   LIG d   1      -2.800  79.881 115.646  0.00  0.00     0.038 C 
ATOM      4  C   LIG d   1      -2.703  80.822 114.609  0.00  0.00     0.028 C 
ATOM      5  C   LIG d   1      -1.637  80.476 113.575  0.00  0.00    -0.047 C 
ATOM      6  C   LIG d   1      -1.853  79.021 113.099  0.00  0.00     0.091 C 
ENDROOT
BRANCH   1   7
ATOM      7  O   LIG d   1      -2.494  76.794 113.894  0.00  0.00    -0.368 OA
BRANCH   7   8
ATOM      8  C   LIG d   1      -3.092  76.021 114.964  0.00  0.00     0.119 C 
BRANCH   8   9
ATOM      9  C   LIG d   1      -2.043  74.997 115.438  0.00  0.00     0.028 C 
ATOM     10  C   LIG d   1      -1.729  75.130 116.937  0.00  0.00     0.006 C 
ENDBRANCH   8   9
BRANCH   8  11
ATOM     11  C   LIG d   1      -4.272  75.186 114.456  0.00  0.00     0.028 C 
ATOM     12  C   LIG d   1      -5.191  74.703 115.588  0.00  0.00     0.006 C 
ENDBRANCH   8  11
ENDBRANCH   7   8
ENDBRANCH   1   7
BRANCH   6  13
ATOM     13  N   LIG d   1      -0.802  78.574 112.148  0.00  0.00    -0.311 N 
ATOM     14  C   LIG d   1      -1.065  78.132 110.919  0.00  0.00     0.210 C 
ATOM     15  C   LIG d   1       0.163  77.702 110.111  0.00  0.00     0.109 C 
ATOM     16  O   LIG d   1      -2.195  78.086 110.411  0.00  0.00    -0.276 OA
ATOM     17  H   LIG d   1       0.147  78.608 112.467  0.00  0.00     0.149 HD
ENDBRANCH   6  13
BRANCH   5  18
ATOM     18  N   LIG d   1      -1.738  81.463 112.484  0.00  0.00     0.381 N 
ATOM     19  H   LIG d   1      -2.481  82.104 112.675  0.00  0.00    -0.090 HD
ATOM     20  H   LIG d   1      -1.950  80.980 111.628  0.00  0.00    -0.090 HD
ATOM     21  H   LIG d   1      -0.878  81.957 112.390  0.00  0.00    -0.090 HD
ENDBRANCH   5  18
BRANCH   3  22
ATOM     22  C   LIG d   1      -3.205  80.320 116.897  0.00  0.00     0.382 C 
ATOM     23  O   LIG d   1      -4.166  81.120 117.000  0.00  0.00    -0.241 OA
ATOM     24  O   LIG d   1      -2.593  79.960 117.921  0.00  0.00    -0.241 OA
ENDBRANCH   3  22
TORSDOF 7
ENDMDL
MODEL 7
REMARK VINA RESULT:      -5.0      2.714      3.982
REMARK  7 active torsions:
REMARK  status: ('A' for Active; 'I' for Inactive)
REMARK    1  A    between atoms: C_2  and  C_3 
REMARK    2  A    between atoms: C_3  and  O_6 
REMARK    3  A    between atoms: C_3  and  C_4 
REMARK    4  A    between atoms: C_7  and  O_6 
REMARK    5  A    between atoms: C_9  and  C_10 
REMARK    6  A    between atoms: N_15  and  C_14 
REMARK    7  A    between atoms: N_20  and  C_19 
REMARK       I    between atoms: C_22  and  N_20 
ROOT
ATOM      1  C   LIG d   1      -2.562  78.182 114.205  0.00  0.00     0.161 C 
ATOM      2  C   LIG d   1      -2.094  77.635 113.000  0.00  0.00     0.016 C 
ATOM      3  C   LIG d   1      -1.387  78.381 112.029  0.00  0.00     0.038 C 
ATOM      4  C   LIG d   1      -0.966  79.698 112.268  0.00  0.00     0.028 C 
ATOM      5  C   LIG d   1      -1.851  80.446 113.258  0.00  0.00    -0.047 C 
ATOM      6  C   LIG d   1      -2.016  79.588 114.533  0.00  0.00     0.091 C 
ENDROOT
BRANCH   1   7
ATOM      7  O   LIG d   1      -2.292  77.274 115.292  0.00  0.00    -0.368 OA
BRANCH   7   8
ATOM      8  C   LIG d   1      -2.305  75.864 114.961  0.00  0.00     0.119 C 
BRANCH   8   9
ATOM      9  C   LIG d   1      -3.561  75.248 115.608  0.00  0.00     0.028 C 
ATOM     10  C   LIG d   1      -4.687  75.005 114.588  0.00  0.00     0.006 C 
ENDBRANCH   8   9
BRANCH   8  11
ATOM     11  C   LIG d   1      -1.121  75.132 115.599  0.00  0.00     0.028 C 
ATOM     12  C   LIG d   1      -1.389  74.718 117.055  0.00  0.00     0.006 C 
ENDBRANCH   8  11
ENDBRANCH   7   8
ENDBRANCH   1   7
BRANCH   6  13
ATOM     13  N   LIG d   1      -2.937  80.210 115.520  0.00  0.00    -0.311 N 
ATOM     14  C   LIG d   1      -2.568  80.548 116.754  0.00  0.00     0.210 C 
ATOM     15  C   LIG d   1      -3.678  81.157 117.617  0.00  0.00     0.109 C 
ATOM     16  O   LIG d   1      -1.419  80.432 117.206  0.00  0.00    -0.276 OA
ATOM     17  H   LIG d   1      -3.881  80.368 115.226  0.00  0.00     0.149 HD
ENDBRANCH   6  13
BRANCH   5  18
ATOM     18  N   LIG d   1      -1.221  81.754 113.519  0.00  0.00     0.381 N 
ATOM     19  H   LIG d   1      -1.912  82.407 113.831  0.00  0.00    -0.090 HD
ATOM     20  H   LIG d   1      -0.824  82.100 112.664  0.00  0.00    -0.090 HD
ATOM     21  H   LIG d   1      -0.509  81.658 114.210  0.00  0.00    -0.090 HD
ENDBRANCH   5  18
BRANCH   3  22
ATOM     22  C   LIG d   1      -1.129  77.822 110.786  0.00  0.00     0.382 C 
ATOM     23  O   LIG d   1      -1.350  78.483 109.743  0.00  0.00    -0.241 OA
ATOM     24  O   LIG d   1      -0.719  76.649 110.694  0.00  0.00    -0.241 OA
ENDBRANCH   3  22
TORSDOF 7
ENDMDL
MODEL 8
REMARK VINA RESULT:      -5.0      4.785      7.302
REMARK  7 active torsions:
REMARK  status: ('A' for Active; 'I' for Inactive)
REMARK    1  A    between atoms: C_2  and  C_3 
REMARK    2  A    between atoms: C_3  and  O_6 
REMARK    3  A    between atoms: C_3  and  C_4 
REMARK    4  A    between atoms: C_7  and  O_6 
REMARK    5  A    between atoms: C_9  and  C_10 
REMARK    6  A    between atoms: N_15  and  C_14 
REMARK    7  A    between atoms: N_20  and  C_19 
REMARK       I    between atoms: C_22  and  N_20 
ROOT
ATOM      1  C   LIG d   1      -5.747  77.951 117.279  0.00  0.00     0.161 C 
ATOM      2  C   LIG d   1      -6.402  76.730 117.046  0.00  0.00     0.016 C 
ATOM      3  C   LIG d   1      -7.758  76.500 117.374  0.00  0.00     0.038 C 
ATOM      4  C   LIG d   1      -8.598  77.531 117.820  0.00  0.00     0.028 C 
ATOM      5  C   LIG d   1      -7.855  78.648 118.544  0.00  0.00    -0.047 C 
ATOM      6  C   LIG d   1      -6.677  79.121 117.662  0.00  0.00     0.091 C 
ENDROOT
BRANCH   1   7
ATOM      7  O   LIG d   1      -4.947  78.302 116.132  0.00  0.00    -0.368 OA
BRANCH   7   8
ATOM      8  C   LIG d   1      -3.632  77.696 116.064  0.00  0.00     0.119 C 
BRANCH   8   9
ATOM      9  C   LIG d   1      -2.609  78.758 116.512  0.00  0.00     0.028 C 
ATOM     10  C   LIG d   1      -2.988  80.173 116.043  0.00  0.00     0.006 C 
ENDBRANCH   8   9
BRANCH   8  11
ATOM     11  C   LIG d   1      -3.252  77.352 114.620  0.00  0.00     0.028 C 
ATOM     12  C   LIG d   1      -4.248  76.388 113.956  0.00  0.00     0.006 C 
ENDBRANCH   8  11
ENDBRANCH   7   8
ENDBRANCH   1   7
BRANCH   6  13
ATOM     13  N   LIG d   1      -5.847  80.155 118.332  0.00  0.00    -0.311 N 
ATOM     14  C   LIG d   1      -6.070  81.463 118.217  0.00  0.00     0.210 C 
ATOM     15  C   LIG d   1      -5.083  82.357 118.974  0.00  0.00     0.109 C 
ATOM     16  O   LIG d   1      -7.011  81.967 117.585  0.00  0.00    -0.276 OA
ATOM     17  H   LIG d   1      -5.080  79.833 118.890  0.00  0.00     0.149 HD
ENDBRANCH   6  13
BRANCH   5  18
ATOM     18  N   LIG d   1      -8.829  79.718 118.832  0.00  0.00     0.381 N 
ATOM     19  H   LIG d   1      -9.714  79.487 118.428  0.00  0.00    -0.090 HD
ATOM     20  H   LIG d   1      -8.505  80.573 118.414  0.00  0.00    -0.090 HD
ATOM     21  H   LIG d   1      -8.925  79.836 119.816  0.00  0.00    -0.090 HD
ENDBRANCH   5  18
BRANCH   3  22
ATOM     22  C   LIG d   1      -8.276  75.216 117.293  0.00  0.00     0.382 C 
ATOM     23  O   LIG d   1      -7.536  74.227 117.513  0.00  0.00    -0.241 OA
ATOM     24  O   LIG d   1      -9.462  75.033 116.960  0.00  0.00    -0.241 OA
ENDBRANCH   3  22
TORSDOF 7
ENDMDL
MODEL 9
REMARK VINA RESULT:      -4.9      3.181      4.390
REMARK  7 active torsions:
REMARK  status: ('A' for Active; 'I' for Inactive)
REMARK    1  A    between atoms: C_2  and  C_3 
REMARK    2  A    between atoms: C_3  and  O_6 
REMARK    3  A    between atoms: C_3  and  C_4 
REMARK    4  A    between atoms: C_7  and  O_6 
REMARK    5  A    between atoms: C_9  and  C_10 
REMARK    6  A    between atoms: N_15  and  C_14 
REMARK    7  A    between atoms: N_20  and  C_19 
REMARK       I    between atoms: C_22  and  N_20 
ROOT
ATOM      1  C   LIG d   1      -2.219  79.649 116.506  0.00  0.00     0.161 C 
ATOM      2  C   LIG d   1      -2.506  80.565 115.480  0.00  0.00     0.016 C 
ATOM      3  C   LIG d   1      -2.367  80.262 114.106  0.00  0.00     0.038 C 
ATOM      4  C   LIG d   1      -2.076  78.965 113.658  0.00  0.00     0.028 C 
ATOM      5  C   LIG d   1      -1.287  78.138 114.668  0.00  0.00    -0.047 C 
ATOM      6  C   LIG d   1      -2.007  78.195 116.034  0.00  0.00     0.091 C 
ENDROOT
BRANCH   1   7
ATOM      7  O   LIG d   1      -3.250  79.704 117.512  0.00  0.00    -0.368 OA
BRANCH   7   8
ATOM      8  C   LIG d   1      -3.745  81.024 117.846  0.00  0.00     0.119 C 
BRANCH   8   9
ATOM      9  C   LIG d   1      -3.072  81.451 119.164  0.00  0.00     0.028 C 
ATOM     10  C   LIG d   1      -1.924  82.450 118.940  0.00  0.00     0.006 C 
ENDBRANCH   8   9
BRANCH   8  11
ATOM     11  C   LIG d   1      -5.246  80.996 118.148  0.00  0.00     0.028 C 
ATOM     12  C   LIG d   1      -5.845  82.401 118.323  0.00  0.00     0.006 C 
ENDBRANCH   8  11
ENDBRANCH   7   8
ENDBRANCH   1   7
BRANCH   6  13
ATOM     13  N   LIG d   1      -1.257  77.481 117.100  0.00  0.00    -0.311 N 
ATOM     14  C   LIG d   1      -1.476  76.208 117.424  0.00  0.00     0.210 C 
ATOM     15  C   LIG d   1      -0.606  75.672 118.565  0.00  0.00     0.109 C 
ATOM     16  O   LIG d   1      -2.286  75.462 116.853  0.00  0.00    -0.276 OA
ATOM     17  H   LIG d   1      -0.559  78.002 117.594  0.00  0.00     0.149 HD
ENDBRANCH   6  13
BRANCH   5  18
ATOM     18  N   LIG d   1      -1.173  76.769 114.131  0.00  0.00     0.381 N 
ATOM     19  H   LIG d   1      -2.084  76.404 113.936  0.00  0.00    -0.090 HD
ATOM     20  H   LIG d   1      -0.740  76.183 114.823  0.00  0.00    -0.090 HD
ATOM     21  H   LIG d   1      -0.624  76.774 113.299  0.00  0.00    -0.090 HD
ENDBRANCH   5  18
BRANCH   3  22
ATOM     22  C   LIG d   1      -2.482  81.274 113.165  0.00  0.00     0.382 C 
ATOM     23  O   LIG d   1      -1.468  81.925 112.817  0.00  0.00    -0.241 OA
ATOM     24  O   LIG d   1      -3.595  81.573 112.691  0.00  0.00    -0.241 OA
ENDBRANCH   3  22
TORSDOF 7
ENDMDL
