MODEL 1
REMARK VINA RESULT:      -4.9      0.000      0.000
REMARK  7 active torsions:
REMARK  status: ('A' for Active; 'I' for Inactive)
REMARK    1  A    between atoms: C_2  and  C_3 
REMARK    2  A    between atoms: C_3  and  O_6 
REMARK    3  A    between atoms: C_3  and  C_4 
REMARK    4  A    between atoms: C_7  and  O_6 
REMARK    5  A    between atoms: C_9  and  C_10 
REMARK    6  A    between atoms: N_15  and  C_14 
REMARK    7  A    between atoms: N_20  and  C_19 
REMARK       I    between atoms: C_22  and  N_20 
ROOT
ATOM      1  C   LIG d   1      -3.646  77.802 116.729  0.00  0.00     0.161 C 
ATOM      2  C   LIG d   1      -2.910  78.686 117.535  0.00  0.00     0.016 C 
ATOM      3  C   LIG d   1      -1.572  79.053 117.267  0.00  0.00     0.038 C 
ATOM      4  C   LIG d   1      -0.922  78.676 116.082  0.00  0.00     0.028 C 
ATOM      5  C   LIG d   1      -1.453  77.375 115.489  0.00  0.00    -0.047 C 
ATOM      6  C   LIG d   1      -2.991  77.467 115.372  0.00  0.00     0.091 C 
ENDROOT
BRANCH   1   7
ATOM      7  O   LIG d   1      -4.978  78.315 116.530  0.00  0.00    -0.368 OA
BRANCH   7   8
ATOM      8  C   LIG d   1      -6.006  77.771 117.394  0.00  0.00     0.119 C 
BRANCH   8   9
ATOM      9  C   LIG d   1      -6.728  76.658 116.610  0.00  0.00     0.028 C 
ATOM     10  C   LIG d   1      -6.344  75.252 117.100  0.00  0.00     0.006 C 
ENDBRANCH   8   9
BRANCH   8  11
ATOM     11  C   LIG d   1      -7.084  78.815 117.702  0.00  0.00     0.028 C 
ATOM     12  C   LIG d   1      -6.564  80.257 117.596  0.00  0.00     0.006 C 
ENDBRANCH   8  11
ENDBRANCH   7   8
ENDBRANCH   1   7
BRANCH   6  13
ATOM     13  N   LIG d   1      -3.599  76.204 114.879  0.00  0.00    -0.311 N 
ATOM     14  C   LIG d   1      -3.934  76.000 113.606  0.00  0.00     0.210 C 
ATOM     15  C   LIG d   1      -4.565  74.635 113.314  0.00  0.00     0.109 C 
ATOM     16  O   LIG d   1      -3.739  76.808 112.685  0.00  0.00    -0.276 OA
ATOM     17  H   LIG d   1      -3.763  75.483 115.553  0.00  0.00     0.149 HD
ENDBRANCH   6  13
BRANCH   5  18
ATOM     18  N   LIG d   1      -0.785  77.174 114.189  0.00  0.00     0.381 N 
ATOM     19  H   LIG d   1      -1.401  76.695 113.563  0.00  0.00    -0.090 HD
ATOM     20  H   LIG d   1       0.030  76.603 114.327  0.00  0.00    -0.090 HD
ATOM     21  H   LIG d   1      -0.523  78.053 113.800  0.00  0.00    -0.090 HD
ENDBRANCH   5  18
BRANCH   3  22
ATOM     22  C   LIG d   1      -0.855  79.774 118.210  0.00  0.00     0.382 C 
ATOM     23  O   LIG d   1      -0.813  79.381 119.401  0.00  0.00    -0.241 OA
ATOM     24  O   LIG d   1      -0.286  80.836 117.895  0.00  0.00    -0.241 OA
ENDBRANCH   3  22
TORSDOF 7
ENDMDL
MODEL 2
REMARK VINA RESULT:      -4.7      2.835      4.576
REMARK  7 active torsions:
REMARK  status: ('A' for Active; 'I' for Inactive)
REMARK    1  A    between atoms: C_2  and  C_3 
REMARK    2  A    between atoms: C_3  and  O_6 
REMARK    3  A    between atoms: C_3  and  C_4 
REMARK    4  A    between atoms: C_7  and  O_6 
REMARK    5  A    between atoms: C_9  and  C_10 
REMARK    6  A    between atoms: N_15  and  C_14 
REMARK    7  A    between atoms: N_20  and  C_19 
REMARK       I    between atoms: C_22  and  N_20 
ROOT
ATOM      1  C   LIG d   1      -2.482  76.066 116.441  0.00  0.00     0.161 C 
ATOM      2  C   LIG d   1      -2.795  76.970 115.413  0.00  0.00     0.016 C 
ATOM      3  C   LIG d   1      -2.130  76.990 114.165  0.00  0.00     0.038 C 
ATOM      4  C   LIG d   1      -1.202  76.001 113.804  0.00  0.00     0.028 C 
ATOM      5  C   LIG d   1      -0.492  75.372 114.997  0.00  0.00    -0.047 C 
ATOM      6  C   LIG d   1      -1.550  74.909 116.024  0.00  0.00     0.091 C 
ENDROOT
BRANCH   1   7
ATOM      7  O   LIG d   1      -3.695  75.548 117.022  0.00  0.00    -0.368 OA
BRANCH   7   8
ATOM      8  C   LIG d   1      -4.912  75.783 116.271  0.00  0.00     0.119 C 
BRANCH   8   9
ATOM      9  C   LIG d   1      -6.065  75.909 117.286  0.00  0.00     0.028 C 
ATOM     10  C   LIG d   1      -6.614  74.541 117.724  0.00  0.00     0.006 C 
ENDBRANCH   8   9
BRANCH   8  11
ATOM     11  C   LIG d   1      -5.270  74.576 115.399  0.00  0.00     0.028 C 
ATOM     12  C   LIG d   1      -5.272  74.906 113.898  0.00  0.00     0.006 C 
ENDBRANCH   8  11
ENDBRANCH   7   8
ENDBRANCH   1   7
BRANCH   6  13
ATOM     13  N   LIG d   1      -0.936  74.358 117.261  0.00  0.00    -0.311 N 
ATOM     14  C   LIG d   1      -0.095  75.045 118.031  0.00  0.00     0.210 C 
ATOM     15  C   LIG d   1       0.437  74.283 119.248  0.00  0.00     0.109 C 
ATOM     16  O   LIG d   1       0.236  76.225 117.840  0.00  0.00    -0.276 OA
ATOM     17  H   LIG d   1      -1.175  73.417 117.508  0.00  0.00     0.149 HD
ENDBRANCH   6  13
BRANCH   5  18
ATOM     18  N   LIG d   1       0.342  74.266 114.487  0.00  0.00     0.381 N 
ATOM     19  H   LIG d   1       1.040  74.029 115.163  0.00  0.00    -0.090 HD
ATOM     20  H   LIG d   1       0.804  74.568 113.648  0.00  0.00    -0.090 HD
ATOM     21  H   LIG d   1      -0.227  73.472 114.294  0.00  0.00    -0.090 HD
ENDBRANCH   5  18
BRANCH   3  22
ATOM     22  C   LIG d   1      -2.362  78.031 113.279  0.00  0.00     0.382 C 
ATOM     23  O   LIG d   1      -2.602  79.183 113.714  0.00  0.00    -0.241 OA
ATOM     24  O   LIG d   1      -2.378  77.823 112.051  0.00  0.00    -0.241 OA
ENDBRANCH   3  22
TORSDOF 7
ENDMDL
MODEL 3
REMARK VINA RESULT:      -4.7      3.253      5.211
REMARK  7 active torsions:
REMARK  status: ('A' for Active; 'I' for Inactive)
REMARK    1  A    between atoms: C_2  and  C_3 
REMARK    2  A    between atoms: C_3  and  O_6 
REMARK    3  A    between atoms: C_3  and  C_4 
REMARK    4  A    between atoms: C_7  and  O_6 
REMARK    5  A    between atoms: C_9  and  C_10 
REMARK    6  A    between atoms: N_15  and  C_14 
REMARK    7  A    between atoms: N_20  and  C_19 
REMARK       I    between atoms: C_22  and  N_20 
ROOT
ATOM      1  C   LIG d   1      -4.798  75.310 116.576  0.00  0.00     0.161 C 
ATOM      2  C   LIG d   1      -5.372  75.293 115.294  0.00  0.00     0.016 C 
ATOM      3  C   LIG d   1      -4.620  75.411 114.103  0.00  0.00     0.038 C 
ATOM      4  C   LIG d   1      -3.217  75.402 114.108  0.00  0.00     0.028 C 
ATOM      5  C   LIG d   1      -2.613  75.929 115.405  0.00  0.00    -0.047 C 
ATOM      6  C   LIG d   1      -3.260  75.188 116.597  0.00  0.00     0.091 C 
ENDROOT
BRANCH   1   7
ATOM      7  O   LIG d   1      -5.394  74.282 117.392  0.00  0.00    -0.368 OA
BRANCH   7   8
ATOM      8  C   LIG d   1      -6.403  74.722 118.334  0.00  0.00     0.119 C 
BRANCH   8   9
ATOM      9  C   LIG d   1      -7.779  74.492 117.680  0.00  0.00     0.028 C 
ATOM     10  C   LIG d   1      -8.636  75.768 117.654  0.00  0.00     0.006 C 
ENDBRANCH   8   9
BRANCH   8  11
ATOM     11  C   LIG d   1      -6.317  76.231 118.579  0.00  0.00     0.028 C 
ATOM     12  C   LIG d   1      -5.635  76.581 119.912  0.00  0.00     0.006 C 
ENDBRANCH   8  11
ENDBRANCH   7   8
ENDBRANCH   1   7
BRANCH   6  13
ATOM     13  N   LIG d   1      -2.786  75.702 117.909  0.00  0.00    -0.311 N 
ATOM     14  C   LIG d   1      -1.780  75.157 118.590  0.00  0.00     0.210 C 
ATOM     15  C   LIG d   1      -1.466  75.830 119.930  0.00  0.00     0.109 C 
ATOM     16  O   LIG d   1      -1.096  74.200 118.197  0.00  0.00    -0.276 OA
ATOM     17  H   LIG d   1      -3.265  76.496 118.287  0.00  0.00     0.149 HD
ENDBRANCH   6  13
BRANCH   5  18
ATOM     18  N   LIG d   1      -1.152  75.734 115.328  0.00  0.00     0.381 N 
ATOM     19  H   LIG d   1      -0.700  76.617 115.199  0.00  0.00    -0.090 HD
ATOM     20  H   LIG d   1      -0.943  75.154 114.534  0.00  0.00    -0.090 HD
ATOM     21  H   LIG d   1      -0.821  75.302 116.162  0.00  0.00    -0.090 HD
ENDBRANCH   5  18
BRANCH   3  22
ATOM     22  C   LIG d   1      -5.273  75.579 112.891  0.00  0.00     0.382 C 
ATOM     23  O   LIG d   1      -4.875  74.962 111.873  0.00  0.00    -0.241 OA
ATOM     24  O   LIG d   1      -6.227  76.374 112.793  0.00  0.00    -0.241 OA
ENDBRANCH   3  22
TORSDOF 7
ENDMDL
MODEL 4
REMARK VINA RESULT:      -4.7      2.596      4.189
REMARK  7 active torsions:
REMARK  status: ('A' for Active; 'I' for Inactive)
REMARK    1  A    between atoms: C_2  and  C_3 
REMARK    2  A    between atoms: C_3  and  O_6 
REMARK    3  A    between atoms: C_3  and  C_4 
REMARK    4  A    between atoms: C_7  and  O_6 
REMARK    5  A    between atoms: C_9  and  C_10 
REMARK    6  A    between atoms: N_15  and  C_14 
REMARK    7  A    between atoms: N_20  and  C_19 
REMARK       I    between atoms: C_22  and  N_20 
ROOT
ATOM      1  C   LIG d   1      -1.801  78.153 116.203  0.00  0.00     0.161 C 
ATOM      2  C   LIG d   1      -2.208  78.977 115.140  0.00  0.00     0.016 C 
ATOM      3  C   LIG d   1      -2.176  78.573 113.786  0.00  0.00     0.038 C 
ATOM      4  C   LIG d   1      -1.874  77.255 113.412  0.00  0.00     0.028 C 
ATOM      5  C   LIG d   1      -0.972  76.534 114.407  0.00  0.00    -0.047 C 
ATOM      6  C   LIG d   1      -1.575  76.674 115.824  0.00  0.00     0.091 C 
ENDROOT
BRANCH   1   7
ATOM      7  O   LIG d   1      -2.744  78.253 117.288  0.00  0.00    -0.368 OA
BRANCH   7   8
ATOM      8  C   LIG d   1      -4.145  78.250 116.917  0.00  0.00     0.119 C 
BRANCH   8   9
ATOM      9  C   LIG d   1      -4.845  79.345 117.746  0.00  0.00     0.028 C 
ATOM     10  C   LIG d   1      -6.373  79.322 117.576  0.00  0.00     0.006 C 
ENDBRANCH   8   9
BRANCH   8  11
ATOM     11  C   LIG d   1      -4.825  76.939 117.321  0.00  0.00     0.028 C 
ATOM     12  C   LIG d   1      -5.198  76.064 116.113  0.00  0.00     0.006 C 
ENDBRANCH   8  11
ENDBRANCH   7   8
ENDBRANCH   1   7
BRANCH   6  13
ATOM     13  N   LIG d   1      -0.710  76.069 116.870  0.00  0.00    -0.311 N 
ATOM     14  C   LIG d   1      -1.046  74.979 117.558  0.00  0.00     0.210 C 
ATOM     15  C   LIG d   1      -0.019  74.534 118.605  0.00  0.00     0.109 C 
ATOM     16  O   LIG d   1      -2.081  74.321 117.380  0.00  0.00    -0.276 OA
ATOM     17  H   LIG d   1       0.163  76.521 117.058  0.00  0.00     0.149 HD
ENDBRANCH   6  13
BRANCH   5  18
ATOM     18  N   LIG d   1      -0.851  75.132 113.966  0.00  0.00     0.381 N 
ATOM     19  H   LIG d   1      -0.773  75.097 112.969  0.00  0.00    -0.090 HD
ATOM     20  H   LIG d   1      -1.682  74.634 114.235  0.00  0.00    -0.090 HD
ATOM     21  H   LIG d   1      -0.052  74.710 114.384  0.00  0.00    -0.090 HD
ENDBRANCH   5  18
BRANCH   3  22
ATOM     22  C   LIG d   1      -2.408  79.505 112.785  0.00  0.00     0.382 C 
ATOM     23  O   LIG d   1      -3.264  80.407 112.955  0.00  0.00    -0.241 OA
ATOM     24  O   LIG d   1      -1.805  79.429 111.698  0.00  0.00    -0.241 OA
ENDBRANCH   3  22
TORSDOF 7
ENDMDL
MODEL 5
REMARK VINA RESULT:      -4.6      2.542      4.933
REMARK  7 active torsions:
REMARK  status: ('A' for Active; 'I' for Inactive)
REMARK    1  A    between atoms: C_2  and  C_3 
REMARK    2  A    between atoms: C_3  and  O_6 
REMARK    3  A    between atoms: C_3  and  C_4 
REMARK    4  A    between atoms: C_7  and  O_6 
REMARK    5  A    between atoms: C_9  and  C_10 
REMARK    6  A    between atoms: N_15  and  C_14 
REMARK    7  A    between atoms: N_20  and  C_19 
REMARK       I    between atoms: C_22  and  N_20 
ROOT
ATOM      1  C   LIG d   1      -5.461  76.205 116.688  0.00  0.00     0.161 C 
ATOM      2  C   LIG d   1      -5.482  75.649 115.397  0.00  0.00     0.016 C 
ATOM      3  C   LIG d   1      -4.423  75.792 114.472  0.00  0.00     0.038 C 
ATOM      4  C   LIG d   1      -3.198  76.375 114.830  0.00  0.00     0.028 C 
ATOM      5  C   LIG d   1      -3.320  77.394 115.958  0.00  0.00    -0.047 C 
ATOM      6  C   LIG d   1      -4.088  76.750 117.135  0.00  0.00     0.091 C 
ENDROOT
BRANCH   1   7
ATOM      7  O   LIG d   1      -5.953  75.243 117.642  0.00  0.00    -0.368 OA
BRANCH   7   8
ATOM      8  C   LIG d   1      -7.329  75.411 118.064  0.00  0.00     0.119 C 
BRANCH   8   9
ATOM      9  C   LIG d   1      -8.117  74.180 117.576  0.00  0.00     0.028 C 
ATOM     10  C   LIG d   1      -9.636  74.355 117.735  0.00  0.00     0.006 C 
ENDBRANCH   8   9
BRANCH   8  11
ATOM     11  C   LIG d   1      -7.982  76.611 117.372  0.00  0.00     0.028 C 
ATOM     12  C   LIG d   1      -8.357  77.733 118.353  0.00  0.00     0.006 C 
ENDBRANCH   8  11
ENDBRANCH   7   8
ENDBRANCH   1   7
BRANCH   6  13
ATOM     13  N   LIG d   1      -4.325  77.705 118.248  0.00  0.00    -0.311 N 
ATOM     14  C   LIG d   1      -4.875  78.906 118.079  0.00  0.00     0.210 C 
ATOM     15  C   LIG d   1      -5.010  79.741 119.356  0.00  0.00     0.109 C 
ATOM     16  O   LIG d   1      -5.294  79.346 116.998  0.00  0.00    -0.276 OA
ATOM     17  H   LIG d   1      -4.043  77.417 119.165  0.00  0.00     0.149 HD
ENDBRANCH   6  13
BRANCH   5  18
ATOM     18  N   LIG d   1      -1.955  77.820 116.323  0.00  0.00     0.381 N 
ATOM     19  H   LIG d   1      -1.329  77.042 116.258  0.00  0.00    -0.090 HD
ATOM     20  H   LIG d   1      -1.959  78.143 117.274  0.00  0.00    -0.090 HD
ATOM     21  H   LIG d   1      -1.653  78.550 115.717  0.00  0.00    -0.090 HD
ENDBRANCH   5  18
BRANCH   3  22
ATOM     22  C   LIG d   1      -4.598  75.382 113.159  0.00  0.00     0.382 C 
ATOM     23  O   LIG d   1      -4.098  74.300 112.767  0.00  0.00    -0.241 OA
ATOM     24  O   LIG d   1      -5.212  76.102 112.349  0.00  0.00    -0.241 OA
ENDBRANCH   3  22
TORSDOF 7
ENDMDL
MODEL 6
REMARK VINA RESULT:      -4.4      3.169      5.156
REMARK  7 active torsions:
REMARK  status: ('A' for Active; 'I' for Inactive)
REMARK    1  A    between atoms: C_2  and  C_3 
REMARK    2  A    between atoms: C_3  and  O_6 
REMARK    3  A    between atoms: C_3  and  C_4 
REMARK    4  A    between atoms: C_7  and  O_6 
REMARK    5  A    between atoms: C_9  and  C_10 
REMARK    6  A    between atoms: N_15  and  C_14 
REMARK    7  A    between atoms: N_20  and  C_19 
REMARK       I    between atoms: C_22  and  N_20 
ROOT
ATOM      1  C   LIG d   1      -3.124  76.114 116.815  0.00  0.00     0.161 C 
ATOM      2  C   LIG d   1      -3.825  76.048 115.599  0.00  0.00     0.016 C 
ATOM      3  C   LIG d   1      -3.196  75.857 114.347  0.00  0.00     0.038 C 
ATOM      4  C   LIG d   1      -1.827  75.566 114.242  0.00  0.00     0.028 C 
ATOM      5  C   LIG d   1      -0.999  76.123 115.395  0.00  0.00    -0.047 C 
ATOM      6  C   LIG d   1      -1.643  75.688 116.731  0.00  0.00     0.091 C 
ENDROOT
BRANCH   1   7
ATOM      7  O   LIG d   1      -3.812  75.342 117.818  0.00  0.00    -0.368 OA
BRANCH   7   8
ATOM      8  C   LIG d   1      -5.195  75.698 118.060  0.00  0.00     0.119 C 
BRANCH   8   9
ATOM      9  C   LIG d   1      -5.282  76.273 119.487  0.00  0.00     0.028 C 
ATOM     10  C   LIG d   1      -3.973  76.948 119.929  0.00  0.00     0.006 C 
ENDBRANCH   8   9
BRANCH   8  11
ATOM     11  C   LIG d   1      -6.097  74.461 118.065  0.00  0.00     0.028 C 
ATOM     12  C   LIG d   1      -7.546  74.778 117.661  0.00  0.00     0.006 C 
ENDBRANCH   8  11
ENDBRANCH   7   8
ENDBRANCH   1   7
BRANCH   6  13
ATOM     13  N   LIG d   1      -0.943  76.260 117.911  0.00  0.00    -0.311 N 
ATOM     14  C   LIG d   1      -0.240  75.528 118.773  0.00  0.00     0.210 C 
ATOM     15  C   LIG d   1       0.385  76.314 119.930  0.00  0.00     0.109 C 
ATOM     16  O   LIG d   1      -0.047  74.307 118.671  0.00  0.00    -0.276 OA
ATOM     17  H   LIG d   1      -1.021  77.249 118.052  0.00  0.00     0.149 HD
ENDBRANCH   6  13
BRANCH   5  18
ATOM     18  N   LIG d   1       0.381  75.630 115.231  0.00  0.00     0.381 N 
ATOM     19  H   LIG d   1       0.633  75.061 116.014  0.00  0.00    -0.090 HD
ATOM     20  H   LIG d   1       1.006  76.416 115.199  0.00  0.00    -0.090 HD
ATOM     21  H   LIG d   1       0.457  75.102 114.390  0.00  0.00    -0.090 HD
ENDBRANCH   5  18
BRANCH   3  22
ATOM     22  C   LIG d   1      -3.931  75.996 113.180  0.00  0.00     0.382 C 
ATOM     23  O   LIG d   1      -3.926  77.088 112.562  0.00  0.00    -0.241 OA
ATOM     24  O   LIG d   1      -4.635  75.058 112.761  0.00  0.00    -0.241 OA
ENDBRANCH   3  22
TORSDOF 7
ENDMDL
MODEL 7
REMARK VINA RESULT:      -4.4      2.541      5.881
REMARK  7 active torsions:
REMARK  status: ('A' for Active; 'I' for Inactive)
REMARK    1  A    between atoms: C_2  and  C_3 
REMARK    2  A    between atoms: C_3  and  O_6 
REMARK    3  A    between atoms: C_3  and  C_4 
REMARK    4  A    between atoms: C_7  and  O_6 
REMARK    5  A    between atoms: C_9  and  C_10 
REMARK    6  A    between atoms: N_15  and  C_14 
REMARK    7  A    between atoms: N_20  and  C_19 
REMARK       I    between atoms: C_22  and  N_20 
ROOT
ATOM      1  C   LIG d   1      -4.730  75.861 117.177  0.00  0.00     0.161 C 
ATOM      2  C   LIG d   1      -6.011  75.295 117.287  0.00  0.00     0.016 C 
ATOM      3  C   LIG d   1      -7.192  76.062 117.414  0.00  0.00     0.038 C 
ATOM      4  C   LIG d   1      -7.187  77.459 117.287  0.00  0.00     0.028 C 
ATOM      5  C   LIG d   1      -5.859  78.098 117.680  0.00  0.00    -0.047 C 
ATOM      6  C   LIG d   1      -4.715  77.383 116.925  0.00  0.00     0.091 C 
ENDROOT
BRANCH   1   7
ATOM      7  O   LIG d   1      -3.980  75.177 116.155  0.00  0.00    -0.368 OA
BRANCH   7   8
ATOM      8  C   LIG d   1      -4.004  75.777 114.836  0.00  0.00     0.119 C 
BRANCH   8   9
ATOM      9  C   LIG d   1      -4.927  74.916 113.953  0.00  0.00     0.028 C 
ATOM     10  C   LIG d   1      -5.436  75.679 112.718  0.00  0.00     0.006 C 
ENDBRANCH   8   9
BRANCH   8  11
ATOM     11  C   LIG d   1      -2.627  75.711 114.169  0.00  0.00     0.028 C 
ATOM     12  C   LIG d   1      -1.493  75.431 115.168  0.00  0.00     0.006 C 
ENDBRANCH   8  11
ENDBRANCH   7   8
ENDBRANCH   1   7
BRANCH   6  13
ATOM     13  N   LIG d   1      -3.374  77.891 117.316  0.00  0.00    -0.311 N 
ATOM     14  C   LIG d   1      -2.621  78.656 116.527  0.00  0.00     0.210 C 
ATOM     15  C   LIG d   1      -1.264  79.053 117.116  0.00  0.00     0.109 C 
ATOM     16  O   LIG d   1      -2.962  79.070 115.409  0.00  0.00    -0.276 OA
ATOM     17  H   LIG d   1      -3.033  77.629 118.220  0.00  0.00     0.149 HD
ENDBRANCH   6  13
BRANCH   5  18
ATOM     18  N   LIG d   1      -5.947  79.537 117.369  0.00  0.00     0.381 N 
ATOM     19  H   LIG d   1      -5.209  79.794 116.745  0.00  0.00    -0.090 HD
ATOM     20  H   LIG d   1      -5.838  80.061 118.220  0.00  0.00    -0.090 HD
ATOM     21  H   LIG d   1      -6.830  79.743 116.954  0.00  0.00    -0.090 HD
ENDBRANCH   5  18
BRANCH   3  22
ATOM     22  C   LIG d   1      -8.392  75.432 117.711  0.00  0.00     0.382 C 
ATOM     23  O   LIG d   1      -8.464  74.180 117.690  0.00  0.00    -0.241 OA
ATOM     24  O   LIG d   1      -9.413  76.102 117.955  0.00  0.00    -0.241 OA
ENDBRANCH   3  22
TORSDOF 7
ENDMDL
MODEL 8
REMARK VINA RESULT:      -4.4      2.762      4.802
REMARK  7 active torsions:
REMARK  status: ('A' for Active; 'I' for Inactive)
REMARK    1  A    between atoms: C_2  and  C_3 
REMARK    2  A    between atoms: C_3  and  O_6 
REMARK    3  A    between atoms: C_3  and  C_4 
REMARK    4  A    between atoms: C_7  and  O_6 
REMARK    5  A    between atoms: C_9  and  C_10 
REMARK    6  A    between atoms: N_15  and  C_14 
REMARK    7  A    between atoms: N_20  and  C_19 
REMARK       I    between atoms: C_22  and  N_20 
ROOT
ATOM      1  C   LIG d   1      -1.677  78.348 116.212  0.00  0.00     0.161 C 
ATOM      2  C   LIG d   1      -2.124  79.093 115.108  0.00  0.00     0.016 C 
ATOM      3  C   LIG d   1      -2.198  78.573 113.796  0.00  0.00     0.038 C 
ATOM      4  C   LIG d   1      -1.971  77.216 113.522  0.00  0.00     0.028 C 
ATOM      5  C   LIG d   1      -1.031  76.546 114.519  0.00  0.00    -0.047 C 
ATOM      6  C   LIG d   1      -1.531  76.834 115.953  0.00  0.00     0.091 C 
ENDROOT
BRANCH   1   7
ATOM      7  O   LIG d   1      -2.540  78.582 117.342  0.00  0.00    -0.368 OA
BRANCH   7   8
ATOM      8  C   LIG d   1      -1.897  79.068 118.546  0.00  0.00     0.119 C 
BRANCH   8   9
ATOM      9  C   LIG d   1      -2.864  80.060 119.219  0.00  0.00     0.028 C 
ATOM     10  C   LIG d   1      -4.330  79.808 118.828  0.00  0.00     0.006 C 
ENDBRANCH   8   9
BRANCH   8  11
ATOM     11  C   LIG d   1      -0.643  79.884 118.217  0.00  0.00     0.028 C 
ATOM     12  C   LIG d   1      -0.695  81.311 118.786  0.00  0.00     0.006 C 
ENDBRANCH   8  11
ENDBRANCH   7   8
ENDBRANCH   1   7
BRANCH   6  13
ATOM     13  N   LIG d   1      -0.620  76.285 116.991  0.00  0.00    -0.311 N 
ATOM     14  C   LIG d   1      -0.807  75.105 117.581  0.00  0.00     0.210 C 
ATOM     15  C   LIG d   1       0.239  74.739 118.639  0.00  0.00     0.109 C 
ATOM     16  O   LIG d   1      -1.720  74.313 117.305  0.00  0.00    -0.276 OA
ATOM     17  H   LIG d   1       0.165  76.849 117.253  0.00  0.00     0.149 HD
ENDBRANCH   6  13
BRANCH   5  18
ATOM     18  N   LIG d   1      -0.992  75.107 114.197  0.00  0.00     0.381 N 
ATOM     19  H   LIG d   1      -1.852  74.833 113.766  0.00  0.00    -0.090 HD
ATOM     20  H   LIG d   1      -0.887  74.586 115.050  0.00  0.00    -0.090 HD
ATOM     21  H   LIG d   1      -0.229  74.915 113.586  0.00  0.00    -0.090 HD
ENDBRANCH   5  18
BRANCH   3  22
ATOM     22  C   LIG d   1      -2.463  79.423 112.733  0.00  0.00     0.382 C 
ATOM     23  O   LIG d   1      -1.895  79.244 111.629  0.00  0.00    -0.241 OA
ATOM     24  O   LIG d   1      -3.230  80.394 112.877  0.00  0.00    -0.241 OA
ENDBRANCH   3  22
TORSDOF 7
ENDMDL
MODEL 9
REMARK VINA RESULT:      -4.3      2.447      5.684
REMARK  7 active torsions:
REMARK  status: ('A' for Active; 'I' for Inactive)
REMARK    1  A    between atoms: C_2  and  C_3 
REMARK    2  A    between atoms: C_3  and  O_6 
REMARK    3  A    between atoms: C_3  and  C_4 
REMARK    4  A    between atoms: C_7  and  O_6 
REMARK    5  A    between atoms: C_9  and  C_10 
REMARK    6  A    between atoms: N_15  and  C_14 
REMARK    7  A    between atoms: N_20  and  C_19 
REMARK       I    between atoms: C_22  and  N_20 
ROOT
ATOM      1  C   LIG d   1      -4.636  76.860 116.421  0.00  0.00     0.161 C 
ATOM      2  C   LIG d   1      -5.998  76.537 116.540  0.00  0.00     0.016 C 
ATOM      3  C   LIG d   1      -6.908  77.283 117.323  0.00  0.00     0.038 C 
ATOM      4  C   LIG d   1      -6.547  78.499 117.924  0.00  0.00     0.028 C 
ATOM      5  C   LIG d   1      -5.060  78.597 118.246  0.00  0.00    -0.047 C 
ATOM      6  C   LIG d   1      -4.248  78.245 116.979  0.00  0.00     0.091 C 
ENDROOT
BRANCH   1   7
ATOM      7  O   LIG d   1      -4.224  76.741 115.045  0.00  0.00    -0.368 OA
BRANCH   7   8
ATOM      8  C   LIG d   1      -3.585  75.494 114.676  0.00  0.00     0.119 C 
BRANCH   8   9
ATOM      9  C   LIG d   1      -2.161  75.828 114.192  0.00  0.00     0.028 C 
ATOM     10  C   LIG d   1      -1.076  75.251 115.116  0.00  0.00     0.006 C 
ENDBRANCH   8   9
BRANCH   8  11
ATOM     11  C   LIG d   1      -4.281  74.845 113.475  0.00  0.00     0.028 C 
ATOM     12  C   LIG d   1      -5.330  75.763 112.828  0.00  0.00     0.006 C 
ENDBRANCH   8  11
ENDBRANCH   7   8
ENDBRANCH   1   7
BRANCH   6  13
ATOM     13  N   LIG d   1      -2.783  78.235 117.230  0.00  0.00    -0.311 N 
ATOM     14  C   LIG d   1      -1.890  78.732 116.376  0.00  0.00     0.210 C 
ATOM     15  C   LIG d   1      -0.429  78.602 116.820  0.00  0.00     0.109 C 
ATOM     16  O   LIG d   1      -2.170  79.298 115.308  0.00  0.00    -0.276 OA
ATOM     17  H   LIG d   1      -2.470  77.823 118.087  0.00  0.00     0.149 HD
ENDBRANCH   6  13
BRANCH   5  18
ATOM     18  N   LIG d   1      -4.800  79.963 118.739  0.00  0.00     0.381 N 
ATOM     19  H   LIG d   1      -5.593  80.294 119.252  0.00  0.00    -0.090 HD
ATOM     20  H   LIG d   1      -4.658  80.571 117.952  0.00  0.00    -0.090 HD
ATOM     21  H   LIG d   1      -3.992  79.967 119.322  0.00  0.00    -0.090 HD
ENDBRANCH   5  18
BRANCH   3  22
ATOM     22  C   LIG d   1      -8.186  76.793 117.545  0.00  0.00     0.382 C 
ATOM     23  O   LIG d   1      -9.136  77.588 117.747  0.00  0.00    -0.241 OA
ATOM     24  O   LIG d   1      -8.393  75.566 117.589  0.00  0.00    -0.241 OA
ENDBRANCH   3  22
TORSDOF 7
ENDMDL
