MODEL 1
REMARK VINA RESULT:      -5.0      0.000      0.000
REMARK  7 active torsions:
REMARK  status: ('A' for Active; 'I' for Inactive)
REMARK    1  A    between atoms: C_2  and  C_3 
REMARK    2  A    between atoms: C_3  and  O_6 
REMARK    3  A    between atoms: C_3  and  C_4 
REMARK    4  A    between atoms: C_7  and  O_6 
REMARK    5  A    between atoms: C_9  and  C_10 
REMARK    6  A    between atoms: N_15  and  C_14 
REMARK    7  A    between atoms: N_20  and  C_19 
REMARK       I    between atoms: C_22  and  N_20 
ROOT
ATOM      1  C   LIG d   1      -2.734  79.946 114.902  0.00  0.00     0.161 C 
ATOM      2  C   LIG d   1      -2.394  81.142 114.249  0.00  0.00     0.016 C 
ATOM      3  C   LIG d   1      -1.795  81.187 112.969  0.00  0.00     0.038 C 
ATOM      4  C   LIG d   1      -1.633  80.034 112.185  0.00  0.00     0.028 C 
ATOM      5  C   LIG d   1      -1.498  78.757 113.007  0.00  0.00    -0.047 C 
ATOM      6  C   LIG d   1      -2.667  78.684 114.016  0.00  0.00     0.091 C 
ENDROOT
BRANCH   1   7
ATOM      7  O   LIG d   1      -4.040  80.069 115.499  0.00  0.00    -0.368 OA
BRANCH   7   8
ATOM      8  C   LIG d   1      -4.076  80.123 116.946  0.00  0.00     0.119 C 
BRANCH   8   9
ATOM      9  C   LIG d   1      -5.413  79.505 117.399  0.00  0.00     0.028 C 
ATOM     10  C   LIG d   1      -5.700  78.159 116.713  0.00  0.00     0.006 C 
ENDBRANCH   8   9
BRANCH   8  11
ATOM     11  C   LIG d   1      -4.106  81.569 117.450  0.00  0.00     0.028 C 
ATOM     12  C   LIG d   1      -2.783  82.000 118.103  0.00  0.00     0.006 C 
ENDBRANCH   8  11
ENDBRANCH   7   8
ENDBRANCH   1   7
BRANCH   6  13
ATOM     13  N   LIG d   1      -2.564  77.507 114.917  0.00  0.00    -0.311 N 
ATOM     14  C   LIG d   1      -3.084  76.315 114.629  0.00  0.00     0.210 C 
ATOM     15  C   LIG d   1      -2.882  75.243 115.705  0.00  0.00     0.109 C 
ATOM     16  O   LIG d   1      -3.666  76.035 113.570  0.00  0.00    -0.276 OA
ATOM     17  H   LIG d   1      -2.081  77.637 115.785  0.00  0.00     0.149 HD
ENDBRANCH   6  13
BRANCH   5  18
ATOM     18  N   LIG d   1      -1.474  77.622 112.066  0.00  0.00     0.381 N 
ATOM     19  H   LIG d   1      -1.674  76.772 112.555  0.00  0.00    -0.090 HD
ATOM     20  H   LIG d   1      -0.554  77.548 111.668  0.00  0.00    -0.090 HD
ATOM     21  H   LIG d   1      -2.146  77.764 111.343  0.00  0.00    -0.090 HD
ENDBRANCH   5  18
BRANCH   3  22
ATOM     22  C   LIG d   1      -1.314  82.391 112.476  0.00  0.00     0.382 C 
ATOM     23  O   LIG d   1      -1.083  83.342 113.262  0.00  0.00    -0.241 OA
ATOM     24  O   LIG d   1      -1.151  82.553 111.252  0.00  0.00    -0.241 OA
ENDBRANCH   3  22
TORSDOF 7
ENDMDL
MODEL 2
REMARK VINA RESULT:      -4.8      3.358      5.139
REMARK  7 active torsions:
REMARK  status: ('A' for Active; 'I' for Inactive)
REMARK    1  A    between atoms: C_2  and  C_3 
REMARK    2  A    between atoms: C_3  and  O_6 
REMARK    3  A    between atoms: C_3  and  C_4 
REMARK    4  A    between atoms: C_7  and  O_6 
REMARK    5  A    between atoms: C_9  and  C_10 
REMARK    6  A    between atoms: N_15  and  C_14 
REMARK    7  A    between atoms: N_20  and  C_19 
REMARK       I    between atoms: C_22  and  N_20 
ROOT
ATOM      1  C   LIG d   1      -4.093  76.914 116.851  0.00  0.00     0.161 C 
ATOM      2  C   LIG d   1      -4.999  77.876 117.329  0.00  0.00     0.016 C 
ATOM      3  C   LIG d   1      -4.878  79.259 117.060  0.00  0.00     0.038 C 
ATOM      4  C   LIG d   1      -3.922  79.759 116.164  0.00  0.00     0.028 C 
ATOM      5  C   LIG d   1      -2.676  78.886 116.057  0.00  0.00    -0.047 C 
ATOM      6  C   LIG d   1      -3.108  77.428 115.781  0.00  0.00     0.091 C 
ENDROOT
BRANCH   1   7
ATOM      7  O   LIG d   1      -4.814  75.767 116.360  0.00  0.00    -0.368 OA
BRANCH   7   8
ATOM      8  C   LIG d   1      -6.070  76.041 115.691  0.00  0.00     0.119 C 
BRANCH   8   9
ATOM      9  C   LIG d   1      -7.133  75.108 116.302  0.00  0.00     0.028 C 
ATOM     10  C   LIG d   1      -8.329  75.882 116.883  0.00  0.00     0.006 C 
ENDBRANCH   8   9
BRANCH   8  11
ATOM     11  C   LIG d   1      -6.005  75.666 114.208  0.00  0.00     0.028 C 
ATOM     12  C   LIG d   1      -4.978  74.561 113.917  0.00  0.00     0.006 C 
ENDBRANCH   8  11
ENDBRANCH   7   8
ENDBRANCH   1   7
BRANCH   6  13
ATOM     13  N   LIG d   1      -1.954  76.492 115.745  0.00  0.00    -0.311 N 
ATOM     14  C   LIG d   1      -1.341  76.126 114.621  0.00  0.00     0.210 C 
ATOM     15  C   LIG d   1      -0.186  75.137 114.806  0.00  0.00     0.109 C 
ATOM     16  O   LIG d   1      -1.623  76.552 113.491  0.00  0.00    -0.276 OA
ATOM     17  H   LIG d   1      -1.640  76.122 116.621  0.00  0.00     0.149 HD
ENDBRANCH   6  13
BRANCH   5  18
ATOM     18  N   LIG d   1      -1.827  79.449 114.990  0.00  0.00     0.381 N 
ATOM     19  H   LIG d   1      -2.339  80.142 114.480  0.00  0.00    -0.090 HD
ATOM     20  H   LIG d   1      -1.573  78.714 114.355  0.00  0.00    -0.090 HD
ATOM     21  H   LIG d   1      -1.008  79.855 115.385  0.00  0.00    -0.090 HD
ENDBRANCH   5  18
BRANCH   3  22
ATOM     22  C   LIG d   1      -5.695  80.162 117.723  0.00  0.00     0.382 C 
ATOM     23  O   LIG d   1      -6.875  80.340 117.336  0.00  0.00    -0.241 OA
ATOM     24  O   LIG d   1      -5.254  80.833 118.675  0.00  0.00    -0.241 OA
ENDBRANCH   3  22
TORSDOF 7
ENDMDL
MODEL 3
REMARK VINA RESULT:      -4.7      3.893      5.570
REMARK  7 active torsions:
REMARK  status: ('A' for Active; 'I' for Inactive)
REMARK    1  A    between atoms: C_2  and  C_3 
REMARK    2  A    between atoms: C_3  and  O_6 
REMARK    3  A    between atoms: C_3  and  C_4 
REMARK    4  A    between atoms: C_7  and  O_6 
REMARK    5  A    between atoms: C_9  and  C_10 
REMARK    6  A    between atoms: N_15  and  C_14 
REMARK    7  A    between atoms: N_20  and  C_19 
REMARK       I    between atoms: C_22  and  N_20 
ROOT
ATOM      1  C   LIG d   1      -5.420  77.522 117.080  0.00  0.00     0.161 C 
ATOM      2  C   LIG d   1      -6.284  78.607 117.304  0.00  0.00     0.016 C 
ATOM      3  C   LIG d   1      -5.848  79.951 117.359  0.00  0.00     0.038 C 
ATOM      4  C   LIG d   1      -4.532  80.316 117.041  0.00  0.00     0.028 C 
ATOM      5  C   LIG d   1      -3.516  79.210 117.304  0.00  0.00    -0.047 C 
ATOM      6  C   LIG d   1      -4.000  77.911 116.620  0.00  0.00     0.091 C 
ENDROOT
BRANCH   1   7
ATOM      7  O   LIG d   1      -6.018  76.607 116.140  0.00  0.00    -0.368 OA
BRANCH   7   8
ATOM      8  C   LIG d   1      -6.075  75.219 116.550  0.00  0.00     0.119 C 
BRANCH   8   9
ATOM      9  C   LIG d   1      -6.126  74.360 115.271  0.00  0.00     0.028 C 
ATOM     10  C   LIG d   1      -5.638  75.126 114.030  0.00  0.00     0.006 C 
ENDBRANCH   8   9
BRANCH   8  11
ATOM     11  C   LIG d   1      -7.377  74.912 117.297  0.00  0.00     0.028 C 
ATOM     12  C   LIG d   1      -8.564  75.749 116.795  0.00  0.00     0.006 C 
ENDBRANCH   8  11
ENDBRANCH   7   8
ENDBRANCH   1   7
BRANCH   6  13
ATOM     13  N   LIG d   1      -3.105  76.757 116.899  0.00  0.00    -0.311 N 
ATOM     14  C   LIG d   1      -2.437  76.102 115.951  0.00  0.00     0.210 C 
ATOM     15  C   LIG d   1      -1.587  74.930 116.451  0.00  0.00     0.109 C 
ATOM     16  O   LIG d   1      -2.443  76.401 114.747  0.00  0.00    -0.276 OA
ATOM     17  H   LIG d   1      -3.018  76.468 117.853  0.00  0.00     0.149 HD
ENDBRANCH   6  13
BRANCH   5  18
ATOM     18  N   LIG d   1      -2.210  79.676 116.801  0.00  0.00     0.381 N 
ATOM     19  H   LIG d   1      -2.102  79.412 115.842  0.00  0.00    -0.090 HD
ATOM     20  H   LIG d   1      -1.480  79.236 117.333  0.00  0.00    -0.090 HD
ATOM     21  H   LIG d   1      -2.144  80.667 116.889  0.00  0.00    -0.090 HD
ENDBRANCH   5  18
BRANCH   3  22
ATOM     22  C   LIG d   1      -6.725  80.941 117.774  0.00  0.00     0.382 C 
ATOM     23  O   LIG d   1      -7.348  81.624 116.925  0.00  0.00    -0.241 OA
ATOM     24  O   LIG d   1      -6.868  81.191 118.986  0.00  0.00    -0.241 OA
ENDBRANCH   3  22
TORSDOF 7
ENDMDL
MODEL 4
REMARK VINA RESULT:      -4.7      1.972      2.863
REMARK  7 active torsions:
REMARK  status: ('A' for Active; 'I' for Inactive)
REMARK    1  A    between atoms: C_2  and  C_3 
REMARK    2  A    between atoms: C_3  and  O_6 
REMARK    3  A    between atoms: C_3  and  C_4 
REMARK    4  A    between atoms: C_7  and  O_6 
REMARK    5  A    between atoms: C_9  and  C_10 
REMARK    6  A    between atoms: N_15  and  C_14 
REMARK    7  A    between atoms: N_20  and  C_19 
REMARK       I    between atoms: C_22  and  N_20 
ROOT
ATOM      1  C   LIG d   1      -0.268  80.071 114.689  0.00  0.00     0.161 C 
ATOM      2  C   LIG d   1      -0.377  81.331 114.077  0.00  0.00     0.016 C 
ATOM      3  C   LIG d   1      -1.128  81.564 112.902  0.00  0.00     0.038 C 
ATOM      4  C   LIG d   1      -1.950  80.575 112.340  0.00  0.00     0.028 C 
ATOM      5  C   LIG d   1      -1.476  79.156 112.632  0.00  0.00    -0.047 C 
ATOM      6  C   LIG d   1      -1.247  79.006 114.153  0.00  0.00     0.091 C 
ENDROOT
BRANCH   1   7
ATOM      7  O   LIG d   1      -0.409  80.208 116.117  0.00  0.00    -0.368 OA
BRANCH   7   8
ATOM      8  C   LIG d   1      -0.921  81.478 116.588  0.00  0.00     0.119 C 
BRANCH   8   9
ATOM      9  C   LIG d   1      -0.020  81.938 117.751  0.00  0.00     0.028 C 
ATOM     10  C   LIG d   1      -0.442  83.305 118.316  0.00  0.00     0.006 C 
ENDBRANCH   8   9
BRANCH   8  11
ATOM     11  C   LIG d   1      -2.319  81.325 117.195  0.00  0.00     0.028 C 
ATOM     12  C   LIG d   1      -3.427  81.876 116.283  0.00  0.00     0.006 C 
ENDBRANCH   8  11
ENDBRANCH   7   8
ENDBRANCH   1   7
BRANCH   6  13
ATOM     13  N   LIG d   1      -0.702  77.672 114.516  0.00  0.00    -0.311 N 
ATOM     14  C   LIG d   1      -1.467  76.628 114.832  0.00  0.00     0.210 C 
ATOM     15  C   LIG d   1      -0.702  75.351 115.194  0.00  0.00     0.109 C 
ATOM     16  O   LIG d   1      -2.708  76.630 114.816  0.00  0.00    -0.276 OA
ATOM     17  H   LIG d   1       0.294  77.573 114.523  0.00  0.00     0.149 HD
ENDBRANCH   6  13
BRANCH   5  18
ATOM     18  N   LIG d   1      -2.496  78.229 112.106  0.00  0.00     0.381 N 
ATOM     19  H   LIG d   1      -2.506  78.267 111.107  0.00  0.00    -0.090 HD
ATOM     20  H   LIG d   1      -3.399  78.514 112.442  0.00  0.00    -0.090 HD
ATOM     21  H   LIG d   1      -2.300  77.299 112.408  0.00  0.00    -0.090 HD
ENDBRANCH   5  18
BRANCH   3  22
ATOM     22  C   LIG d   1      -1.030  82.786 112.254  0.00  0.00     0.382 C 
ATOM     23  O   LIG d   1      -1.040  82.833 111.000  0.00  0.00    -0.241 OA
ATOM     24  O   LIG d   1      -0.886  83.837 112.906  0.00  0.00    -0.241 OA
ENDBRANCH   3  22
TORSDOF 7
ENDMDL
MODEL 5
REMARK VINA RESULT:      -4.6      3.484      5.758
REMARK  7 active torsions:
REMARK  status: ('A' for Active; 'I' for Inactive)
REMARK    1  A    between atoms: C_2  and  C_3 
REMARK    2  A    between atoms: C_3  and  O_6 
REMARK    3  A    between atoms: C_3  and  C_4 
REMARK    4  A    between atoms: C_7  and  O_6 
REMARK    5  A    between atoms: C_9  and  C_10 
REMARK    6  A    between atoms: N_15  and  C_14 
REMARK    7  A    between atoms: N_20  and  C_19 
REMARK       I    between atoms: C_22  and  N_20 
ROOT
ATOM      1  C   LIG d   1      -4.717  78.424 116.470  0.00  0.00     0.161 C 
ATOM      2  C   LIG d   1      -4.163  77.552 115.518  0.00  0.00     0.016 C 
ATOM      3  C   LIG d   1      -4.827  76.399 115.040  0.00  0.00     0.038 C 
ATOM      4  C   LIG d   1      -6.161  76.120 115.371  0.00  0.00     0.028 C 
ATOM      5  C   LIG d   1      -6.584  76.697 116.718  0.00  0.00    -0.047 C 
ATOM      6  C   LIG d   1      -6.216  78.197 116.759  0.00  0.00     0.091 C 
ENDROOT
BRANCH   1   7
ATOM      7  O   LIG d   1      -4.484  79.790 116.075  0.00  0.00    -0.368 OA
BRANCH   7   8
ATOM      8  C   LIG d   1      -3.304  80.422 116.630  0.00  0.00     0.119 C 
BRANCH   8   9
ATOM      9  C   LIG d   1      -3.268  80.094 118.135  0.00  0.00     0.028 C 
ATOM     10  C   LIG d   1      -3.628  81.308 119.009  0.00  0.00     0.006 C 
ENDBRANCH   8   9
BRANCH   8  11
ATOM     11  C   LIG d   1      -3.399  81.948 116.549  0.00  0.00     0.028 C 
ATOM     12  C   LIG d   1      -2.565  82.537 115.400  0.00  0.00     0.006 C 
ENDBRANCH   8  11
ENDBRANCH   7   8
ENDBRANCH   1   7
BRANCH   6  13
ATOM     13  N   LIG d   1      -6.519  78.819 118.075  0.00  0.00    -0.311 N 
ATOM     14  C   LIG d   1      -7.122  80.000 118.206  0.00  0.00     0.210 C 
ATOM     15  C   LIG d   1      -7.321  80.466 119.652  0.00  0.00     0.109 C 
ATOM     16  O   LIG d   1      -7.539  80.689 117.264  0.00  0.00    -0.276 OA
ATOM     17  H   LIG d   1      -6.243  78.313 118.893  0.00  0.00     0.149 HD
ENDBRANCH   6  13
BRANCH   5  18
ATOM     18  N   LIG d   1      -8.030  76.451 116.873  0.00  0.00     0.381 N 
ATOM     19  H   LIG d   1      -8.304  76.628 117.819  0.00  0.00    -0.090 HD
ATOM     20  H   LIG d   1      -8.221  75.487 116.664  0.00  0.00    -0.090 HD
ATOM     21  H   LIG d   1      -8.544  77.041 116.256  0.00  0.00    -0.090 HD
ENDBRANCH   5  18
BRANCH   3  22
ATOM     22  C   LIG d   1      -4.140  75.489 114.251  0.00  0.00     0.382 C 
ATOM     23  O   LIG d   1      -2.890  75.410 114.328  0.00  0.00    -0.241 OA
ATOM     24  O   LIG d   1      -4.750  74.776 113.432  0.00  0.00    -0.241 OA
ENDBRANCH   3  22
TORSDOF 7
ENDMDL
MODEL 6
REMARK VINA RESULT:      -4.6      1.805      2.495
REMARK  7 active torsions:
REMARK  status: ('A' for Active; 'I' for Inactive)
REMARK    1  A    between atoms: C_2  and  C_3 
REMARK    2  A    between atoms: C_3  and  O_6 
REMARK    3  A    between atoms: C_3  and  C_4 
REMARK    4  A    between atoms: C_7  and  O_6 
REMARK    5  A    between atoms: C_9  and  C_10 
REMARK    6  A    between atoms: N_15  and  C_14 
REMARK    7  A    between atoms: N_20  and  C_19 
REMARK       I    between atoms: C_22  and  N_20 
ROOT
ATOM      1  C   LIG d   1      -2.292  79.677 116.292  0.00  0.00     0.161 C 
ATOM      2  C   LIG d   1      -2.597  80.638 115.313  0.00  0.00     0.016 C 
ATOM      3  C   LIG d   1      -2.459  80.406 113.925  0.00  0.00     0.038 C 
ATOM      4  C   LIG d   1      -2.149  79.137 113.413  0.00  0.00     0.028 C 
ATOM      5  C   LIG d   1      -1.344  78.274 114.378  0.00  0.00    -0.047 C 
ATOM      6  C   LIG d   1      -2.059  78.251 115.748  0.00  0.00     0.091 C 
ENDROOT
BRANCH   1   7
ATOM      7  O   LIG d   1      -3.320  79.666 117.302  0.00  0.00    -0.368 OA
BRANCH   7   8
ATOM      8  C   LIG d   1      -4.679  79.836 116.831  0.00  0.00     0.119 C 
BRANCH   8   9
ATOM      9  C   LIG d   1      -5.391  80.792 117.808  0.00  0.00     0.028 C 
ATOM     10  C   LIG d   1      -4.425  81.800 118.452  0.00  0.00     0.006 C 
ENDBRANCH   8   9
BRANCH   8  11
ATOM     11  C   LIG d   1      -5.463  78.523 116.904  0.00  0.00     0.028 C 
ATOM     12  C   LIG d   1      -4.985  77.606 118.041  0.00  0.00     0.006 C 
ENDBRANCH   8  11
ENDBRANCH   7   8
ENDBRANCH   1   7
BRANCH   6  13
ATOM     13  N   LIG d   1      -1.293  77.498 116.775  0.00  0.00    -0.311 N 
ATOM     14  C   LIG d   1      -1.534  76.224 117.080  0.00  0.00     0.210 C 
ATOM     15  C   LIG d   1      -0.642  75.644 118.182  0.00  0.00     0.109 C 
ATOM     16  O   LIG d   1      -2.380  75.510 116.521  0.00  0.00    -0.276 OA
ATOM     17  H   LIG d   1      -0.568  77.992 117.256  0.00  0.00     0.149 HD
ENDBRANCH   6  13
BRANCH   5  18
ATOM     18  N   LIG d   1      -1.210  76.935 113.773  0.00  0.00     0.381 N 
ATOM     19  H   LIG d   1      -1.558  76.951 112.836  0.00  0.00    -0.090 HD
ATOM     20  H   LIG d   1      -1.760  76.283 114.304  0.00  0.00    -0.090 HD
ATOM     21  H   LIG d   1      -0.254  76.654 113.776  0.00  0.00    -0.090 HD
ENDBRANCH   5  18
BRANCH   3  22
ATOM     22  C   LIG d   1      -2.594  81.461 113.036  0.00  0.00     0.382 C 
ATOM     23  O   LIG d   1      -1.770  82.407 113.057  0.00  0.00    -0.241 OA
ATOM     24  O   LIG d   1      -3.553  81.499 112.242  0.00  0.00    -0.241 OA
ENDBRANCH   3  22
TORSDOF 7
ENDMDL
MODEL 7
REMARK VINA RESULT:      -4.6      2.460      5.183
REMARK  7 active torsions:
REMARK  status: ('A' for Active; 'I' for Inactive)
REMARK    1  A    between atoms: C_2  and  C_3 
REMARK    2  A    between atoms: C_3  and  O_6 
REMARK    3  A    between atoms: C_3  and  C_4 
REMARK    4  A    between atoms: C_7  and  O_6 
REMARK    5  A    between atoms: C_9  and  C_10 
REMARK    6  A    between atoms: N_15  and  C_14 
REMARK    7  A    between atoms: N_20  and  C_19 
REMARK       I    between atoms: C_22  and  N_20 
ROOT
ATOM      1  C   LIG d   1      -2.551  78.671 115.134  0.00  0.00     0.161 C 
ATOM      2  C   LIG d   1      -3.372  77.577 114.814  0.00  0.00     0.016 C 
ATOM      3  C   LIG d   1      -3.616  77.148 113.488  0.00  0.00     0.038 C 
ATOM      4  C   LIG d   1      -2.930  77.696 112.394  0.00  0.00     0.028 C 
ATOM      5  C   LIG d   1      -2.475  79.133 112.622  0.00  0.00    -0.047 C 
ATOM      6  C   LIG d   1      -1.706  79.210 113.961  0.00  0.00     0.091 C 
ENDROOT
BRANCH   1   7
ATOM      7  O   LIG d   1      -1.702  78.334 116.249  0.00  0.00    -0.368 OA
BRANCH   7   8
ATOM      8  C   LIG d   1      -1.604  76.926 116.574  0.00  0.00     0.119 C 
BRANCH   8   9
ATOM      9  C   LIG d   1      -1.671  76.798 118.108  0.00  0.00     0.028 C 
ATOM     10  C   LIG d   1      -2.897  77.510 118.703  0.00  0.00     0.006 C 
ENDBRANCH   8   9
BRANCH   8  11
ATOM     11  C   LIG d   1      -0.238  76.357 116.178  0.00  0.00     0.028 C 
ATOM     12  C   LIG d   1      -0.299  75.485 114.914  0.00  0.00     0.006 C 
ENDBRANCH   8  11
ENDBRANCH   7   8
ENDBRANCH   1   7
BRANCH   6  13
ATOM     13  N   LIG d   1      -1.299  80.598 114.301  0.00  0.00    -0.311 N 
ATOM     14  C   LIG d   1      -2.061  81.665 114.066  0.00  0.00     0.210 C 
ATOM     15  C   LIG d   1      -1.442  83.005 114.476  0.00  0.00     0.109 C 
ATOM     16  O   LIG d   1      -3.203  81.626 113.585  0.00  0.00    -0.276 OA
ATOM     17  H   LIG d   1      -0.399  80.719 114.723  0.00  0.00     0.149 HD
ENDBRANCH   6  13
BRANCH   5  18
ATOM     18  N   LIG d   1      -1.657  79.531 111.461  0.00  0.00     0.381 N 
ATOM     19  H   LIG d   1      -2.167  79.372 110.616  0.00  0.00    -0.090 HD
ATOM     20  H   LIG d   1      -0.827  78.965 111.439  0.00  0.00    -0.090 HD
ATOM     21  H   LIG d   1      -1.409  80.494 111.532  0.00  0.00    -0.090 HD
ENDBRANCH   5  18
BRANCH   3  22
ATOM     22  C   LIG d   1      -4.586  76.188 113.244  0.00  0.00     0.382 C 
ATOM     23  O   LIG d   1      -4.416  75.010 113.641  0.00  0.00    -0.241 OA
ATOM     24  O   LIG d   1      -5.609  76.474 112.594  0.00  0.00    -0.241 OA
ENDBRANCH   3  22
TORSDOF 7
ENDMDL
MODEL 8
REMARK VINA RESULT:      -4.6      3.141      4.628
REMARK  7 active torsions:
REMARK  status: ('A' for Active; 'I' for Inactive)
REMARK    1  A    between atoms: C_2  and  C_3 
REMARK    2  A    between atoms: C_3  and  O_6 
REMARK    3  A    between atoms: C_3  and  C_4 
REMARK    4  A    between atoms: C_7  and  O_6 
REMARK    5  A    between atoms: C_9  and  C_10 
REMARK    6  A    between atoms: N_15  and  C_14 
REMARK    7  A    between atoms: N_20  and  C_19 
REMARK       I    between atoms: C_22  and  N_20 
ROOT
ATOM      1  C   LIG d   1      -3.028  76.190 116.309  0.00  0.00     0.161 C 
ATOM      2  C   LIG d   1      -3.386  77.271 115.485  0.00  0.00     0.016 C 
ATOM      3  C   LIG d   1      -2.617  77.691 114.375  0.00  0.00     0.038 C 
ATOM      4  C   LIG d   1      -1.510  76.959 113.921  0.00  0.00     0.028 C 
ATOM      5  C   LIG d   1      -0.823  76.155 115.019  0.00  0.00    -0.047 C 
ATOM      6  C   LIG d   1      -1.884  75.312 115.762  0.00  0.00     0.091 C 
ENDROOT
BRANCH   1   7
ATOM      7  O   LIG d   1      -4.190  75.384 116.588  0.00  0.00    -0.368 OA
BRANCH   7   8
ATOM      8  C   LIG d   1      -5.439  75.848 116.020  0.00  0.00     0.119 C 
BRANCH   8   9
ATOM      9  C   LIG d   1      -6.524  75.702 117.105  0.00  0.00     0.028 C 
ATOM     10  C   LIG d   1      -7.923  76.080 116.591  0.00  0.00     0.006 C 
ENDBRANCH   8   9
BRANCH   8  11
ATOM     11  C   LIG d   1      -5.895  74.948 114.867  0.00  0.00     0.028 C 
ATOM     12  C   LIG d   1      -5.874  75.664 113.507  0.00  0.00     0.006 C 
ENDBRANCH   8  11
ENDBRANCH   7   8
ENDBRANCH   1   7
BRANCH   6  13
ATOM     13  N   LIG d   1      -1.309  74.558 116.907  0.00  0.00    -0.311 N 
ATOM     14  C   LIG d   1      -0.696  75.143 117.935  0.00  0.00     0.210 C 
ATOM     15  C   LIG d   1      -0.158  74.180 118.999  0.00  0.00     0.109 C 
ATOM     16  O   LIG d   1      -0.575  76.368 118.083  0.00  0.00    -0.276 OA
ATOM     17  H   LIG d   1      -1.391  73.561 116.884  0.00  0.00     0.149 HD
ENDBRANCH   6  13
BRANCH   5  18
ATOM     18  N   LIG d   1       0.225  75.335 114.382  0.00  0.00     0.381 N 
ATOM     19  H   LIG d   1       1.023  75.903 114.180  0.00  0.00    -0.090 HD
ATOM     20  H   LIG d   1      -0.130  74.970 113.515  0.00  0.00    -0.090 HD
ATOM     21  H   LIG d   1       0.485  74.586 114.985  0.00  0.00    -0.090 HD
ENDBRANCH   5  18
BRANCH   3  22
ATOM     22  C   LIG d   1      -2.931  78.878 113.732  0.00  0.00     0.382 C 
ATOM     23  O   LIG d   1      -3.231  79.895 114.403  0.00  0.00    -0.241 OA
ATOM     24  O   LIG d   1      -2.962  78.934 112.488  0.00  0.00    -0.241 OA
ENDBRANCH   3  22
TORSDOF 7
ENDMDL
MODEL 9
REMARK VINA RESULT:      -4.5      2.777      6.003
REMARK  7 active torsions:
REMARK  status: ('A' for Active; 'I' for Inactive)
REMARK    1  A    between atoms: C_2  and  C_3 
REMARK    2  A    between atoms: C_3  and  O_6 
REMARK    3  A    between atoms: C_3  and  C_4 
REMARK    4  A    between atoms: C_7  and  O_6 
REMARK    5  A    between atoms: C_9  and  C_10 
REMARK    6  A    between atoms: N_15  and  C_14 
REMARK    7  A    between atoms: N_20  and  C_19 
REMARK       I    between atoms: C_22  and  N_20 
ROOT
ATOM      1  C   LIG d   1      -3.795  79.153 116.043  0.00  0.00     0.161 C 
ATOM      2  C   LIG d   1      -3.572  77.929 115.392  0.00  0.00     0.016 C 
ATOM      3  C   LIG d   1      -4.466  76.836 115.463  0.00  0.00     0.038 C 
ATOM      4  C   LIG d   1      -5.726  76.947 116.070  0.00  0.00     0.028 C 
ATOM      5  C   LIG d   1      -5.777  78.001 117.170  0.00  0.00    -0.047 C 
ATOM      6  C   LIG d   1      -5.216  79.331 116.618  0.00  0.00     0.091 C 
ENDROOT
BRANCH   1   7
ATOM      7  O   LIG d   1      -3.473  80.244 115.156  0.00  0.00    -0.368 OA
BRANCH   7   8
ATOM      8  C   LIG d   1      -2.222  80.927 115.414  0.00  0.00     0.119 C 
BRANCH   8   9
ATOM      9  C   LIG d   1      -2.563  82.357 115.877  0.00  0.00     0.028 C 
ATOM     10  C   LIG d   1      -1.355  83.076 116.501  0.00  0.00     0.006 C 
ENDBRANCH   8   9
BRANCH   8  11
ATOM     11  C   LIG d   1      -1.406  81.100 114.130  0.00  0.00     0.028 C 
ATOM     12  C   LIG d   1      -2.270  81.505 112.925  0.00  0.00     0.006 C 
ENDBRANCH   8  11
ENDBRANCH   7   8
ENDBRANCH   1   7
BRANCH   6  13
ATOM     13  N   LIG d   1      -5.152  80.393 117.655  0.00  0.00    -0.311 N 
ATOM     14  C   LIG d   1      -6.056  81.366 117.765  0.00  0.00     0.210 C 
ATOM     15  C   LIG d   1      -5.790  82.370 118.891  0.00  0.00     0.109 C 
ATOM     16  O   LIG d   1      -7.069  81.473 117.058  0.00  0.00    -0.276 OA
ATOM     17  H   LIG d   1      -4.379  80.364 118.291  0.00  0.00     0.149 HD
ENDBRANCH   6  13
BRANCH   5  18
ATOM     18  N   LIG d   1      -7.178  78.107 117.621  0.00  0.00     0.381 N 
ATOM     19  H   LIG d   1      -7.210  78.513 118.534  0.00  0.00    -0.090 HD
ATOM     20  H   LIG d   1      -7.574  77.185 117.671  0.00  0.00    -0.090 HD
ATOM     21  H   LIG d   1      -7.700  78.666 116.982  0.00  0.00    -0.090 HD
ENDBRANCH   5  18
BRANCH   3  22
ATOM     22  C   LIG d   1      -4.085  75.603 114.956  0.00  0.00     0.382 C 
ATOM     23  O   LIG d   1      -3.868  74.644 115.736  0.00  0.00    -0.241 OA
ATOM     24  O   LIG d   1      -3.913  75.448 113.732  0.00  0.00    -0.241 OA
ENDBRANCH   3  22
TORSDOF 7
ENDMDL
