MODEL 1
REMARK VINA RESULT:      -5.4      0.000      0.000
REMARK  7 active torsions:
REMARK  status: ('A' for Active; 'I' for Inactive)
REMARK    1  A    between atoms: C_2  and  C_3 
REMARK    2  A    between atoms: C_3  and  O_6 
REMARK    3  A    between atoms: C_3  and  C_4 
REMARK    4  A    between atoms: C_7  and  O_6 
REMARK    5  A    between atoms: C_9  and  C_10 
REMARK    6  A    between atoms: N_15  and  C_14 
REMARK    7  A    between atoms: N_20  and  C_19 
REMARK       I    between atoms: C_22  and  N_20 
ROOT
ATOM      1  C   LIG d   1      -6.144  77.803 117.015  0.00  0.00     0.161 C 
ATOM      2  C   LIG d   1      -7.485  77.755 117.433  0.00  0.00     0.016 C 
ATOM      3  C   LIG d   1      -8.183  78.876 117.939  0.00  0.00     0.038 C 
ATOM      4  C   LIG d   1      -7.630  80.165 117.919  0.00  0.00     0.028 C 
ATOM      5  C   LIG d   1      -6.106  80.171 117.975  0.00  0.00    -0.047 C 
ATOM      6  C   LIG d   1      -5.559  79.225 116.881  0.00  0.00     0.091 C 
ENDROOT
BRANCH   1   7
ATOM      7  O   LIG d   1      -5.993  77.081 115.777  0.00  0.00    -0.368 OA
BRANCH   7   8
ATOM      8  C   LIG d   1      -5.968  75.636 115.881  0.00  0.00     0.119 C 
BRANCH   8   9
ATOM      9  C   LIG d   1      -4.662  75.148 115.224  0.00  0.00     0.028 C 
ATOM     10  C   LIG d   1      -4.706  75.242 113.689  0.00  0.00     0.006 C 
ENDBRANCH   8   9
BRANCH   8  11
ATOM     11  C   LIG d   1      -7.096  74.999 115.064  0.00  0.00     0.028 C 
ATOM     12  C   LIG d   1      -8.191  74.377 115.944  0.00  0.00     0.006 C 
ENDBRANCH   8  11
ENDBRANCH   7   8
ENDBRANCH   1   7
BRANCH   6  13
ATOM     13  N   LIG d   1      -4.078  79.108 116.922  0.00  0.00    -0.311 N 
ATOM     14  C   LIG d   1      -3.294  79.365 115.877  0.00  0.00     0.210 C 
ATOM     15  C   LIG d   1      -1.796  79.162 116.127  0.00  0.00     0.109 C 
ATOM     16  O   LIG d   1      -3.693  79.774 114.776  0.00  0.00    -0.276 OA
ATOM     17  H   LIG d   1      -3.668  78.812 117.786  0.00  0.00     0.149 HD
ENDBRANCH   6  13
BRANCH   5  18
ATOM     18  N   LIG d   1      -5.659  81.567 117.808  0.00  0.00     0.381 N 
ATOM     19  H   LIG d   1      -6.410  82.122 117.450  0.00  0.00    -0.090 HD
ATOM     20  H   LIG d   1      -4.905  81.590 117.144  0.00  0.00    -0.090 HD
ATOM     21  H   LIG d   1      -5.353  81.934 118.682  0.00  0.00    -0.090 HD
ENDBRANCH   5  18
BRANCH   3  22
ATOM     22  C   LIG d   1      -9.435  78.705 118.509  0.00  0.00     0.382 C 
ATOM     23  O   LIG d   1     -10.046  77.619 118.366  0.00  0.00    -0.241 OA
ATOM     24  O   LIG d   1      -9.980  79.639 119.127  0.00  0.00    -0.241 OA
ENDBRANCH   3  22
TORSDOF 7
ENDMDL
MODEL 2
REMARK VINA RESULT:      -5.2      4.548      7.878
REMARK  7 active torsions:
REMARK  status: ('A' for Active; 'I' for Inactive)
REMARK    1  A    between atoms: C_2  and  C_3 
REMARK    2  A    between atoms: C_3  and  O_6 
REMARK    3  A    between atoms: C_3  and  C_4 
REMARK    4  A    between atoms: C_7  and  O_6 
REMARK    5  A    between atoms: C_9  and  C_10 
REMARK    6  A    between atoms: N_15  and  C_14 
REMARK    7  A    between atoms: N_20  and  C_19 
REMARK       I    between atoms: C_22  and  N_20 
ROOT
ATOM      1  C   LIG d   1      -1.795  80.689 113.793  0.00  0.00     0.161 C 
ATOM      2  C   LIG d   1      -1.612  82.037 113.443  0.00  0.00     0.016 C 
ATOM      3  C   LIG d   1      -1.010  82.452 112.232  0.00  0.00     0.038 C 
ATOM      4  C   LIG d   1      -0.685  81.541 111.216  0.00  0.00     0.028 C 
ATOM      5  C   LIG d   1      -0.388  80.137 111.733  0.00  0.00    -0.047 C 
ATOM      6  C   LIG d   1      -1.548  79.684 112.649  0.00  0.00     0.091 C 
ENDROOT
BRANCH   1   7
ATOM      7  O   LIG d   1      -3.112  80.503 114.348  0.00  0.00    -0.368 OA
BRANCH   7   8
ATOM      8  C   LIG d   1      -3.191  80.432 115.793  0.00  0.00     0.119 C 
BRANCH   8   9
ATOM      9  C   LIG d   1      -4.097  79.238 116.149  0.00  0.00     0.028 C 
ATOM     10  C   LIG d   1      -3.324  78.100 116.837  0.00  0.00     0.006 C 
ENDBRANCH   8   9
BRANCH   8  11
ATOM     11  C   LIG d   1      -3.895  81.663 116.373  0.00  0.00     0.028 C 
ATOM     12  C   LIG d   1      -5.114  81.299 117.237  0.00  0.00     0.006 C 
ENDBRANCH   8  11
ENDBRANCH   7   8
ENDBRANCH   1   7
BRANCH   6  13
ATOM     13  N   LIG d   1      -1.298  78.355 113.264  0.00  0.00    -0.311 N 
ATOM     14  C   LIG d   1      -2.230  77.409 113.370  0.00  0.00     0.210 C 
ATOM     15  C   LIG d   1      -1.767  76.119 114.056  0.00  0.00     0.109 C 
ATOM     16  O   LIG d   1      -3.387  77.504 112.933  0.00  0.00    -0.276 OA
ATOM     17  H   LIG d   1      -0.377  78.181 113.617  0.00  0.00     0.149 HD
ENDBRANCH   6  13
BRANCH   5  18
ATOM     18  N   LIG d   1      -0.201  79.261 110.561  0.00  0.00     0.381 N 
ATOM     19  H   LIG d   1      -0.226  78.303 110.847  0.00  0.00    -0.090 HD
ATOM     20  H   LIG d   1       0.700  79.446 110.157  0.00  0.00    -0.090 HD
ATOM     21  H   LIG d   1      -0.916  79.434 109.888  0.00  0.00    -0.090 HD
ENDBRANCH   5  18
BRANCH   3  22
ATOM     22  C   LIG d   1      -0.691  83.788 112.046  0.00  0.00     0.382 C 
ATOM     23  O   LIG d   1      -1.236  84.668 112.755  0.00  0.00    -0.241 OA
ATOM     24  O   LIG d   1       0.102  84.129 111.148  0.00  0.00    -0.241 OA
ENDBRANCH   3  22
TORSDOF 7
ENDMDL
MODEL 3
REMARK VINA RESULT:      -5.0      2.160      3.329
REMARK  7 active torsions:
REMARK  status: ('A' for Active; 'I' for Inactive)
REMARK    1  A    between atoms: C_2  and  C_3 
REMARK    2  A    between atoms: C_3  and  O_6 
REMARK    3  A    between atoms: C_3  and  C_4 
REMARK    4  A    between atoms: C_7  and  O_6 
REMARK    5  A    between atoms: C_9  and  C_10 
REMARK    6  A    between atoms: N_15  and  C_14 
REMARK    7  A    between atoms: N_20  and  C_19 
REMARK       I    between atoms: C_22  and  N_20 
ROOT
ATOM      1  C   LIG d   1      -5.762  76.532 117.706  0.00  0.00     0.161 C 
ATOM      2  C   LIG d   1      -6.645  77.624 117.729  0.00  0.00     0.016 C 
ATOM      3  C   LIG d   1      -6.252  78.950 117.435  0.00  0.00     0.038 C 
ATOM      4  C   LIG d   1      -4.972  79.252 116.948  0.00  0.00     0.028 C 
ATOM      5  C   LIG d   1      -3.904  78.258 117.392  0.00  0.00    -0.047 C 
ATOM      6  C   LIG d   1      -4.387  76.826 117.069  0.00  0.00     0.091 C 
ENDROOT
BRANCH   1   7
ATOM      7  O   LIG d   1      -6.388  75.411 117.053  0.00  0.00    -0.368 OA
BRANCH   7   8
ATOM      8  C   LIG d   1      -6.686  75.579 115.645  0.00  0.00     0.119 C 
BRANCH   8   9
ATOM      9  C   LIG d   1      -8.162  75.190 115.434  0.00  0.00     0.028 C 
ATOM     10  C   LIG d   1      -8.687  74.260 116.540  0.00  0.00     0.006 C 
ENDBRANCH   8   9
BRANCH   8  11
ATOM     11  C   LIG d   1      -5.882  74.599 114.784  0.00  0.00     0.028 C 
ATOM     12  C   LIG d   1      -5.120  75.294 113.645  0.00  0.00     0.006 C 
ENDBRANCH   8  11
ENDBRANCH   7   8
ENDBRANCH   1   7
BRANCH   6  13
ATOM     13  N   LIG d   1      -3.439  75.786 117.547  0.00  0.00    -0.311 N 
ATOM     14  C   LIG d   1      -2.491  75.250 116.780  0.00  0.00     0.210 C 
ATOM     15  C   LIG d   1      -1.634  74.180 117.464  0.00  0.00     0.109 C 
ATOM     16  O   LIG d   1      -2.259  75.581 115.608  0.00  0.00    -0.276 OA
ATOM     17  H   LIG d   1      -3.536  75.481 118.496  0.00  0.00     0.149 HD
ENDBRANCH   6  13
BRANCH   5  18
ATOM     18  N   LIG d   1      -2.649  78.614 116.702  0.00  0.00     0.381 N 
ATOM     19  H   LIG d   1      -2.101  79.215 117.285  0.00  0.00    -0.090 HD
ATOM     20  H   LIG d   1      -2.872  79.111 115.858  0.00  0.00    -0.090 HD
ATOM     21  H   LIG d   1      -2.134  77.789 116.485  0.00  0.00    -0.090 HD
ENDBRANCH   5  18
BRANCH   3  22
ATOM     22  C   LIG d   1      -7.133  79.995 117.667  0.00  0.00     0.382 C 
ATOM     23  O   LIG d   1      -7.240  80.922 116.827  0.00  0.00    -0.241 OA
ATOM     24  O   LIG d   1      -7.788  80.047 118.725  0.00  0.00    -0.241 OA
ENDBRANCH   3  22
TORSDOF 7
ENDMDL
MODEL 4
REMARK VINA RESULT:      -4.9      4.705      5.800
REMARK  7 active torsions:
REMARK  status: ('A' for Active; 'I' for Inactive)
REMARK    1  A    between atoms: C_2  and  C_3 
REMARK    2  A    between atoms: C_3  and  O_6 
REMARK    3  A    between atoms: C_3  and  C_4 
REMARK    4  A    between atoms: C_7  and  O_6 
REMARK    5  A    between atoms: C_9  and  C_10 
REMARK    6  A    between atoms: N_15  and  C_14 
REMARK    7  A    between atoms: N_20  and  C_19 
REMARK       I    between atoms: C_22  and  N_20 
ROOT
ATOM      1  C   LIG d   1      -2.563  78.147 114.550  0.00  0.00     0.161 C 
ATOM      2  C   LIG d   1      -2.646  78.996 113.434  0.00  0.00     0.016 C 
ATOM      3  C   LIG d   1      -2.666  80.407 113.530  0.00  0.00     0.038 C 
ATOM      4  C   LIG d   1      -2.450  81.070 114.747  0.00  0.00     0.028 C 
ATOM      5  C   LIG d   1      -2.868  80.252 115.965  0.00  0.00    -0.047 C 
ATOM      6  C   LIG d   1      -2.216  78.853 115.877  0.00  0.00     0.091 C 
ENDROOT
BRANCH   1   7
ATOM      7  O   LIG d   1      -1.625  77.085 114.287  0.00  0.00    -0.368 OA
BRANCH   7   8
ATOM      8  C   LIG d   1      -2.175  75.877 113.706  0.00  0.00     0.119 C 
BRANCH   8   9
ATOM      9  C   LIG d   1      -3.472  75.545 114.470  0.00  0.00     0.028 C 
ATOM     10  C   LIG d   1      -4.653  75.262 113.526  0.00  0.00     0.006 C 
ENDBRANCH   8   9
BRANCH   8  11
ATOM     11  C   LIG d   1      -1.251  74.677 113.936  0.00  0.00     0.028 C 
ATOM     12  C   LIG d   1      -0.649  74.652 115.350  0.00  0.00     0.006 C 
ENDBRANCH   8  11
ENDBRANCH   7   8
ENDBRANCH   1   7
BRANCH   6  13
ATOM     13  N   LIG d   1      -2.640  77.960 116.986  0.00  0.00    -0.311 N 
ATOM     14  C   LIG d   1      -1.783  77.295 117.759  0.00  0.00     0.210 C 
ATOM     15  C   LIG d   1      -2.430  76.413 118.832  0.00  0.00     0.109 C 
ATOM     16  O   LIG d   1      -0.548  77.376 117.680  0.00  0.00    -0.276 OA
ATOM     17  H   LIG d   1      -3.624  77.860 117.141  0.00  0.00     0.149 HD
ENDBRANCH   6  13
BRANCH   5  18
ATOM     18  N   LIG d   1      -2.462  81.004 117.167  0.00  0.00     0.381 N 
ATOM     19  H   LIG d   1      -3.113  80.835 117.908  0.00  0.00    -0.090 HD
ATOM     20  H   LIG d   1      -2.473  81.986 116.956  0.00  0.00    -0.090 HD
ATOM     21  H   LIG d   1      -1.547  80.728 117.450  0.00  0.00    -0.090 HD
ENDBRANCH   5  18
BRANCH   3  22
ATOM     22  C   LIG d   1      -2.942  81.169 112.405  0.00  0.00     0.382 C 
ATOM     23  O   LIG d   1      -4.132  81.354 112.050  0.00  0.00    -0.241 OA
ATOM     24  O   LIG d   1      -2.017  81.636 111.715  0.00  0.00    -0.241 OA
ENDBRANCH   3  22
TORSDOF 7
ENDMDL
MODEL 5
REMARK VINA RESULT:      -4.8      3.321      6.472
REMARK  7 active torsions:
REMARK  status: ('A' for Active; 'I' for Inactive)
REMARK    1  A    between atoms: C_2  and  C_3 
REMARK    2  A    between atoms: C_3  and  O_6 
REMARK    3  A    between atoms: C_3  and  C_4 
REMARK    4  A    between atoms: C_7  and  O_6 
REMARK    5  A    between atoms: C_9  and  C_10 
REMARK    6  A    between atoms: N_15  and  C_14 
REMARK    7  A    between atoms: N_20  and  C_19 
REMARK       I    between atoms: C_22  and  N_20 
ROOT
ATOM      1  C   LIG d   1      -3.214  79.079 115.558  0.00  0.00     0.161 C 
ATOM      2  C   LIG d   1      -3.247  80.013 114.510  0.00  0.00     0.016 C 
ATOM      3  C   LIG d   1      -2.693  79.770 113.232  0.00  0.00     0.038 C 
ATOM      4  C   LIG d   1      -2.198  78.510 112.867  0.00  0.00     0.028 C 
ATOM      5  C   LIG d   1      -1.686  77.694 114.049  0.00  0.00    -0.047 C 
ATOM      6  C   LIG d   1      -2.777  77.658 115.144  0.00  0.00     0.091 C 
ENDROOT
BRANCH   1   7
ATOM      7  O   LIG d   1      -4.495  79.037 116.217  0.00  0.00    -0.368 OA
BRANCH   7   8
ATOM      8  C   LIG d   1      -4.848  80.204 117.000  0.00  0.00     0.119 C 
BRANCH   8   9
ATOM      9  C   LIG d   1      -4.013  80.162 118.294  0.00  0.00     0.028 C 
ATOM     10  C   LIG d   1      -3.201  81.450 118.511  0.00  0.00     0.006 C 
ENDBRANCH   8   9
BRANCH   8  11
ATOM     11  C   LIG d   1      -6.308  80.147 117.457  0.00  0.00     0.028 C 
ATOM     12  C   LIG d   1      -6.866  78.715 117.494  0.00  0.00     0.006 C 
ENDBRANCH   8  11
ENDBRANCH   7   8
ENDBRANCH   1   7
BRANCH   6  13
ATOM     13  N   LIG d   1      -2.326  76.950 116.370  0.00  0.00    -0.311 N 
ATOM     14  C   LIG d   1      -2.521  75.649 116.580  0.00  0.00     0.210 C 
ATOM     15  C   LIG d   1      -1.995  75.124 117.919  0.00  0.00     0.109 C 
ATOM     16  O   LIG d   1      -3.051  74.874 115.770  0.00  0.00    -0.276 OA
ATOM     17  H   LIG d   1      -1.859  77.497 117.067  0.00  0.00     0.149 HD
ENDBRANCH   6  13
BRANCH   5  18
ATOM     18  N   LIG d   1      -1.329  76.354 113.545  0.00  0.00     0.381 N 
ATOM     19  H   LIG d   1      -1.427  76.330 112.549  0.00  0.00    -0.090 HD
ATOM     20  H   LIG d   1      -1.960  75.679 113.940  0.00  0.00    -0.090 HD
ATOM     21  H   LIG d   1      -0.392  76.132 113.799  0.00  0.00    -0.090 HD
ENDBRANCH   5  18
BRANCH   3  22
ATOM     22  C   LIG d   1      -2.594  80.807 112.317  0.00  0.00     0.382 C 
ATOM     23  O   LIG d   1      -1.514  81.009 111.712  0.00  0.00    -0.241 OA
ATOM     24  O   LIG d   1      -3.559  81.571 112.122  0.00  0.00    -0.241 OA
ENDBRANCH   3  22
TORSDOF 7
ENDMDL
MODEL 6
REMARK VINA RESULT:      -4.8      2.531      6.089
REMARK  7 active torsions:
REMARK  status: ('A' for Active; 'I' for Inactive)
REMARK    1  A    between atoms: C_2  and  C_3 
REMARK    2  A    between atoms: C_3  and  O_6 
REMARK    3  A    between atoms: C_3  and  C_4 
REMARK    4  A    between atoms: C_7  and  O_6 
REMARK    5  A    between atoms: C_9  and  C_10 
REMARK    6  A    between atoms: N_15  and  C_14 
REMARK    7  A    between atoms: N_20  and  C_19 
REMARK       I    between atoms: C_22  and  N_20 
ROOT
ATOM      1  C   LIG d   1      -3.668  78.790 115.860  0.00  0.00     0.161 C 
ATOM      2  C   LIG d   1      -3.231  77.696 115.095  0.00  0.00     0.016 C 
ATOM      3  C   LIG d   1      -3.809  76.408 115.178  0.00  0.00     0.038 C 
ATOM      4  C   LIG d   1      -4.971  76.164 115.926  0.00  0.00     0.028 C 
ATOM      5  C   LIG d   1      -5.144  77.116 117.104  0.00  0.00    -0.047 C 
ATOM      6  C   LIG d   1      -5.004  78.571 116.599  0.00  0.00     0.091 C 
ENDROOT
BRANCH   1   7
ATOM      7  O   LIG d   1      -3.741  79.967 115.031  0.00  0.00    -0.368 OA
BRANCH   7   8
ATOM      8  C   LIG d   1      -2.565  80.814 115.021  0.00  0.00     0.119 C 
BRANCH   8   9
ATOM      9  C   LIG d   1      -2.805  81.951 116.032  0.00  0.00     0.028 C 
ATOM     10  C   LIG d   1      -3.410  83.203 115.375  0.00  0.00     0.006 C 
ENDBRANCH   8   9
BRANCH   8  11
ATOM     11  C   LIG d   1      -2.389  81.506 113.666  0.00  0.00     0.028 C 
ATOM     12  C   LIG d   1      -2.978  80.695 112.501  0.00  0.00     0.006 C 
ENDBRANCH   8  11
ENDBRANCH   7   8
ENDBRANCH   1   7
BRANCH   6  13
ATOM     13  N   LIG d   1      -5.076  79.564 117.702  0.00  0.00    -0.311 N 
ATOM     14  C   LIG d   1      -5.930  80.586 117.714  0.00  0.00     0.210 C 
ATOM     15  C   LIG d   1      -5.824  81.503 118.937  0.00  0.00     0.109 C 
ATOM     16  O   LIG d   1      -6.785  80.803 116.842  0.00  0.00    -0.276 OA
ATOM     17  H   LIG d   1      -4.439  79.445 118.465  0.00  0.00     0.149 HD
ENDBRANCH   6  13
BRANCH   5  18
ATOM     18  N   LIG d   1      -6.459  76.839 117.712  0.00  0.00     0.381 N 
ATOM     19  H   LIG d   1      -6.628  75.853 117.718  0.00  0.00    -0.090 HD
ATOM     20  H   LIG d   1      -7.172  77.278 117.157  0.00  0.00    -0.090 HD
ATOM     21  H   LIG d   1      -6.486  77.194 118.643  0.00  0.00    -0.090 HD
ENDBRANCH   5  18
BRANCH   3  22
ATOM     22  C   LIG d   1      -3.201  75.339 114.538  0.00  0.00     0.382 C 
ATOM     23  O   LIG d   1      -3.239  75.253 113.287  0.00  0.00    -0.241 OA
ATOM     24  O   LIG d   1      -2.653  74.436 115.199  0.00  0.00    -0.241 OA
ENDBRANCH   3  22
TORSDOF 7
ENDMDL
MODEL 7
REMARK VINA RESULT:      -4.7      3.802      6.201
REMARK  7 active torsions:
REMARK  status: ('A' for Active; 'I' for Inactive)
REMARK    1  A    between atoms: C_2  and  C_3 
REMARK    2  A    between atoms: C_3  and  O_6 
REMARK    3  A    between atoms: C_3  and  C_4 
REMARK    4  A    between atoms: C_7  and  O_6 
REMARK    5  A    between atoms: C_9  and  C_10 
REMARK    6  A    between atoms: N_15  and  C_14 
REMARK    7  A    between atoms: N_20  and  C_19 
REMARK       I    between atoms: C_22  and  N_20 
ROOT
ATOM      1  C   LIG d   1      -2.655  79.015 114.780  0.00  0.00     0.161 C 
ATOM      2  C   LIG d   1      -2.884  80.401 114.814  0.00  0.00     0.016 C 
ATOM      3  C   LIG d   1      -2.409  81.293 113.825  0.00  0.00     0.038 C 
ATOM      4  C   LIG d   1      -1.797  80.837 112.648  0.00  0.00     0.028 C 
ATOM      5  C   LIG d   1      -1.098  79.492 112.810  0.00  0.00    -0.047 C 
ATOM      6  C   LIG d   1      -2.085  78.487 113.446  0.00  0.00     0.091 C 
ENDROOT
BRANCH   1   7
ATOM      7  O   LIG d   1      -3.865  78.311 115.122  0.00  0.00    -0.368 OA
BRANCH   7   8
ATOM      8  C   LIG d   1      -4.078  78.059 116.533  0.00  0.00     0.119 C 
BRANCH   8   9
ATOM      9  C   LIG d   1      -3.838  76.557 116.776  0.00  0.00     0.028 C 
ATOM     10  C   LIG d   1      -2.447  76.273 117.366  0.00  0.00     0.006 C 
ENDBRANCH   8   9
BRANCH   8  11
ATOM     11  C   LIG d   1      -5.537  78.306 116.928  0.00  0.00     0.028 C 
ATOM     12  C   LIG d   1      -5.848  77.863 118.367  0.00  0.00     0.006 C 
ENDBRANCH   8  11
ENDBRANCH   7   8
ENDBRANCH   1   7
BRANCH   6  13
ATOM     13  N   LIG d   1      -1.456  77.168 113.717  0.00  0.00    -0.311 N 
ATOM     14  C   LIG d   1      -2.087  76.007 113.552  0.00  0.00     0.210 C 
ATOM     15  C   LIG d   1      -1.262  74.766 113.907  0.00  0.00     0.109 C 
ATOM     16  O   LIG d   1      -3.240  75.885 113.113  0.00  0.00    -0.276 OA
ATOM     17  H   LIG d   1      -0.510  77.173 114.047  0.00  0.00     0.149 HD
ENDBRANCH   6  13
BRANCH   5  18
ATOM     18  N   LIG d   1      -0.625  79.072 111.477  0.00  0.00     0.381 N 
ATOM     19  H   LIG d   1       0.368  79.181 111.421  0.00  0.00    -0.090 HD
ATOM     20  H   LIG d   1      -1.047  79.662 110.782  0.00  0.00    -0.090 HD
ATOM     21  H   LIG d   1      -0.872  78.121 111.312  0.00  0.00    -0.090 HD
ENDBRANCH   5  18
BRANCH   3  22
ATOM     22  C   LIG d   1      -2.509  82.661 114.029  0.00  0.00     0.382 C 
ATOM     23  O   LIG d   1      -3.372  83.116 114.818  0.00  0.00    -0.241 OA
ATOM     24  O   LIG d   1      -1.776  83.448 113.400  0.00  0.00    -0.241 OA
ENDBRANCH   3  22
TORSDOF 7
ENDMDL
MODEL 8
REMARK VINA RESULT:      -4.7      2.271      5.261
REMARK  7 active torsions:
REMARK  status: ('A' for Active; 'I' for Inactive)
REMARK    1  A    between atoms: C_2  and  C_3 
REMARK    2  A    between atoms: C_3  and  O_6 
REMARK    3  A    between atoms: C_3  and  C_4 
REMARK    4  A    between atoms: C_7  and  O_6 
REMARK    5  A    between atoms: C_9  and  C_10 
REMARK    6  A    between atoms: N_15  and  C_14 
REMARK    7  A    between atoms: N_20  and  C_19 
REMARK       I    between atoms: C_22  and  N_20 
ROOT
ATOM      1  C   LIG d   1      -5.692  76.589 116.064  0.00  0.00     0.161 C 
ATOM      2  C   LIG d   1      -4.742  75.753 115.454  0.00  0.00     0.016 C 
ATOM      3  C   LIG d   1      -3.392  76.122 115.258  0.00  0.00     0.038 C 
ATOM      4  C   LIG d   1      -2.859  77.302 115.799  0.00  0.00     0.028 C 
ATOM      5  C   LIG d   1      -3.896  78.405 115.983  0.00  0.00    -0.047 C 
ATOM      6  C   LIG d   1      -5.104  77.834 116.760  0.00  0.00     0.091 C 
ENDROOT
BRANCH   1   7
ATOM      7  O   LIG d   1      -6.490  75.827 116.991  0.00  0.00    -0.368 OA
BRANCH   7   8
ATOM      8  C   LIG d   1      -7.912  75.777 116.716  0.00  0.00     0.119 C 
BRANCH   8   9
ATOM      9  C   LIG d   1      -8.646  76.220 117.996  0.00  0.00     0.028 C 
ATOM     10  C   LIG d   1      -7.819  75.961 119.267  0.00  0.00     0.006 C 
ENDBRANCH   8   9
BRANCH   8  11
ATOM     11  C   LIG d   1      -8.379  74.341 116.457  0.00  0.00     0.028 C 
ATOM     12  C   LIG d   1      -9.903  74.180 116.574  0.00  0.00     0.006 C 
ENDBRANCH   8  11
ENDBRANCH   7   8
ENDBRANCH   1   7
BRANCH   6  13
ATOM     13  N   LIG d   1      -6.201  78.825 116.910  0.00  0.00    -0.311 N 
ATOM     14  C   LIG d   1      -6.572  79.337 118.083  0.00  0.00     0.210 C 
ATOM     15  C   LIG d   1      -7.738  80.328 118.017  0.00  0.00     0.109 C 
ATOM     16  O   LIG d   1      -6.024  79.089 119.168  0.00  0.00    -0.276 OA
ATOM     17  H   LIG d   1      -6.679  79.106 116.077  0.00  0.00     0.149 HD
ENDBRANCH   6  13
BRANCH   5  18
ATOM     18  N   LIG d   1      -3.236  79.525 116.681  0.00  0.00     0.381 N 
ATOM     19  H   LIG d   1      -3.680  79.682 117.564  0.00  0.00    -0.090 HD
ATOM     20  H   LIG d   1      -3.334  80.357 116.126  0.00  0.00    -0.090 HD
ATOM     21  H   LIG d   1      -2.271  79.319 116.818  0.00  0.00    -0.090 HD
ENDBRANCH   5  18
BRANCH   3  22
ATOM     22  C   LIG d   1      -2.567  75.325 114.479  0.00  0.00     0.382 C 
ATOM     23  O   LIG d   1      -2.068  74.279 114.961  0.00  0.00    -0.241 OA
ATOM     24  O   LIG d   1      -2.281  75.661 113.314  0.00  0.00    -0.241 OA
ENDBRANCH   3  22
TORSDOF 7
ENDMDL
MODEL 9
REMARK VINA RESULT:      -4.7      3.366      6.057
REMARK  7 active torsions:
REMARK  status: ('A' for Active; 'I' for Inactive)
REMARK    1  A    between atoms: C_2  and  C_3 
REMARK    2  A    between atoms: C_3  and  O_6 
REMARK    3  A    between atoms: C_3  and  C_4 
REMARK    4  A    between atoms: C_7  and  O_6 
REMARK    5  A    between atoms: C_9  and  C_10 
REMARK    6  A    between atoms: N_15  and  C_14 
REMARK    7  A    between atoms: N_20  and  C_19 
REMARK       I    between atoms: C_22  and  N_20 
ROOT
ATOM      1  C   LIG d   1      -2.765  78.774 116.165  0.00  0.00     0.161 C 
ATOM      2  C   LIG d   1      -3.033  79.791 115.234  0.00  0.00     0.016 C 
ATOM      3  C   LIG d   1      -2.785  79.663 113.848  0.00  0.00     0.038 C 
ATOM      4  C   LIG d   1      -2.391  78.444 113.275  0.00  0.00     0.028 C 
ATOM      5  C   LIG d   1      -1.626  77.542 114.238  0.00  0.00    -0.047 C 
ATOM      6  C   LIG d   1      -2.440  77.399 115.545  0.00  0.00     0.091 C 
ENDROOT
BRANCH   1   7
ATOM      7  O   LIG d   1      -3.863  78.658 117.091  0.00  0.00    -0.368 OA
BRANCH   7   8
ATOM      8  C   LIG d   1      -5.188  78.611 116.507  0.00  0.00     0.119 C 
BRANCH   8   9
ATOM      9  C   LIG d   1      -6.119  79.451 117.402  0.00  0.00     0.028 C 
ATOM     10  C   LIG d   1      -5.750  80.944 117.394  0.00  0.00     0.006 C 
ENDBRANCH   8   9
BRANCH   8  11
ATOM     11  C   LIG d   1      -5.764  77.192 116.543  0.00  0.00     0.028 C 
ATOM     12  C   LIG d   1      -5.346  76.411 117.800  0.00  0.00     0.006 C 
ENDBRANCH   8  11
ENDBRANCH   7   8
ENDBRANCH   1   7
BRANCH   6  13
ATOM     13  N   LIG d   1      -1.724  76.599 116.573  0.00  0.00    -0.311 N 
ATOM     14  C   LIG d   1      -1.911  75.292 116.746  0.00  0.00     0.210 C 
ATOM     15  C   LIG d   1      -1.087  74.665 117.876  0.00  0.00     0.109 C 
ATOM     16  O   LIG d   1      -2.656  74.586 116.051  0.00  0.00    -0.276 OA
ATOM     17  H   LIG d   1      -1.076  77.087 117.161  0.00  0.00     0.149 HD
ENDBRANCH   6  13
BRANCH   5  18
ATOM     18  N   LIG d   1      -1.398  76.254 113.555  0.00  0.00     0.381 N 
ATOM     19  H   LIG d   1      -2.042  76.155 112.795  0.00  0.00    -0.090 HD
ATOM     20  H   LIG d   1      -1.562  75.507 114.207  0.00  0.00    -0.090 HD
ATOM     21  H   LIG d   1      -0.463  76.209 113.215  0.00  0.00    -0.090 HD
ENDBRANCH   5  18
BRANCH   3  22
ATOM     22  C   LIG d   1      -2.893  80.773 113.025  0.00  0.00     0.382 C 
ATOM     23  O   LIG d   1      -3.492  81.799 113.431  0.00  0.00    -0.241 OA
ATOM     24  O   LIG d   1      -2.439  80.747 111.866  0.00  0.00    -0.241 OA
ENDBRANCH   3  22
TORSDOF 7
ENDMDL
