MODEL 1
REMARK VINA RESULT:      -5.1      0.000      0.000
REMARK  7 active torsions:
REMARK  status: ('A' for Active; 'I' for Inactive)
REMARK    1  A    between atoms: C_2  and  C_3 
REMARK    2  A    between atoms: C_3  and  O_6 
REMARK    3  A    between atoms: C_3  and  C_4 
REMARK    4  A    between atoms: C_7  and  O_6 
REMARK    5  A    between atoms: C_9  and  C_10 
REMARK    6  A    between atoms: N_15  and  C_14 
REMARK    7  A    between atoms: N_20  and  C_19 
REMARK       I    between atoms: C_22  and  N_20 
ROOT
ATOM      1  C   LIG d   1      -2.826  75.773 116.170  0.00  0.00     0.161 C 
ATOM      2  C   LIG d   1      -2.351  75.345 117.421  0.00  0.00     0.016 C 
ATOM      3  C   LIG d   1      -1.166  75.838 118.014  0.00  0.00     0.038 C 
ATOM      4  C   LIG d   1      -0.452  76.911 117.461  0.00  0.00     0.028 C 
ATOM      5  C   LIG d   1      -0.613  77.031 115.949  0.00  0.00    -0.047 C 
ATOM      6  C   LIG d   1      -2.120  77.022 115.603  0.00  0.00     0.091 C 
ENDROOT
BRANCH   1   7
ATOM      7  O   LIG d   1      -4.250  75.989 116.236  0.00  0.00    -0.368 OA
BRANCH   7   8
ATOM      8  C   LIG d   1      -5.080  74.807 116.124  0.00  0.00     0.119 C 
BRANCH   8   9
ATOM      9  C   LIG d   1      -5.187  74.457 114.627  0.00  0.00     0.028 C 
ATOM     10  C   LIG d   1      -5.749  75.619 113.791  0.00  0.00     0.006 C 
ENDBRANCH   8   9
BRANCH   8  11
ATOM     11  C   LIG d   1      -6.515  75.088 116.578  0.00  0.00     0.028 C 
ATOM     12  C   LIG d   1      -6.907  74.300 117.838  0.00  0.00     0.006 C 
ENDBRANCH   8  11
ENDBRANCH   7   8
ENDBRANCH   1   7
BRANCH   6  13
ATOM     13  N   LIG d   1      -2.365  77.051 114.138  0.00  0.00    -0.311 N 
ATOM     14  C   LIG d   1      -2.616  78.169 113.458  0.00  0.00     0.210 C 
ATOM     15  C   LIG d   1      -2.860  77.973 111.959  0.00  0.00     0.109 C 
ATOM     16  O   LIG d   1      -2.627  79.307 113.949  0.00  0.00    -0.276 OA
ATOM     17  H   LIG d   1      -2.343  76.174 113.654  0.00  0.00     0.149 HD
ENDBRANCH   6  13
BRANCH   5  18
ATOM     18  N   LIG d   1       0.070  78.267 115.524  0.00  0.00     0.381 N 
ATOM     19  H   LIG d   1       0.865  78.038 114.961  0.00  0.00    -0.090 HD
ATOM     20  H   LIG d   1       0.393  78.757 116.340  0.00  0.00    -0.090 HD
ATOM     21  H   LIG d   1      -0.557  78.844 115.008  0.00  0.00    -0.090 HD
ENDBRANCH   5  18
BRANCH   3  22
ATOM     22  C   LIG d   1      -0.664  75.230 119.154  0.00  0.00     0.382 C 
ATOM     23  O   LIG d   1      -1.341  74.358 119.750  0.00  0.00    -0.241 OA
ATOM     24  O   LIG d   1       0.440  75.574 119.619  0.00  0.00    -0.241 OA
ENDBRANCH   3  22
TORSDOF 7
ENDMDL
MODEL 2
REMARK VINA RESULT:      -4.8      1.690      4.811
REMARK  7 active torsions:
REMARK  status: ('A' for Active; 'I' for Inactive)
REMARK    1  A    between atoms: C_2  and  C_3 
REMARK    2  A    between atoms: C_3  and  O_6 
REMARK    3  A    between atoms: C_3  and  C_4 
REMARK    4  A    between atoms: C_7  and  O_6 
REMARK    5  A    between atoms: C_9  and  C_10 
REMARK    6  A    between atoms: N_15  and  C_14 
REMARK    7  A    between atoms: N_20  and  C_19 
REMARK       I    between atoms: C_22  and  N_20 
ROOT
ATOM      1  C   LIG d   1      -3.046  77.914 116.042  0.00  0.00     0.161 C 
ATOM      2  C   LIG d   1      -3.242  78.669 114.874  0.00  0.00     0.016 C 
ATOM      3  C   LIG d   1      -2.412  78.569 113.734  0.00  0.00     0.038 C 
ATOM      4  C   LIG d   1      -1.413  77.590 113.629  0.00  0.00     0.028 C 
ATOM      5  C   LIG d   1      -0.854  77.147 114.976  0.00  0.00    -0.047 C 
ATOM      6  C   LIG d   1      -2.029  76.762 115.904  0.00  0.00     0.091 C 
ENDROOT
BRANCH   1   7
ATOM      7  O   LIG d   1      -4.311  77.412 116.517  0.00  0.00    -0.368 OA
BRANCH   7   8
ATOM      8  C   LIG d   1      -4.574  76.009 116.267  0.00  0.00     0.119 C 
BRANCH   8   9
ATOM      9  C   LIG d   1      -5.839  75.924 115.392  0.00  0.00     0.028 C 
ATOM     10  C   LIG d   1      -5.513  75.659 113.912  0.00  0.00     0.006 C 
ENDBRANCH   8   9
BRANCH   8  11
ATOM     11  C   LIG d   1      -4.926  75.268 117.561  0.00  0.00     0.028 C 
ATOM     12  C   LIG d   1      -6.040  74.227 117.367  0.00  0.00     0.006 C 
ENDBRANCH   8  11
ENDBRANCH   7   8
ENDBRANCH   1   7
BRANCH   6  13
ATOM     13  N   LIG d   1      -1.575  76.396 117.272  0.00  0.00    -0.311 N 
ATOM     14  C   LIG d   1      -1.247  75.156 117.628  0.00  0.00     0.210 C 
ATOM     15  C   LIG d   1      -0.825  74.994 119.091  0.00  0.00     0.109 C 
ATOM     16  O   LIG d   1      -1.234  74.180 116.862  0.00  0.00    -0.276 OA
ATOM     17  H   LIG d   1      -1.526  77.133 117.948  0.00  0.00     0.149 HD
ENDBRANCH   6  13
BRANCH   5  18
ATOM     18  N   LIG d   1       0.076  76.030 114.728  0.00  0.00     0.381 N 
ATOM     19  H   LIG d   1      -0.437  75.215 114.456  0.00  0.00    -0.090 HD
ATOM     20  H   LIG d   1       0.570  75.822 115.578  0.00  0.00    -0.090 HD
ATOM     21  H   LIG d   1       0.723  76.278 114.012  0.00  0.00    -0.090 HD
ENDBRANCH   5  18
BRANCH   3  22
ATOM     22  C   LIG d   1      -2.552  79.481 112.700  0.00  0.00     0.382 C 
ATOM     23  O   LIG d   1      -1.885  79.342 111.646  0.00  0.00    -0.241 OA
ATOM     24  O   LIG d   1      -3.305  80.467 112.824  0.00  0.00    -0.241 OA
ENDBRANCH   3  22
TORSDOF 7
ENDMDL
MODEL 3
REMARK VINA RESULT:      -4.8      2.446      5.792
REMARK  7 active torsions:
REMARK  status: ('A' for Active; 'I' for Inactive)
REMARK    1  A    between atoms: C_2  and  C_3 
REMARK    2  A    between atoms: C_3  and  O_6 
REMARK    3  A    between atoms: C_3  and  C_4 
REMARK    4  A    between atoms: C_7  and  O_6 
REMARK    5  A    between atoms: C_9  and  C_10 
REMARK    6  A    between atoms: N_15  and  C_14 
REMARK    7  A    between atoms: N_20  and  C_19 
REMARK       I    between atoms: C_22  and  N_20 
ROOT
ATOM      1  C   LIG d   1      -2.173  77.411 115.060  0.00  0.00     0.161 C 
ATOM      2  C   LIG d   1      -3.223  76.855 114.310  0.00  0.00     0.016 C 
ATOM      3  C   LIG d   1      -4.363  76.256 114.893  0.00  0.00     0.038 C 
ATOM      4  C   LIG d   1      -4.602  76.306 116.275  0.00  0.00     0.028 C 
ATOM      5  C   LIG d   1      -3.329  76.410 117.107  0.00  0.00    -0.047 C 
ATOM      6  C   LIG d   1      -2.469  77.575 116.565  0.00  0.00     0.091 C 
ENDROOT
BRANCH   1   7
ATOM      7  O   LIG d   1      -1.778  78.673 114.486  0.00  0.00    -0.368 OA
BRANCH   7   8
ATOM      8  C   LIG d   1      -2.396  79.020 113.223  0.00  0.00     0.119 C 
BRANCH   8   9
ATOM      9  C   LIG d   1      -1.333  78.837 112.122  0.00  0.00     0.028 C 
ATOM     10  C   LIG d   1      -1.815  77.917 110.988  0.00  0.00     0.006 C 
ENDBRANCH   8   9
BRANCH   8  11
ATOM     11  C   LIG d   1      -2.776  80.503 113.177  0.00  0.00     0.028 C 
ATOM     12  C   LIG d   1      -1.589  81.412 112.817  0.00  0.00     0.006 C 
ENDBRANCH   8  11
ENDBRANCH   7   8
ENDBRANCH   1   7
BRANCH   6  13
ATOM     13  N   LIG d   1      -1.165  77.692 117.270  0.00  0.00    -0.311 N 
ATOM     14  C   LIG d   1      -0.990  78.424 118.368  0.00  0.00     0.210 C 
ATOM     15  C   LIG d   1       0.438  78.424 118.923  0.00  0.00     0.109 C 
ATOM     16  O   LIG d   1      -1.887  79.047 118.955  0.00  0.00    -0.276 OA
ATOM     17  H   LIG d   1      -0.390  77.194 116.880  0.00  0.00     0.149 HD
ENDBRANCH   6  13
BRANCH   5  18
ATOM     18  N   LIG d   1      -3.730  76.594 118.514  0.00  0.00     0.381 N 
ATOM     19  H   LIG d   1      -4.367  75.871 118.782  0.00  0.00    -0.090 HD
ATOM     20  H   LIG d   1      -4.199  77.478 118.606  0.00  0.00    -0.090 HD
ATOM     21  H   LIG d   1      -2.927  76.573 119.103  0.00  0.00    -0.090 HD
ENDBRANCH   5  18
BRANCH   3  22
ATOM     22  C   LIG d   1      -5.259  75.561 114.095  0.00  0.00     0.382 C 
ATOM     23  O   LIG d   1      -5.100  74.332 113.897  0.00  0.00    -0.241 OA
ATOM     24  O   LIG d   1      -6.198  76.156 113.533  0.00  0.00    -0.241 OA
ENDBRANCH   3  22
TORSDOF 7
ENDMDL
MODEL 4
REMARK VINA RESULT:      -4.8      3.893      5.717
REMARK  7 active torsions:
REMARK  status: ('A' for Active; 'I' for Inactive)
REMARK    1  A    between atoms: C_2  and  C_3 
REMARK    2  A    between atoms: C_3  and  O_6 
REMARK    3  A    between atoms: C_3  and  C_4 
REMARK    4  A    between atoms: C_7  and  O_6 
REMARK    5  A    between atoms: C_9  and  C_10 
REMARK    6  A    between atoms: N_15  and  C_14 
REMARK    7  A    between atoms: N_20  and  C_19 
REMARK       I    between atoms: C_22  and  N_20 
ROOT
ATOM      1  C   LIG d   1      -6.822  77.238 117.360  0.00  0.00     0.161 C 
ATOM      2  C   LIG d   1      -6.569  76.449 116.226  0.00  0.00     0.016 C 
ATOM      3  C   LIG d   1      -5.271  76.215 115.715  0.00  0.00     0.038 C 
ATOM      4  C   LIG d   1      -4.119  76.634 116.397  0.00  0.00     0.028 C 
ATOM      5  C   LIG d   1      -4.346  77.862 117.271  0.00  0.00    -0.047 C 
ATOM      6  C   LIG d   1      -5.570  77.612 118.181  0.00  0.00     0.091 C 
ENDROOT
BRANCH   1   7
ATOM      7  O   LIG d   1      -7.797  76.588 118.200  0.00  0.00    -0.368 OA
BRANCH   7   8
ATOM      8  C   LIG d   1      -9.184  76.909 117.932  0.00  0.00     0.119 C 
BRANCH   8   9
ATOM      9  C   LIG d   1      -9.692  77.777 119.099  0.00  0.00     0.028 C 
ATOM     10  C   LIG d   1     -10.059  79.202 118.654  0.00  0.00     0.006 C 
ENDBRANCH   8   9
BRANCH   8  11
ATOM     11  C   LIG d   1     -10.060  75.652 117.950  0.00  0.00     0.028 C 
ATOM     12  C   LIG d   1      -9.907  74.801 116.680  0.00  0.00     0.006 C 
ENDBRANCH   8  11
ENDBRANCH   7   8
ENDBRANCH   1   7
BRANCH   6  13
ATOM     13  N   LIG d   1      -5.913  78.797 119.010  0.00  0.00    -0.311 N 
ATOM     14  C   LIG d   1      -6.454  79.908 118.512  0.00  0.00     0.210 C 
ATOM     15  C   LIG d   1      -6.710  81.017 119.537  0.00  0.00     0.109 C 
ATOM     16  O   LIG d   1      -6.776  80.067 117.325  0.00  0.00    -0.276 OA
ATOM     17  H   LIG d   1      -5.714  78.742 119.989  0.00  0.00     0.149 HD
ENDBRANCH   6  13
BRANCH   5  18
ATOM     18  N   LIG d   1      -3.104  78.106 118.028  0.00  0.00     0.381 N 
ATOM     19  H   LIG d   1      -3.021  77.438 118.768  0.00  0.00    -0.090 HD
ATOM     20  H   LIG d   1      -3.146  79.024 118.436  0.00  0.00    -0.090 HD
ATOM     21  H   LIG d   1      -2.316  78.041 117.421  0.00  0.00    -0.090 HD
ENDBRANCH   5  18
BRANCH   3  22
ATOM     22  C   LIG d   1      -5.119  75.589 114.487  0.00  0.00     0.382 C 
ATOM     23  O   LIG d   1      -4.950  76.275 113.450  0.00  0.00    -0.241 OA
ATOM     24  O   LIG d   1      -5.192  74.349 114.397  0.00  0.00    -0.241 OA
ENDBRANCH   3  22
TORSDOF 7
ENDMDL
MODEL 5
REMARK VINA RESULT:      -4.8      1.692      4.762
REMARK  7 active torsions:
REMARK  status: ('A' for Active; 'I' for Inactive)
REMARK    1  A    between atoms: C_2  and  C_3 
REMARK    2  A    between atoms: C_3  and  O_6 
REMARK    3  A    between atoms: C_3  and  C_4 
REMARK    4  A    between atoms: C_7  and  O_6 
REMARK    5  A    between atoms: C_9  and  C_10 
REMARK    6  A    between atoms: N_15  and  C_14 
REMARK    7  A    between atoms: N_20  and  C_19 
REMARK       I    between atoms: C_22  and  N_20 
ROOT
ATOM      1  C   LIG d   1      -3.338  76.347 115.686  0.00  0.00     0.161 C 
ATOM      2  C   LIG d   1      -3.592  76.768 114.370  0.00  0.00     0.016 C 
ATOM      3  C   LIG d   1      -2.627  77.405 113.556  0.00  0.00     0.038 C 
ATOM      4  C   LIG d   1      -1.288  77.529 113.955  0.00  0.00     0.028 C 
ATOM      5  C   LIG d   1      -1.108  77.574 115.468  0.00  0.00    -0.047 C 
ATOM      6  C   LIG d   1      -1.852  76.374 116.098  0.00  0.00     0.091 C 
ENDROOT
BRANCH   1   7
ATOM      7  O   LIG d   1      -3.892  75.032 115.894  0.00  0.00    -0.368 OA
BRANCH   7   8
ATOM      8  C   LIG d   1      -5.025  74.953 116.794  0.00  0.00     0.119 C 
BRANCH   8   9
ATOM      9  C   LIG d   1      -6.281  74.707 115.936  0.00  0.00     0.028 C 
ATOM     10  C   LIG d   1      -7.062  76.002 115.654  0.00  0.00     0.006 C 
ENDBRANCH   8   9
BRANCH   8  11
ATOM     11  C   LIG d   1      -5.271  76.290 117.499  0.00  0.00     0.028 C 
ATOM     12  C   LIG d   1      -5.221  76.173 119.031  0.00  0.00     0.006 C 
ENDBRANCH   8  11
ENDBRANCH   7   8
ENDBRANCH   1   7
BRANCH   6  13
ATOM     13  N   LIG d   1      -1.797  76.389 117.583  0.00  0.00    -0.311 N 
ATOM     14  C   LIG d   1      -1.557  75.305 118.318  0.00  0.00     0.210 C 
ATOM     15  C   LIG d   1      -1.564  75.536 119.833  0.00  0.00     0.109 C 
ATOM     16  O   LIG d   1      -1.307  74.180 117.860  0.00  0.00    -0.276 OA
ATOM     17  H   LIG d   1      -1.957  77.267 118.036  0.00  0.00     0.149 HD
ENDBRANCH   6  13
BRANCH   5  18
ATOM     18  N   LIG d   1       0.341  77.566 115.745  0.00  0.00     0.381 N 
ATOM     19  H   LIG d   1       0.501  77.741 116.717  0.00  0.00    -0.090 HD
ATOM     20  H   LIG d   1       0.777  78.301 115.216  0.00  0.00    -0.090 HD
ATOM     21  H   LIG d   1       0.732  76.686 115.490  0.00  0.00    -0.090 HD
ENDBRANCH   5  18
BRANCH   3  22
ATOM     22  C   LIG d   1      -3.009  77.961 112.345  0.00  0.00     0.382 C 
ATOM     23  O   LIG d   1      -4.082  77.606 111.802  0.00  0.00    -0.241 OA
ATOM     24  O   LIG d   1      -2.271  78.782 111.767  0.00  0.00    -0.241 OA
ENDBRANCH   3  22
TORSDOF 7
ENDMDL
MODEL 6
REMARK VINA RESULT:      -4.7      3.602      5.659
REMARK  7 active torsions:
REMARK  status: ('A' for Active; 'I' for Inactive)
REMARK    1  A    between atoms: C_2  and  C_3 
REMARK    2  A    between atoms: C_3  and  O_6 
REMARK    3  A    between atoms: C_3  and  C_4 
REMARK    4  A    between atoms: C_7  and  O_6 
REMARK    5  A    between atoms: C_9  and  C_10 
REMARK    6  A    between atoms: N_15  and  C_14 
REMARK    7  A    between atoms: N_20  and  C_19 
REMARK       I    between atoms: C_22  and  N_20 
ROOT
ATOM      1  C   LIG d   1      -5.824  77.307 117.045  0.00  0.00     0.161 C 
ATOM      2  C   LIG d   1      -4.576  77.909 116.815  0.00  0.00     0.016 C 
ATOM      3  C   LIG d   1      -3.572  77.333 116.003  0.00  0.00     0.038 C 
ATOM      4  C   LIG d   1      -3.808  76.181 115.237  0.00  0.00     0.028 C 
ATOM      5  C   LIG d   1      -4.876  75.268 115.830  0.00  0.00    -0.047 C 
ATOM      6  C   LIG d   1      -6.141  76.105 116.130  0.00  0.00     0.091 C 
ENDROOT
BRANCH   1   7
ATOM      7  O   LIG d   1      -6.869  78.296 116.951  0.00  0.00    -0.368 OA
BRANCH   7   8
ATOM      8  C   LIG d   1      -7.236  78.954 118.189  0.00  0.00     0.119 C 
BRANCH   8   9
ATOM      9  C   LIG d   1      -8.573  78.348 118.656  0.00  0.00     0.028 C 
ATOM     10  C   LIG d   1      -8.380  77.235 119.700  0.00  0.00     0.006 C 
ENDBRANCH   8   9
BRANCH   8  11
ATOM     11  C   LIG d   1      -7.521  80.442 117.965  0.00  0.00     0.028 C 
ATOM     12  C   LIG d   1      -7.079  81.318 119.148  0.00  0.00     0.006 C 
ENDBRANCH   8  11
ENDBRANCH   7   8
ENDBRANCH   1   7
BRANCH   6  13
ATOM     13  N   LIG d   1      -7.206  75.306 116.790  0.00  0.00    -0.311 N 
ATOM     14  C   LIG d   1      -8.481  75.325 116.406  0.00  0.00     0.210 C 
ATOM     15  C   LIG d   1      -9.419  74.442 117.235  0.00  0.00     0.109 C 
ATOM     16  O   LIG d   1      -8.919  75.965 115.438  0.00  0.00    -0.276 OA
ATOM     17  H   LIG d   1      -6.933  74.734 117.565  0.00  0.00     0.149 HD
ENDBRANCH   6  13
BRANCH   5  18
ATOM     18  N   LIG d   1      -5.118  74.180 114.864  0.00  0.00     0.381 N 
ATOM     19  H   LIG d   1      -5.979  74.342 114.380  0.00  0.00    -0.090 HD
ATOM     20  H   LIG d   1      -5.196  73.312 115.365  0.00  0.00    -0.090 HD
ATOM     21  H   LIG d   1      -4.367  74.129 114.212  0.00  0.00    -0.090 HD
ENDBRANCH   5  18
BRANCH   3  22
ATOM     22  C   LIG d   1      -2.303  77.890 115.981  0.00  0.00     0.382 C 
ATOM     23  O   LIG d   1      -1.687  78.090 117.056  0.00  0.00    -0.241 OA
ATOM     24  O   LIG d   1      -1.783  78.237 114.903  0.00  0.00    -0.241 OA
ENDBRANCH   3  22
TORSDOF 7
ENDMDL
MODEL 7
REMARK VINA RESULT:      -4.5      2.613      3.422
REMARK  7 active torsions:
REMARK  status: ('A' for Active; 'I' for Inactive)
REMARK    1  A    between atoms: C_2  and  C_3 
REMARK    2  A    between atoms: C_3  and  O_6 
REMARK    3  A    between atoms: C_3  and  C_4 
REMARK    4  A    between atoms: C_7  and  O_6 
REMARK    5  A    between atoms: C_9  and  C_10 
REMARK    6  A    between atoms: N_15  and  C_14 
REMARK    7  A    between atoms: N_20  and  C_19 
REMARK       I    between atoms: C_22  and  N_20 
ROOT
ATOM      1  C   LIG d   1      -3.527  77.353 117.322  0.00  0.00     0.161 C 
ATOM      2  C   LIG d   1      -2.637  78.116 118.096  0.00  0.00     0.016 C 
ATOM      3  C   LIG d   1      -1.231  78.016 117.990  0.00  0.00     0.038 C 
ATOM      4  C   LIG d   1      -0.615  77.251 116.989  0.00  0.00     0.028 C 
ATOM      5  C   LIG d   1      -1.465  76.076 116.515  0.00  0.00    -0.047 C 
ATOM      6  C   LIG d   1      -2.875  76.594 116.147  0.00  0.00     0.091 C 
ENDROOT
BRANCH   1   7
ATOM      7  O   LIG d   1      -4.600  78.188 116.844  0.00  0.00    -0.368 OA
BRANCH   7   8
ATOM      8  C   LIG d   1      -5.821  78.165 117.623  0.00  0.00     0.119 C 
BRANCH   8   9
ATOM      9  C   LIG d   1      -6.837  77.287 116.866  0.00  0.00     0.028 C 
ATOM     10  C   LIG d   1      -6.988  75.891 117.492  0.00  0.00     0.006 C 
ENDBRANCH   8   9
BRANCH   8  11
ATOM     11  C   LIG d   1      -6.462  79.554 117.698  0.00  0.00     0.028 C 
ATOM     12  C   LIG d   1      -7.969  79.500 117.994  0.00  0.00     0.006 C 
ENDBRANCH   8  11
ENDBRANCH   7   8
ENDBRANCH   1   7
BRANCH   6  13
ATOM     13  N   LIG d   1      -3.797  75.496 115.754  0.00  0.00    -0.311 N 
ATOM     14  C   LIG d   1      -4.485  75.490 114.614  0.00  0.00     0.210 C 
ATOM     15  C   LIG d   1      -5.393  74.273 114.413  0.00  0.00     0.109 C 
ATOM     16  O   LIG d   1      -4.405  76.361 113.735  0.00  0.00    -0.276 OA
ATOM     17  H   LIG d   1      -3.897  74.733 116.395  0.00  0.00     0.149 HD
ENDBRANCH   6  13
BRANCH   5  18
ATOM     18  N   LIG d   1      -0.765  75.449 115.379  0.00  0.00     0.381 N 
ATOM     19  H   LIG d   1      -0.742  76.081 114.604  0.00  0.00    -0.090 HD
ATOM     20  H   LIG d   1      -1.270  74.626 115.100  0.00  0.00    -0.090 HD
ATOM     21  H   LIG d   1       0.163  75.203 115.645  0.00  0.00    -0.090 HD
ENDBRANCH   5  18
BRANCH   3  22
ATOM     22  C   LIG d   1      -0.425  78.657 118.919  0.00  0.00     0.382 C 
ATOM     23  O   LIG d   1       0.397  77.996 119.598  0.00  0.00    -0.241 OA
ATOM     24  O   LIG d   1      -0.540  79.881 119.117  0.00  0.00    -0.241 OA
ENDBRANCH   3  22
TORSDOF 7
ENDMDL
MODEL 8
REMARK VINA RESULT:      -4.4      4.038      6.686
REMARK  7 active torsions:
REMARK  status: ('A' for Active; 'I' for Inactive)
REMARK    1  A    between atoms: C_2  and  C_3 
REMARK    2  A    between atoms: C_3  and  O_6 
REMARK    3  A    between atoms: C_3  and  C_4 
REMARK    4  A    between atoms: C_7  and  O_6 
REMARK    5  A    between atoms: C_9  and  C_10 
REMARK    6  A    between atoms: N_15  and  C_14 
REMARK    7  A    between atoms: N_20  and  C_19 
REMARK       I    between atoms: C_22  and  N_20 
ROOT
ATOM      1  C   LIG d   1      -5.999  77.627 117.355  0.00  0.00     0.161 C 
ATOM      2  C   LIG d   1      -6.690  78.796 117.712  0.00  0.00     0.016 C 
ATOM      3  C   LIG d   1      -8.091  78.846 117.899  0.00  0.00     0.038 C 
ATOM      4  C   LIG d   1      -8.882  77.688 117.890  0.00  0.00     0.028 C 
ATOM      5  C   LIG d   1      -8.301  76.565 117.036  0.00  0.00    -0.047 C 
ATOM      6  C   LIG d   1      -6.830  76.330 117.449  0.00  0.00     0.091 C 
ENDROOT
BRANCH   1   7
ATOM      7  O   LIG d   1      -4.797  77.510 118.142  0.00  0.00    -0.368 OA
BRANCH   7   8
ATOM      8  C   LIG d   1      -3.614  78.145 117.598  0.00  0.00     0.119 C 
BRANCH   8   9
ATOM      9  C   LIG d   1      -2.962  77.149 116.620  0.00  0.00     0.028 C 
ATOM     10  C   LIG d   1      -2.805  77.732 115.206  0.00  0.00     0.006 C 
ENDBRANCH   8   9
BRANCH   8  11
ATOM     11  C   LIG d   1      -2.564  78.392 118.685  0.00  0.00     0.028 C 
ATOM     12  C   LIG d   1      -2.996  79.464 119.698  0.00  0.00     0.006 C 
ENDBRANCH   8  11
ENDBRANCH   7   8
ENDBRANCH   1   7
BRANCH   6  13
ATOM     13  N   LIG d   1      -6.162  75.305 116.606  0.00  0.00    -0.311 N 
ATOM     14  C   LIG d   1      -5.994  75.434 115.291  0.00  0.00     0.210 C 
ATOM     15  C   LIG d   1      -5.297  74.252 114.609  0.00  0.00     0.109 C 
ATOM     16  O   LIG d   1      -6.326  76.429 114.629  0.00  0.00    -0.276 OA
ATOM     17  H   LIG d   1      -5.833  74.479 117.066  0.00  0.00     0.149 HD
ENDBRANCH   6  13
BRANCH   5  18
ATOM     18  N   LIG d   1      -9.152  75.375 117.226  0.00  0.00     0.381 N 
ATOM     19  H   LIG d   1      -8.580  74.576 117.411  0.00  0.00    -0.090 HD
ATOM     20  H   LIG d   1      -9.667  75.206 116.380  0.00  0.00    -0.090 HD
ATOM     21  H   LIG d   1      -9.783  75.524 117.983  0.00  0.00    -0.090 HD
ENDBRANCH   5  18
BRANCH   3  22
ATOM     22  C   LIG d   1      -8.719  80.072 118.060  0.00  0.00     0.382 C 
ATOM     23  O   LIG d   1      -8.428  81.030 117.304  0.00  0.00    -0.241 OA
ATOM     24  O   LIG d   1      -9.541  80.244 118.980  0.00  0.00    -0.241 OA
ENDBRANCH   3  22
TORSDOF 7
ENDMDL
MODEL 9
REMARK VINA RESULT:      -4.4      1.918      4.869
REMARK  7 active torsions:
REMARK  status: ('A' for Active; 'I' for Inactive)
REMARK    1  A    between atoms: C_2  and  C_3 
REMARK    2  A    between atoms: C_3  and  O_6 
REMARK    3  A    between atoms: C_3  and  C_4 
REMARK    4  A    between atoms: C_7  and  O_6 
REMARK    5  A    between atoms: C_9  and  C_10 
REMARK    6  A    between atoms: N_15  and  C_14 
REMARK    7  A    between atoms: N_20  and  C_19 
REMARK       I    between atoms: C_22  and  N_20 
ROOT
ATOM      1  C   LIG d   1      -3.131  77.152 115.680  0.00  0.00     0.161 C 
ATOM      2  C   LIG d   1      -3.263  78.189 114.741  0.00  0.00     0.016 C 
ATOM      3  C   LIG d   1      -2.356  78.395 113.676  0.00  0.00     0.038 C 
ATOM      4  C   LIG d   1      -1.332  77.480 113.387  0.00  0.00     0.028 C 
ATOM      5  C   LIG d   1      -0.857  76.697 114.606  0.00  0.00    -0.047 C 
ATOM      6  C   LIG d   1      -2.084  76.078 115.315  0.00  0.00     0.091 C 
ENDROOT
BRANCH   1   7
ATOM      7  O   LIG d   1      -4.414  76.540 115.916  0.00  0.00    -0.368 OA
BRANCH   7   8
ATOM      8  C   LIG d   1      -5.229  77.147 116.949  0.00  0.00     0.119 C 
BRANCH   8   9
ATOM      9  C   LIG d   1      -4.853  76.480 118.286  0.00  0.00     0.028 C 
ATOM     10  C   LIG d   1      -4.862  74.945 118.200  0.00  0.00     0.006 C 
ENDBRANCH   8   9
BRANCH   8  11
ATOM     11  C   LIG d   1      -6.714  76.833 116.743  0.00  0.00     0.028 C 
ATOM     12  C   LIG d   1      -6.981  76.028 115.461  0.00  0.00     0.006 C 
ENDBRANCH   8  11
ENDBRANCH   7   8
ENDBRANCH   1   7
BRANCH   6  13
ATOM     13  N   LIG d   1      -1.716  75.365 116.565  0.00  0.00    -0.311 N 
ATOM     14  C   LIG d   1      -1.174  75.969 117.621  0.00  0.00     0.210 C 
ATOM     15  C   LIG d   1      -0.853  75.045 118.800  0.00  0.00     0.109 C 
ATOM     16  O   LIG d   1      -0.958  77.187 117.706  0.00  0.00    -0.276 OA
ATOM     17  H   LIG d   1      -1.887  74.379 116.595  0.00  0.00     0.149 HD
ENDBRANCH   6  13
BRANCH   5  18
ATOM     18  N   LIG d   1       0.110  75.686 114.137  0.00  0.00     0.381 N 
ATOM     19  H   LIG d   1       0.856  75.599 114.798  0.00  0.00    -0.090 HD
ATOM     20  H   LIG d   1       0.498  75.989 113.261  0.00  0.00    -0.090 HD
ATOM     21  H   LIG d   1      -0.345  74.807 114.021  0.00  0.00    -0.090 HD
ENDBRANCH   5  18
BRANCH   3  22
ATOM     22  C   LIG d   1      -2.444  79.548 112.912  0.00  0.00     0.382 C 
ATOM     23  O   LIG d   1      -1.713  79.688 111.901  0.00  0.00    -0.241 OA
ATOM     24  O   LIG d   1      -3.213  80.470 113.245  0.00  0.00    -0.241 OA
ENDBRANCH   3  22
TORSDOF 7
ENDMDL
