MODEL 1
REMARK VINA RESULT:      -4.7      0.000      0.000
REMARK  7 active torsions:
REMARK  status: ('A' for Active; 'I' for Inactive)
REMARK    1  A    between atoms: C_2  and  C_3 
REMARK    2  A    between atoms: C_3  and  O_6 
REMARK    3  A    between atoms: C_3  and  C_4 
REMARK    4  A    between atoms: C_7  and  O_6 
REMARK    5  A    between atoms: C_9  and  C_10 
REMARK    6  A    between atoms: N_15  and  C_14 
REMARK    7  A    between atoms: N_20  and  C_19 
REMARK       I    between atoms: C_22  and  N_20 
ROOT
ATOM      1  C   LIG d   1       3.250  87.636 115.358  0.00  0.00     0.161 C 
ATOM      2  C   LIG d   1       4.466  87.910 116.007  0.00  0.00     0.016 C 
ATOM      3  C   LIG d   1       5.728  87.763 115.388  0.00  0.00     0.038 C 
ATOM      4  C   LIG d   1       5.855  87.475 114.021  0.00  0.00     0.028 C 
ATOM      5  C   LIG d   1       4.673  86.697 113.454  0.00  0.00    -0.047 C 
ATOM      6  C   LIG d   1       3.364  87.427 113.833  0.00  0.00     0.091 C 
ENDROOT
BRANCH   1   7
ATOM      7  O   LIG d   1       2.294  88.674 115.652  0.00  0.00    -0.368 OA
BRANCH   7   8
ATOM      8  C   LIG d   1       1.582  88.548 116.907  0.00  0.00     0.119 C 
BRANCH   8   9
ATOM      9  C   LIG d   1       0.325  87.697 116.643  0.00  0.00     0.028 C 
ATOM     10  C   LIG d   1      -0.932  88.288 117.304  0.00  0.00     0.006 C 
ENDBRANCH   8   9
BRANCH   8  11
ATOM     11  C   LIG d   1       1.060  89.904 117.390  0.00  0.00     0.028 C 
ATOM     12  C   LIG d   1       1.835  91.089 116.791  0.00  0.00     0.006 C 
ENDBRANCH   8  11
ENDBRANCH   7   8
ENDBRANCH   1   7
BRANCH   6  13
ATOM     13  N   LIG d   1       2.153  86.688 113.389  0.00  0.00    -0.311 N 
ATOM     14  C   LIG d   1       1.503  86.958 112.259  0.00  0.00     0.210 C 
ATOM     15  C   LIG d   1       0.268  86.089 112.000  0.00  0.00     0.109 C 
ATOM     16  O   LIG d   1       1.850  87.813 111.430  0.00  0.00    -0.276 OA
ATOM     17  H   LIG d   1       1.821  85.956 113.987  0.00  0.00     0.149 HD
ENDBRANCH   6  13
BRANCH   5  18
ATOM     18  N   LIG d   1       4.870  86.585 111.996  0.00  0.00     0.381 N 
ATOM     19  H   LIG d   1       3.987  86.633 111.530  0.00  0.00    -0.090 HD
ATOM     20  H   LIG d   1       5.287  85.694 111.793  0.00  0.00    -0.090 HD
ATOM     21  H   LIG d   1       5.463  87.318 111.675  0.00  0.00    -0.090 HD
ENDBRANCH   5  18
BRANCH   3  22
ATOM     22  C   LIG d   1       6.883  87.867 116.149  0.00  0.00     0.382 C 
ATOM     23  O   LIG d   1       6.981  88.764 117.020  0.00  0.00    -0.241 OA
ATOM     24  O   LIG d   1       7.845  87.102 115.945  0.00  0.00    -0.241 OA
ENDBRANCH   3  22
TORSDOF 7
ENDMDL
MODEL 2
REMARK VINA RESULT:      -4.6      1.743      4.660
REMARK  7 active torsions:
REMARK  status: ('A' for Active; 'I' for Inactive)
REMARK    1  A    between atoms: C_2  and  C_3 
REMARK    2  A    between atoms: C_3  and  O_6 
REMARK    3  A    between atoms: C_3  and  C_4 
REMARK    4  A    between atoms: C_7  and  O_6 
REMARK    5  A    between atoms: C_9  and  C_10 
REMARK    6  A    between atoms: N_15  and  C_14 
REMARK    7  A    between atoms: N_20  and  C_19 
REMARK       I    between atoms: C_22  and  N_20 
ROOT
ATOM      1  C   LIG d   1       3.560  87.626 115.347  0.00  0.00     0.161 C 
ATOM      2  C   LIG d   1       2.769  87.196 114.269  0.00  0.00     0.016 C 
ATOM      3  C   LIG d   1       3.253  87.083 112.945  0.00  0.00     0.038 C 
ATOM      4  C   LIG d   1       4.611  87.249 112.636  0.00  0.00     0.028 C 
ATOM      5  C   LIG d   1       5.344  88.173 113.602  0.00  0.00    -0.047 C 
ATOM      6  C   LIG d   1       5.072  87.704 115.049  0.00  0.00     0.091 C 
ENDROOT
BRANCH   1   7
ATOM      7  O   LIG d   1       3.318  86.788 116.495  0.00  0.00    -0.368 OA
BRANCH   7   8
ATOM      8  C   LIG d   1       2.553  87.385 117.570  0.00  0.00     0.119 C 
BRANCH   8   9
ATOM      9  C   LIG d   1       1.144  86.762 117.537  0.00  0.00     0.028 C 
ATOM     10  C   LIG d   1       0.120  87.664 116.825  0.00  0.00     0.006 C 
ENDBRANCH   8   9
BRANCH   8  11
ATOM     11  C   LIG d   1       2.339  88.884 117.336  0.00  0.00     0.028 C 
ATOM     12  C   LIG d   1       3.072  89.758 118.367  0.00  0.00     0.006 C 
ENDBRANCH   8  11
ENDBRANCH   7   8
ENDBRANCH   1   7
BRANCH   6  13
ATOM     13  N   LIG d   1       5.684  88.604 116.061  0.00  0.00    -0.311 N 
ATOM     14  C   LIG d   1       6.896  88.409 116.579  0.00  0.00     0.210 C 
ATOM     15  C   LIG d   1       7.327  89.445 117.622  0.00  0.00     0.109 C 
ATOM     16  O   LIG d   1       7.667  87.496 116.249  0.00  0.00    -0.276 OA
ATOM     17  H   LIG d   1       5.139  89.389 116.362  0.00  0.00     0.149 HD
ENDBRANCH   6  13
BRANCH   5  18
ATOM     18  N   LIG d   1       6.775  88.147 113.245  0.00  0.00     0.381 N 
ATOM     19  H   LIG d   1       6.916  87.551 112.454  0.00  0.00    -0.090 HD
ATOM     20  H   LIG d   1       7.296  87.773 114.018  0.00  0.00    -0.090 HD
ATOM     21  H   LIG d   1       7.092  89.068 113.036  0.00  0.00    -0.090 HD
ENDBRANCH   5  18
BRANCH   3  22
ATOM     22  C   LIG d   1       2.366  86.840 111.907  0.00  0.00     0.382 C 
ATOM     23  O   LIG d   1       1.641  87.767 111.472  0.00  0.00    -0.241 OA
ATOM     24  O   LIG d   1       2.250  85.695 111.431  0.00  0.00    -0.241 OA
ENDBRANCH   3  22
TORSDOF 7
ENDMDL
MODEL 3
REMARK VINA RESULT:      -4.5      2.700      5.522
REMARK  7 active torsions:
REMARK  status: ('A' for Active; 'I' for Inactive)
REMARK    1  A    between atoms: C_2  and  C_3 
REMARK    2  A    between atoms: C_3  and  O_6 
REMARK    3  A    between atoms: C_3  and  C_4 
REMARK    4  A    between atoms: C_7  and  O_6 
REMARK    5  A    between atoms: C_9  and  C_10 
REMARK    6  A    between atoms: N_15  and  C_14 
REMARK    7  A    between atoms: N_20  and  C_19 
REMARK       I    between atoms: C_22  and  N_20 
ROOT
ATOM      1  C   LIG d   1       4.024  88.241 116.491  0.00  0.00     0.161 C 
ATOM      2  C   LIG d   1       2.967  89.165 116.433  0.00  0.00     0.016 C 
ATOM      3  C   LIG d   1       3.143  90.560 116.574  0.00  0.00     0.038 C 
ATOM      4  C   LIG d   1       4.418  91.144 116.632  0.00  0.00     0.028 C 
ATOM      5  C   LIG d   1       5.484  90.215 117.202  0.00  0.00    -0.047 C 
ATOM      6  C   LIG d   1       5.433  88.868 116.443  0.00  0.00     0.091 C 
ENDROOT
BRANCH   1   7
ATOM      7  O   LIG d   1       3.876  87.262 115.445  0.00  0.00    -0.368 OA
BRANCH   7   8
ATOM      8  C   LIG d   1       3.354  87.749 114.184  0.00  0.00     0.119 C 
BRANCH   8   9
ATOM      9  C   LIG d   1       2.404  86.672 113.628  0.00  0.00     0.028 C 
ATOM     10  C   LIG d   1       1.261  86.339 114.602  0.00  0.00     0.006 C 
ENDBRANCH   8   9
BRANCH   8  11
ATOM     11  C   LIG d   1       4.465  87.889 113.139  0.00  0.00     0.028 C 
ATOM     12  C   LIG d   1       4.629  86.630 112.272  0.00  0.00     0.006 C 
ENDBRANCH   8  11
ENDBRANCH   7   8
ENDBRANCH   1   7
BRANCH   6  13
ATOM     13  N   LIG d   1       6.388  87.871 116.994  0.00  0.00    -0.311 N 
ATOM     14  C   LIG d   1       7.254  87.193 116.243  0.00  0.00     0.210 C 
ATOM     15  C   LIG d   1       8.134  86.199 117.008  0.00  0.00     0.109 C 
ATOM     16  O   LIG d   1       7.399  87.343 115.020  0.00  0.00    -0.276 OA
ATOM     17  H   LIG d   1       6.360  87.710 117.982  0.00  0.00     0.149 HD
ENDBRANCH   6  13
BRANCH   5  18
ATOM     18  N   LIG d   1       6.785  90.899 117.077  0.00  0.00     0.381 N 
ATOM     19  H   LIG d   1       7.291  90.825 117.937  0.00  0.00    -0.090 HD
ATOM     20  H   LIG d   1       6.623  91.873 116.890  0.00  0.00    -0.090 HD
ATOM     21  H   LIG d   1       7.314  90.495 116.336  0.00  0.00    -0.090 HD
ENDBRANCH   5  18
BRANCH   3  22
ATOM     22  C   LIG d   1       2.035  91.384 116.698  0.00  0.00     0.382 C 
ATOM     23  O   LIG d   1       2.158  92.529 117.195  0.00  0.00    -0.241 OA
ATOM     24  O   LIG d   1       0.907  90.980 116.358  0.00  0.00    -0.241 OA
ENDBRANCH   3  22
TORSDOF 7
ENDMDL
MODEL 4
REMARK VINA RESULT:      -4.3      3.153      6.739
REMARK  7 active torsions:
REMARK  status: ('A' for Active; 'I' for Inactive)
REMARK    1  A    between atoms: C_2  and  C_3 
REMARK    2  A    between atoms: C_3  and  O_6 
REMARK    3  A    between atoms: C_3  and  C_4 
REMARK    4  A    between atoms: C_7  and  O_6 
REMARK    5  A    between atoms: C_9  and  C_10 
REMARK    6  A    between atoms: N_15  and  C_14 
REMARK    7  A    between atoms: N_20  and  C_19 
REMARK       I    between atoms: C_22  and  N_20 
ROOT
ATOM      1  C   LIG d   1       1.146  88.669 116.857  0.00  0.00     0.161 C 
ATOM      2  C   LIG d   1      -0.239  88.499 117.020  0.00  0.00     0.016 C 
ATOM      3  C   LIG d   1      -1.097  89.515 117.499  0.00  0.00     0.038 C 
ATOM      4  C   LIG d   1      -0.648  90.828 117.705  0.00  0.00     0.028 C 
ATOM      5  C   LIG d   1       0.838  90.916 118.035  0.00  0.00    -0.047 C 
ATOM      6  C   LIG d   1       1.636  90.128 116.971  0.00  0.00     0.091 C 
ENDROOT
BRANCH   1   7
ATOM      7  O   LIG d   1       1.564  88.097 115.602  0.00  0.00    -0.368 OA
BRANCH   7   8
ATOM      8  C   LIG d   1       2.394  86.912 115.686  0.00  0.00     0.119 C 
BRANCH   8   9
ATOM      9  C   LIG d   1       3.579  87.107 114.720  0.00  0.00     0.028 C 
ATOM     10  C   LIG d   1       4.912  86.638 115.326  0.00  0.00     0.006 C 
ENDBRANCH   8   9
BRANCH   8  11
ATOM     11  C   LIG d   1       1.651  85.675 115.173  0.00  0.00     0.028 C 
ATOM     12  C   LIG d   1       0.728  85.984 113.984  0.00  0.00     0.006 C 
ENDBRANCH   8  11
ENDBRANCH   7   8
ENDBRANCH   1   7
BRANCH   6  13
ATOM     13  N   LIG d   1       3.092  90.092 117.266  0.00  0.00    -0.311 N 
ATOM     14  C   LIG d   1       4.029  90.395 116.369  0.00  0.00     0.210 C 
ATOM     15  C   LIG d   1       5.470  90.274 116.874  0.00  0.00     0.109 C 
ATOM     16  O   LIG d   1       3.803  90.784 115.213  0.00  0.00    -0.276 OA
ATOM     17  H   LIG d   1       3.364  89.818 118.189  0.00  0.00     0.149 HD
ENDBRANCH   6  13
BRANCH   5  18
ATOM     18  N   LIG d   1       1.199  92.345 118.089  0.00  0.00     0.381 N 
ATOM     19  H   LIG d   1       0.441  92.899 117.744  0.00  0.00    -0.090 HD
ATOM     20  H   LIG d   1       1.998  92.501 117.499  0.00  0.00    -0.090 HD
ATOM     21  H   LIG d   1       1.413  92.608 119.025  0.00  0.00    -0.090 HD
ENDBRANCH   5  18
BRANCH   3  22
ATOM     22  C   LIG d   1      -2.412  89.211 117.814  0.00  0.00     0.382 C 
ATOM     23  O   LIG d   1      -2.665  88.305 118.644  0.00  0.00    -0.241 OA
ATOM     24  O   LIG d   1      -3.351  89.802 117.247  0.00  0.00    -0.241 OA
ENDBRANCH   3  22
TORSDOF 7
ENDMDL
MODEL 5
REMARK VINA RESULT:      -4.3      2.299      4.635
REMARK  7 active torsions:
REMARK  status: ('A' for Active; 'I' for Inactive)
REMARK    1  A    between atoms: C_2  and  C_3 
REMARK    2  A    between atoms: C_3  and  O_6 
REMARK    3  A    between atoms: C_3  and  C_4 
REMARK    4  A    between atoms: C_7  and  O_6 
REMARK    5  A    between atoms: C_9  and  C_10 
REMARK    6  A    between atoms: N_15  and  C_14 
REMARK    7  A    between atoms: N_20  and  C_19 
REMARK       I    between atoms: C_22  and  N_20 
ROOT
ATOM      1  C   LIG d   1       3.325  88.124 115.314  0.00  0.00     0.161 C 
ATOM      2  C   LIG d   1       2.600  87.536 114.264  0.00  0.00     0.016 C 
ATOM      3  C   LIG d   1       3.161  87.240 113.001  0.00  0.00     0.038 C 
ATOM      4  C   LIG d   1       4.535  87.374 112.750  0.00  0.00     0.028 C 
ATOM      5  C   LIG d   1       5.207  88.435 113.615  0.00  0.00    -0.047 C 
ATOM      6  C   LIG d   1       4.852  88.175 115.096  0.00  0.00     0.091 C 
ENDROOT
BRANCH   1   7
ATOM      7  O   LIG d   1       3.018  87.456 116.554  0.00  0.00    -0.368 OA
BRANCH   7   8
ATOM      8  C   LIG d   1       1.637  87.056 116.737  0.00  0.00     0.119 C 
BRANCH   8   9
ATOM      9  C   LIG d   1       1.067  87.883 117.906  0.00  0.00     0.028 C 
ATOM     10  C   LIG d   1       0.123  88.999 117.428  0.00  0.00     0.006 C 
ENDBRANCH   8   9
BRANCH   8  11
ATOM     11  C   LIG d   1       1.536  85.595 117.187  0.00  0.00     0.028 C 
ATOM     12  C   LIG d   1       0.773  85.431 118.510  0.00  0.00     0.006 C 
ENDBRANCH   8  11
ENDBRANCH   7   8
ENDBRANCH   1   7
BRANCH   6  13
ATOM     13  N   LIG d   1       5.401  89.217 116.002  0.00  0.00    -0.311 N 
ATOM     14  C   LIG d   1       4.961  90.474 116.026  0.00  0.00     0.210 C 
ATOM     15  C   LIG d   1       5.678  91.391 117.021  0.00  0.00     0.109 C 
ATOM     16  O   LIG d   1       4.023  90.908 115.340  0.00  0.00    -0.276 OA
ATOM     17  H   LIG d   1       6.144  88.943 116.615  0.00  0.00     0.149 HD
ENDBRANCH   6  13
BRANCH   5  18
ATOM     18  N   LIG d   1       6.657  88.373 113.349  0.00  0.00     0.381 N 
ATOM     19  H   LIG d   1       6.870  87.548 112.824  0.00  0.00    -0.090 HD
ATOM     20  H   LIG d   1       7.147  88.325 114.225  0.00  0.00    -0.090 HD
ATOM     21  H   LIG d   1       6.946  89.181 112.842  0.00  0.00    -0.090 HD
ENDBRANCH   5  18
BRANCH   3  22
ATOM     22  C   LIG d   1       2.337  86.842 111.959  0.00  0.00     0.382 C 
ATOM     23  O   LIG d   1       1.527  87.656 111.454  0.00  0.00    -0.241 OA
ATOM     24  O   LIG d   1       2.363  85.666 111.548  0.00  0.00    -0.241 OA
ENDBRANCH   3  22
TORSDOF 7
ENDMDL
MODEL 6
REMARK VINA RESULT:      -4.2      1.834      2.584
REMARK  7 active torsions:
REMARK  status: ('A' for Active; 'I' for Inactive)
REMARK    1  A    between atoms: C_2  and  C_3 
REMARK    2  A    between atoms: C_3  and  O_6 
REMARK    3  A    between atoms: C_3  and  C_4 
REMARK    4  A    between atoms: C_7  and  O_6 
REMARK    5  A    between atoms: C_9  and  C_10 
REMARK    6  A    between atoms: N_15  and  C_14 
REMARK    7  A    between atoms: N_20  and  C_19 
REMARK       I    between atoms: C_22  and  N_20 
ROOT
ATOM      1  C   LIG d   1       4.456  85.999 115.462  0.00  0.00     0.161 C 
ATOM      2  C   LIG d   1       5.492  85.949 116.410  0.00  0.00     0.016 C 
ATOM      3  C   LIG d   1       6.686  86.699 116.298  0.00  0.00     0.038 C 
ATOM      4  C   LIG d   1       6.860  87.671 115.302  0.00  0.00     0.028 C 
ATOM      5  C   LIG d   1       6.054  87.394 114.038  0.00  0.00    -0.047 C 
ATOM      6  C   LIG d   1       4.581  87.137 114.428  0.00  0.00     0.091 C 
ENDROOT
BRANCH   1   7
ATOM      7  O   LIG d   1       3.183  86.070 116.134  0.00  0.00    -0.368 OA
BRANCH   7   8
ATOM      8  C   LIG d   1       2.646  87.399 116.343  0.00  0.00     0.119 C 
BRANCH   8   9
ATOM      9  C   LIG d   1       2.997  87.819 117.784  0.00  0.00     0.028 C 
ATOM     10  C   LIG d   1       3.894  89.067 117.829  0.00  0.00     0.006 C 
ENDBRANCH   8   9
BRANCH   8  11
ATOM     11  C   LIG d   1       1.115  87.397 116.283  0.00  0.00     0.028 C 
ATOM     12  C   LIG d   1       0.566  86.565 115.113  0.00  0.00     0.006 C 
ENDBRANCH   8  11
ENDBRANCH   7   8
ENDBRANCH   1   7
BRANCH   6  13
ATOM     13  N   LIG d   1       3.739  86.774 113.257  0.00  0.00    -0.311 N 
ATOM     14  C   LIG d   1       2.977  87.649 112.603  0.00  0.00     0.210 C 
ATOM     15  C   LIG d   1       2.174  87.063 111.438  0.00  0.00     0.109 C 
ATOM     16  O   LIG d   1       2.915  88.861 112.857  0.00  0.00    -0.276 OA
ATOM     17  H   LIG d   1       3.754  85.817 112.964  0.00  0.00     0.149 HD
ENDBRANCH   6  13
BRANCH   5  18
ATOM     18  N   LIG d   1       6.221  88.552 113.140  0.00  0.00     0.381 N 
ATOM     19  H   LIG d   1       5.680  88.418 112.309  0.00  0.00    -0.090 HD
ATOM     20  H   LIG d   1       7.188  88.624 112.878  0.00  0.00    -0.090 HD
ATOM     21  H   LIG d   1       5.932  89.386 113.602  0.00  0.00    -0.090 HD
ENDBRANCH   5  18
BRANCH   3  22
ATOM     22  C   LIG d   1       7.737  86.450 117.167  0.00  0.00     0.382 C 
ATOM     23  O   LIG d   1       8.836  87.033 117.005  0.00  0.00    -0.241 OA
ATOM     24  O   LIG d   1       7.615  85.617 118.085  0.00  0.00    -0.241 OA
ENDBRANCH   3  22
TORSDOF 7
ENDMDL
MODEL 7
REMARK VINA RESULT:      -4.2      2.214      3.062
REMARK  7 active torsions:
REMARK  status: ('A' for Active; 'I' for Inactive)
REMARK    1  A    between atoms: C_2  and  C_3 
REMARK    2  A    between atoms: C_3  and  O_6 
REMARK    3  A    between atoms: C_3  and  C_4 
REMARK    4  A    between atoms: C_7  and  O_6 
REMARK    5  A    between atoms: C_9  and  C_10 
REMARK    6  A    between atoms: N_15  and  C_14 
REMARK    7  A    between atoms: N_20  and  C_19 
REMARK       I    between atoms: C_22  and  N_20 
ROOT
ATOM      1  C   LIG d   1       4.237  87.725 116.306  0.00  0.00     0.161 C 
ATOM      2  C   LIG d   1       4.594  88.569 117.371  0.00  0.00     0.016 C 
ATOM      3  C   LIG d   1       5.007  89.910 117.197  0.00  0.00     0.038 C 
ATOM      4  C   LIG d   1       4.946  90.548 115.949  0.00  0.00     0.028 C 
ATOM      5  C   LIG d   1       5.074  89.588 114.771  0.00  0.00    -0.047 C 
ATOM      6  C   LIG d   1       4.058  88.437 114.949  0.00  0.00     0.091 C 
ENDROOT
BRANCH   1   7
ATOM      7  O   LIG d   1       3.047  86.986 116.646  0.00  0.00    -0.368 OA
BRANCH   7   8
ATOM      8  C   LIG d   1       1.793  87.560 116.203  0.00  0.00     0.119 C 
BRANCH   8   9
ATOM      9  C   LIG d   1       1.178  88.310 117.400  0.00  0.00     0.028 C 
ATOM     10  C   LIG d   1       1.081  89.825 117.157  0.00  0.00     0.006 C 
ENDBRANCH   8   9
BRANCH   8  11
ATOM     11  C   LIG d   1       0.778  86.471 115.842  0.00  0.00     0.028 C 
ATOM     12  C   LIG d   1       0.637  86.266 114.325  0.00  0.00     0.006 C 
ENDBRANCH   8  11
ENDBRANCH   7   8
ENDBRANCH   1   7
BRANCH   6  13
ATOM     13  N   LIG d   1       4.174  87.408 113.883  0.00  0.00    -0.311 N 
ATOM     14  C   LIG d   1       3.475  87.444 112.750  0.00  0.00     0.210 C 
ATOM     15  C   LIG d   1       3.731  86.275 111.794  0.00  0.00     0.109 C 
ATOM     16  O   LIG d   1       2.691  88.351 112.432  0.00  0.00    -0.276 OA
ATOM     17  H   LIG d   1       4.811  86.653 114.045  0.00  0.00     0.149 HD
ENDBRANCH   6  13
BRANCH   5  18
ATOM     18  N   LIG d   1       4.855  90.366 113.537  0.00  0.00     0.381 N 
ATOM     19  H   LIG d   1       5.587  90.175 112.882  0.00  0.00    -0.090 HD
ATOM     20  H   LIG d   1       4.881  91.345 113.761  0.00  0.00    -0.090 HD
ATOM     21  H   LIG d   1       3.973  90.132 113.138  0.00  0.00    -0.090 HD
ENDBRANCH   5  18
BRANCH   3  22
ATOM     22  C   LIG d   1       5.526  90.614 118.273  0.00  0.00     0.382 C 
ATOM     23  O   LIG d   1       5.064  91.744 118.563  0.00  0.00    -0.241 OA
ATOM     24  O   LIG d   1       6.479  90.154 118.929  0.00  0.00    -0.241 OA
ENDBRANCH   3  22
TORSDOF 7
ENDMDL
MODEL 8
REMARK VINA RESULT:      -4.1      2.223      4.159
REMARK  7 active torsions:
REMARK  status: ('A' for Active; 'I' for Inactive)
REMARK    1  A    between atoms: C_2  and  C_3 
REMARK    2  A    between atoms: C_3  and  O_6 
REMARK    3  A    between atoms: C_3  and  C_4 
REMARK    4  A    between atoms: C_7  and  O_6 
REMARK    5  A    between atoms: C_9  and  C_10 
REMARK    6  A    between atoms: N_15  and  C_14 
REMARK    7  A    between atoms: N_20  and  C_19 
REMARK       I    between atoms: C_22  and  N_20 
ROOT
ATOM      1  C   LIG d   1       3.778  87.812 116.145  0.00  0.00     0.161 C 
ATOM      2  C   LIG d   1       4.601  87.872 115.008  0.00  0.00     0.016 C 
ATOM      3  C   LIG d   1       4.168  87.500 113.714  0.00  0.00     0.038 C 
ATOM      4  C   LIG d   1       2.829  87.183 113.443  0.00  0.00     0.028 C 
ATOM      5  C   LIG d   1       2.083  86.622 114.648  0.00  0.00    -0.047 C 
ATOM      6  C   LIG d   1       2.282  87.574 115.850  0.00  0.00     0.091 C 
ENDROOT
BRANCH   1   7
ATOM      7  O   LIG d   1       3.949  89.004 116.937  0.00  0.00    -0.368 OA
BRANCH   7   8
ATOM      8  C   LIG d   1       3.925  90.259 116.212  0.00  0.00     0.119 C 
BRANCH   8   9
ATOM      9  C   LIG d   1       5.160  91.070 116.650  0.00  0.00     0.028 C 
ATOM     10  C   LIG d   1       5.958  90.369 117.763  0.00  0.00     0.006 C 
ENDBRANCH   8   9
BRANCH   8  11
ATOM     11  C   LIG d   1       2.718  91.111 116.613  0.00  0.00     0.028 C 
ATOM     12  C   LIG d   1       2.125  90.702 117.971  0.00  0.00     0.006 C 
ENDBRANCH   8  11
ENDBRANCH   7   8
ENDBRANCH   1   7
BRANCH   6  13
ATOM     13  N   LIG d   1       1.655  87.057 117.093  0.00  0.00    -0.311 N 
ATOM     14  C   LIG d   1       0.424  87.383 117.484  0.00  0.00     0.210 C 
ATOM     15  C   LIG d   1      -0.023  86.754 118.807  0.00  0.00     0.109 C 
ATOM     16  O   LIG d   1      -0.353  88.108 116.844  0.00  0.00    -0.276 OA
ATOM     17  H   LIG d   1       2.203  86.437 117.657  0.00  0.00     0.149 HD
ENDBRANCH   6  13
BRANCH   5  18
ATOM     18  N   LIG d   1       0.668  86.466 114.263  0.00  0.00     0.381 N 
ATOM     19  H   LIG d   1       0.607  86.161 113.312  0.00  0.00    -0.090 HD
ATOM     20  H   LIG d   1       0.210  87.357 114.338  0.00  0.00    -0.090 HD
ATOM     21  H   LIG d   1       0.223  85.804 114.861  0.00  0.00    -0.090 HD
ENDBRANCH   5  18
BRANCH   3  22
ATOM     22  C   LIG d   1       5.090  87.404 112.683  0.00  0.00     0.382 C 
ATOM     23  O   LIG d   1       6.173  88.035 112.749  0.00  0.00    -0.241 OA
ATOM     24  O   LIG d   1       4.834  86.730 111.668  0.00  0.00    -0.241 OA
ENDBRANCH   3  22
TORSDOF 7
ENDMDL
MODEL 9
REMARK VINA RESULT:      -3.8      2.223      3.840
REMARK  7 active torsions:
REMARK  status: ('A' for Active; 'I' for Inactive)
REMARK    1  A    between atoms: C_2  and  C_3 
REMARK    2  A    between atoms: C_3  and  O_6 
REMARK    3  A    between atoms: C_3  and  C_4 
REMARK    4  A    between atoms: C_7  and  O_6 
REMARK    5  A    between atoms: C_9  and  C_10 
REMARK    6  A    between atoms: N_15  and  C_14 
REMARK    7  A    between atoms: N_20  and  C_19 
REMARK       I    between atoms: C_22  and  N_20 
ROOT
ATOM      1  C   LIG d   1       3.656  88.857 116.514  0.00  0.00     0.161 C 
ATOM      2  C   LIG d   1       4.754  88.814 115.639  0.00  0.00     0.016 C 
ATOM      3  C   LIG d   1       4.777  88.039 114.457  0.00  0.00     0.038 C 
ATOM      4  C   LIG d   1       3.637  87.368 113.988  0.00  0.00     0.028 C 
ATOM      5  C   LIG d   1       2.667  86.975 115.097  0.00  0.00    -0.047 C 
ATOM      6  C   LIG d   1       2.364  88.219 115.962  0.00  0.00     0.091 C 
ENDROOT
BRANCH   1   7
ATOM      7  O   LIG d   1       3.409  90.217 116.921  0.00  0.00    -0.368 OA
BRANCH   7   8
ATOM      8  C   LIG d   1       3.513  90.487 118.341  0.00  0.00     0.119 C 
BRANCH   8   9
ATOM      9  C   LIG d   1       2.408  91.498 118.703  0.00  0.00     0.028 C 
ATOM     10  C   LIG d   1       1.830  92.203 117.464  0.00  0.00     0.006 C 
ENDBRANCH   8   9
BRANCH   8  11
ATOM     11  C   LIG d   1       4.832  91.188 118.680  0.00  0.00     0.028 C 
ATOM     12  C   LIG d   1       5.365  92.047 117.523  0.00  0.00     0.006 C 
ENDBRANCH   8  11
ENDBRANCH   7   8
ENDBRANCH   1   7
BRANCH   6  13
ATOM     13  N   LIG d   1       1.487  87.904 117.121  0.00  0.00    -0.311 N 
ATOM     14  C   LIG d   1       0.365  88.568 117.393  0.00  0.00     0.210 C 
ATOM     15  C   LIG d   1      -0.379  88.094 118.645  0.00  0.00     0.109 C 
ATOM     16  O   LIG d   1      -0.102  89.482 116.697  0.00  0.00    -0.276 OA
ATOM     17  H   LIG d   1       1.775  87.156 117.720  0.00  0.00     0.149 HD
ENDBRANCH   6  13
BRANCH   5  18
ATOM     18  N   LIG d   1       1.464  86.409 114.456  0.00  0.00     0.381 N 
ATOM     19  H   LIG d   1       1.109  85.656 115.010  0.00  0.00    -0.090 HD
ATOM     20  H   LIG d   1       1.717  86.046 113.554  0.00  0.00    -0.090 HD
ATOM     21  H   LIG d   1       0.768  87.115 114.356  0.00  0.00    -0.090 HD
ENDBRANCH   5  18
BRANCH   3  22
ATOM     22  C   LIG d   1       5.961  87.897 113.750  0.00  0.00     0.382 C 
ATOM     23  O   LIG d   1       5.963  88.005 112.500  0.00  0.00    -0.241 OA
ATOM     24  O   LIG d   1       7.021  87.620 114.343  0.00  0.00    -0.241 OA
ENDBRANCH   3  22
TORSDOF 7
ENDMDL
