MODEL 1
REMARK VINA RESULT:      -5.0      0.000      0.000
REMARK  7 active torsions:
REMARK  status: ('A' for Active; 'I' for Inactive)
REMARK    1  A    between atoms: C_2  and  C_3 
REMARK    2  A    between atoms: C_3  and  O_6 
REMARK    3  A    between atoms: C_3  and  C_4 
REMARK    4  A    between atoms: C_7  and  O_6 
REMARK    5  A    between atoms: C_9  and  C_10 
REMARK    6  A    between atoms: N_15  and  C_14 
REMARK    7  A    between atoms: N_20  and  C_19 
REMARK       I    between atoms: C_22  and  N_20 
ROOT
ATOM      1  C   LIG d   1       3.079  89.705 115.701  0.00  0.00     0.161 C 
ATOM      2  C   LIG d   1       1.923  90.465 115.947  0.00  0.00     0.016 C 
ATOM      3  C   LIG d   1       1.757  91.281 117.089  0.00  0.00     0.038 C 
ATOM      4  C   LIG d   1       2.804  91.513 117.993  0.00  0.00     0.028 C 
ATOM      5  C   LIG d   1       3.815  90.372 118.055  0.00  0.00    -0.047 C 
ATOM      6  C   LIG d   1       4.275  90.032 116.619  0.00  0.00     0.091 C 
ENDROOT
BRANCH   1   7
ATOM      7  O   LIG d   1       3.461  89.831 114.316  0.00  0.00    -0.368 OA
BRANCH   7   8
ATOM      8  C   LIG d   1       3.330  88.636 113.508  0.00  0.00     0.119 C 
BRANCH   8   9
ATOM      9  C   LIG d   1       2.764  87.525 114.412  0.00  0.00     0.028 C 
ATOM     10  C   LIG d   1       3.647  86.266 114.418  0.00  0.00     0.006 C 
ENDBRANCH   8   9
BRANCH   8  11
ATOM     11  C   LIG d   1       4.698  88.125 113.045  0.00  0.00     0.028 C 
ATOM     12  C   LIG d   1       5.789  89.206 113.102  0.00  0.00     0.006 C 
ENDBRANCH   8  11
ENDBRANCH   7   8
ENDBRANCH   1   7
BRANCH   6  13
ATOM     13  N   LIG d   1       5.201  88.870 116.581  0.00  0.00    -0.311 N 
ATOM     14  C   LIG d   1       6.526  88.987 116.641  0.00  0.00     0.210 C 
ATOM     15  C   LIG d   1       7.296  87.664 116.567  0.00  0.00     0.109 C 
ATOM     16  O   LIG d   1       7.136  90.057 116.781  0.00  0.00    -0.276 OA
ATOM     17  H   LIG d   1       4.789  87.961 116.500  0.00  0.00     0.149 HD
ENDBRANCH   6  13
BRANCH   5  18
ATOM     18  N   LIG d   1       4.921  90.804 118.930  0.00  0.00     0.381 N 
ATOM     19  H   LIG d   1       5.054  90.136 119.663  0.00  0.00    -0.090 HD
ATOM     20  H   LIG d   1       4.681  91.686 119.346  0.00  0.00    -0.090 HD
ATOM     21  H   LIG d   1       5.759  90.896 118.399  0.00  0.00    -0.090 HD
ENDBRANCH   5  18
BRANCH   3  22
ATOM     22  C   LIG d   1       0.519  91.845 117.357  0.00  0.00     0.382 C 
ATOM     23  O   LIG d   1       0.077  92.765 116.626  0.00  0.00    -0.241 OA
ATOM     24  O   LIG d   1      -0.142  91.476 118.346  0.00  0.00    -0.241 OA
ENDBRANCH   3  22
TORSDOF 7
ENDMDL
MODEL 2
REMARK VINA RESULT:      -4.7      3.251      5.752
REMARK  7 active torsions:
REMARK  status: ('A' for Active; 'I' for Inactive)
REMARK    1  A    between atoms: C_2  and  C_3 
REMARK    2  A    between atoms: C_3  and  O_6 
REMARK    3  A    between atoms: C_3  and  C_4 
REMARK    4  A    between atoms: C_7  and  O_6 
REMARK    5  A    between atoms: C_9  and  C_10 
REMARK    6  A    between atoms: N_15  and  C_14 
REMARK    7  A    between atoms: N_20  and  C_19 
REMARK       I    between atoms: C_22  and  N_20 
ROOT
ATOM      1  C   LIG d   1       4.679  86.639 115.506  0.00  0.00     0.161 C 
ATOM      2  C   LIG d   1       5.641  87.059 116.440  0.00  0.00     0.016 C 
ATOM      3  C   LIG d   1       6.427  88.223 116.276  0.00  0.00     0.038 C 
ATOM      4  C   LIG d   1       6.197  89.133 115.234  0.00  0.00     0.028 C 
ATOM      5  C   LIG d   1       5.580  88.493 113.996  0.00  0.00    -0.047 C 
ATOM      6  C   LIG d   1       4.336  87.678 114.419  0.00  0.00     0.091 C 
ENDROOT
BRANCH   1   7
ATOM      7  O   LIG d   1       3.483  86.218 116.192  0.00  0.00    -0.368 OA
BRANCH   7   8
ATOM      8  C   LIG d   1       2.533  87.263 116.515  0.00  0.00     0.119 C 
BRANCH   8   9
ATOM      9  C   LIG d   1       2.412  87.322 118.050  0.00  0.00     0.028 C 
ATOM     10  C   LIG d   1       2.374  88.765 118.581  0.00  0.00     0.006 C 
ENDBRANCH   8   9
BRANCH   8  11
ATOM     11  C   LIG d   1       1.129  86.914 116.011  0.00  0.00     0.028 C 
ATOM     12  C   LIG d   1       1.068  85.544 115.318  0.00  0.00     0.006 C 
ENDBRANCH   8  11
ENDBRANCH   7   8
ENDBRANCH   1   7
BRANCH   6  13
ATOM     13  N   LIG d   1       3.720  86.950 113.279  0.00  0.00    -0.311 N 
ATOM     14  C   LIG d   1       2.718  87.440 112.551  0.00  0.00     0.210 C 
ATOM     15  C   LIG d   1       2.219  86.518 111.434  0.00  0.00     0.109 C 
ATOM     16  O   LIG d   1       2.217  88.564 112.703  0.00  0.00    -0.276 OA
ATOM     17  H   LIG d   1       4.087  86.043 113.065  0.00  0.00     0.149 HD
ENDBRANCH   6  13
BRANCH   5  18
ATOM     18  N   LIG d   1       5.266  89.575 113.044  0.00  0.00     0.381 N 
ATOM     19  H   LIG d   1       6.113  89.938 112.653  0.00  0.00    -0.090 HD
ATOM     20  H   LIG d   1       4.803  90.317 113.537  0.00  0.00    -0.090 HD
ATOM     21  H   LIG d   1       4.678  89.230 112.318  0.00  0.00    -0.090 HD
ENDBRANCH   5  18
BRANCH   3  22
ATOM     22  C   LIG d   1       7.484  88.464 117.141  0.00  0.00     0.382 C 
ATOM     23  O   LIG d   1       8.098  87.504 117.665  0.00  0.00    -0.241 OA
ATOM     24  O   LIG d   1       7.804  89.631 117.437  0.00  0.00    -0.241 OA
ENDBRANCH   3  22
TORSDOF 7
ENDMDL
MODEL 3
REMARK VINA RESULT:      -4.6      1.712      1.954
REMARK  7 active torsions:
REMARK  status: ('A' for Active; 'I' for Inactive)
REMARK    1  A    between atoms: C_2  and  C_3 
REMARK    2  A    between atoms: C_3  and  O_6 
REMARK    3  A    between atoms: C_3  and  C_4 
REMARK    4  A    between atoms: C_7  and  O_6 
REMARK    5  A    between atoms: C_9  and  C_10 
REMARK    6  A    between atoms: N_15  and  C_14 
REMARK    7  A    between atoms: N_20  and  C_19 
REMARK       I    between atoms: C_22  and  N_20 
ROOT
ATOM      1  C   LIG d   1       3.458  87.809 115.931  0.00  0.00     0.161 C 
ATOM      2  C   LIG d   1       2.538  88.862 115.790  0.00  0.00     0.016 C 
ATOM      3  C   LIG d   1       2.741  90.151 116.334  0.00  0.00     0.038 C 
ATOM      4  C   LIG d   1       3.955  90.520 116.933  0.00  0.00     0.028 C 
ATOM      5  C   LIG d   1       4.712  89.345 117.543  0.00  0.00    -0.047 C 
ATOM      6  C   LIG d   1       4.837  88.225 116.485  0.00  0.00     0.091 C 
ENDROOT
BRANCH   1   7
ATOM      7  O   LIG d   1       3.609  87.120 114.674  0.00  0.00    -0.368 OA
BRANCH   7   8
ATOM      8  C   LIG d   1       3.571  87.948 113.486  0.00  0.00     0.119 C 
BRANCH   8   9
ATOM      9  C   LIG d   1       2.624  87.267 112.478  0.00  0.00     0.028 C 
ATOM     10  C   LIG d   1       3.360  86.279 111.557  0.00  0.00     0.006 C 
ENDBRANCH   8   9
BRANCH   8  11
ATOM     11  C   LIG d   1       4.936  87.992 112.793  0.00  0.00     0.028 C 
ATOM     12  C   LIG d   1       5.786  89.196 113.229  0.00  0.00     0.006 C 
ENDBRANCH   8  11
ENDBRANCH   7   8
ENDBRANCH   1   7
BRANCH   6  13
ATOM     13  N   LIG d   1       5.491  87.005 117.026  0.00  0.00    -0.311 N 
ATOM     14  C   LIG d   1       6.795  86.760 116.912  0.00  0.00     0.210 C 
ATOM     15  C   LIG d   1       7.260  85.434 117.522  0.00  0.00     0.109 C 
ATOM     16  O   LIG d   1       7.616  87.530 116.391  0.00  0.00    -0.276 OA
ATOM     17  H   LIG d   1       4.903  86.341 117.492  0.00  0.00     0.149 HD
ENDBRANCH   6  13
BRANCH   5  18
ATOM     18  N   LIG d   1       6.018  89.849 118.008  0.00  0.00     0.381 N 
ATOM     19  H   LIG d   1       6.217  90.727 117.572  0.00  0.00    -0.090 HD
ATOM     20  H   LIG d   1       6.733  89.195 117.740  0.00  0.00    -0.090 HD
ATOM     21  H   LIG d   1       6.009  89.956 118.999  0.00  0.00    -0.090 HD
ENDBRANCH   5  18
BRANCH   3  22
ATOM     22  C   LIG d   1       1.707  91.074 116.318  0.00  0.00     0.382 C 
ATOM     23  O   LIG d   1       1.943  92.284 116.553  0.00  0.00    -0.241 OA
ATOM     24  O   LIG d   1       0.535  90.706 116.116  0.00  0.00    -0.241 OA
ENDBRANCH   3  22
TORSDOF 7
ENDMDL
MODEL 4
REMARK VINA RESULT:      -4.5      2.111      4.815
REMARK  7 active torsions:
REMARK  status: ('A' for Active; 'I' for Inactive)
REMARK    1  A    between atoms: C_2  and  C_3 
REMARK    2  A    between atoms: C_3  and  O_6 
REMARK    3  A    between atoms: C_3  and  C_4 
REMARK    4  A    between atoms: C_7  and  O_6 
REMARK    5  A    between atoms: C_9  and  C_10 
REMARK    6  A    between atoms: N_15  and  C_14 
REMARK    7  A    between atoms: N_20  and  C_19 
REMARK       I    between atoms: C_22  and  N_20 
ROOT
ATOM      1  C   LIG d   1       2.051  89.293 115.653  0.00  0.00     0.161 C 
ATOM      2  C   LIG d   1       2.916  88.957 114.598  0.00  0.00     0.016 C 
ATOM      3  C   LIG d   1       4.311  89.186 114.632  0.00  0.00     0.038 C 
ATOM      4  C   LIG d   1       4.961  89.631 115.793  0.00  0.00     0.028 C 
ATOM      5  C   LIG d   1       4.065  90.457 116.710  0.00  0.00    -0.047 C 
ATOM      6  C   LIG d   1       2.757  89.676 116.971  0.00  0.00     0.091 C 
ENDROOT
BRANCH   1   7
ATOM      7  O   LIG d   1       1.117  88.219 115.880  0.00  0.00    -0.368 OA
BRANCH   7   8
ATOM      8  C   LIG d   1       1.626  86.877 115.677  0.00  0.00     0.119 C 
BRANCH   8   9
ATOM      9  C   LIG d   1       0.477  86.028 115.101  0.00  0.00     0.028 C 
ATOM     10  C   LIG d   1       0.756  85.560 113.663  0.00  0.00     0.006 C 
ENDBRANCH   8   9
BRANCH   8  11
ATOM     11  C   LIG d   1       1.994  86.214 117.007  0.00  0.00     0.028 C 
ATOM     12  C   LIG d   1       3.511  86.054 117.194  0.00  0.00     0.006 C 
ENDBRANCH   8  11
ENDBRANCH   7   8
ENDBRANCH   1   7
BRANCH   6  13
ATOM     13  N   LIG d   1       1.789  90.450 117.791  0.00  0.00    -0.311 N 
ATOM     14  C   LIG d   1       1.449  91.711 117.528  0.00  0.00     0.210 C 
ATOM     15  C   LIG d   1       0.449  92.329 118.511  0.00  0.00     0.109 C 
ATOM     16  O   LIG d   1       1.855  92.365 116.556  0.00  0.00    -0.276 OA
ATOM     17  H   LIG d   1       1.386  89.985 118.581  0.00  0.00     0.149 HD
ENDBRANCH   6  13
BRANCH   5  18
ATOM     18  N   LIG d   1       4.826  90.738 117.942  0.00  0.00     0.381 N 
ATOM     19  H   LIG d   1       4.267  90.521 118.742  0.00  0.00    -0.090 HD
ATOM     20  H   LIG d   1       5.050  91.717 117.970  0.00  0.00    -0.090 HD
ATOM     21  H   LIG d   1       5.664  90.198 117.956  0.00  0.00    -0.090 HD
ENDBRANCH   5  18
BRANCH   3  22
ATOM     22  C   LIG d   1       5.065  89.007 113.483  0.00  0.00     0.382 C 
ATOM     23  O   LIG d   1       4.596  88.351 112.521  0.00  0.00    -0.241 OA
ATOM     24  O   LIG d   1       6.225  89.454 113.412  0.00  0.00    -0.241 OA
ENDBRANCH   3  22
TORSDOF 7
ENDMDL
MODEL 5
REMARK VINA RESULT:      -4.5      2.109      4.000
REMARK  7 active torsions:
REMARK  status: ('A' for Active; 'I' for Inactive)
REMARK    1  A    between atoms: C_2  and  C_3 
REMARK    2  A    between atoms: C_3  and  O_6 
REMARK    3  A    between atoms: C_3  and  C_4 
REMARK    4  A    between atoms: C_7  and  O_6 
REMARK    5  A    between atoms: C_9  and  C_10 
REMARK    6  A    between atoms: N_15  and  C_14 
REMARK    7  A    between atoms: N_20  and  C_19 
REMARK       I    between atoms: C_22  and  N_20 
ROOT
ATOM      1  C   LIG d   1       4.042  89.518 115.093  0.00  0.00     0.161 C 
ATOM      2  C   LIG d   1       3.395  90.491 115.872  0.00  0.00     0.016 C 
ATOM      3  C   LIG d   1       2.202  90.246 116.590  0.00  0.00     0.038 C 
ATOM      4  C   LIG d   1       1.653  88.960 116.700  0.00  0.00     0.028 C 
ATOM      5  C   LIG d   1       1.991  88.055 115.520  0.00  0.00    -0.047 C 
ATOM      6  C   LIG d   1       3.519  88.079 115.289  0.00  0.00     0.091 C 
ENDROOT
BRANCH   1   7
ATOM      7  O   LIG d   1       5.463  89.570 115.326  0.00  0.00    -0.368 OA
BRANCH   7   8
ATOM      8  C   LIG d   1       5.930  88.966 116.557  0.00  0.00     0.119 C 
BRANCH   8   9
ATOM      9  C   LIG d   1       6.612  90.071 117.386  0.00  0.00     0.028 C 
ATOM     10  C   LIG d   1       5.822  90.422 118.658  0.00  0.00     0.006 C 
ENDBRANCH   8   9
BRANCH   8  11
ATOM     11  C   LIG d   1       7.024  87.927 116.289  0.00  0.00     0.028 C 
ATOM     12  C   LIG d   1       6.607  86.505 116.695  0.00  0.00     0.006 C 
ENDBRANCH   8  11
ENDBRANCH   7   8
ENDBRANCH   1   7
BRANCH   6  13
ATOM     13  N   LIG d   1       3.926  87.286 114.100  0.00  0.00    -0.311 N 
ATOM     14  C   LIG d   1       3.416  87.474 112.884  0.00  0.00     0.210 C 
ATOM     15  C   LIG d   1       3.960  86.535 111.803  0.00  0.00     0.109 C 
ATOM     16  O   LIG d   1       2.589  88.351 112.592  0.00  0.00    -0.276 OA
ATOM     17  H   LIG d   1       4.615  86.574 114.241  0.00  0.00     0.149 HD
ENDBRANCH   6  13
BRANCH   5  18
ATOM     18  N   LIG d   1       1.474  86.708 115.828  0.00  0.00     0.381 N 
ATOM     19  H   LIG d   1       0.894  86.747 116.643  0.00  0.00    -0.090 HD
ATOM     20  H   LIG d   1       2.249  86.099 116.022  0.00  0.00    -0.090 HD
ATOM     21  H   LIG d   1       0.951  86.358 115.056  0.00  0.00    -0.090 HD
ENDBRANCH   5  18
BRANCH   3  22
ATOM     22  C   LIG d   1       1.523  91.304 117.176  0.00  0.00     0.382 C 
ATOM     23  O   LIG d   1       1.660  92.465 116.722  0.00  0.00    -0.241 OA
ATOM     24  O   LIG d   1       0.811  91.118 118.181  0.00  0.00    -0.241 OA
ENDBRANCH   3  22
TORSDOF 7
ENDMDL
MODEL 6
REMARK VINA RESULT:      -4.3      2.383      5.380
REMARK  7 active torsions:
REMARK  status: ('A' for Active; 'I' for Inactive)
REMARK    1  A    between atoms: C_2  and  C_3 
REMARK    2  A    between atoms: C_3  and  O_6 
REMARK    3  A    between atoms: C_3  and  C_4 
REMARK    4  A    between atoms: C_7  and  O_6 
REMARK    5  A    between atoms: C_9  and  C_10 
REMARK    6  A    between atoms: N_15  and  C_14 
REMARK    7  A    between atoms: N_20  and  C_19 
REMARK       I    between atoms: C_22  and  N_20 
ROOT
ATOM      1  C   LIG d   1       3.301  89.350 115.334  0.00  0.00     0.161 C 
ATOM      2  C   LIG d   1       4.151  89.511 116.441  0.00  0.00     0.016 C 
ATOM      3  C   LIG d   1       5.561  89.467 116.353  0.00  0.00     0.038 C 
ATOM      4  C   LIG d   1       6.225  89.410 115.118  0.00  0.00     0.028 C 
ATOM      5  C   LIG d   1       5.406  88.739 114.021  0.00  0.00    -0.047 C 
ATOM      6  C   LIG d   1       4.009  89.397 113.964  0.00  0.00     0.091 C 
ENDROOT
BRANCH   1   7
ATOM      7  O   LIG d   1       2.242  90.327 115.385  0.00  0.00    -0.368 OA
BRANCH   7   8
ATOM      8  C   LIG d   1       1.852  90.776 116.706  0.00  0.00     0.119 C 
BRANCH   8   9
ATOM      9  C   LIG d   1       0.316  90.685 116.791  0.00  0.00     0.028 C 
ATOM     10  C   LIG d   1      -0.310  91.933 117.437  0.00  0.00     0.006 C 
ENDBRANCH   8   9
BRANCH   8  11
ATOM     11  C   LIG d   1       2.183  92.258 116.910  0.00  0.00     0.028 C 
ATOM     12  C   LIG d   1       3.260  92.485 117.982  0.00  0.00     0.006 C 
ENDBRANCH   8  11
ENDBRANCH   7   8
ENDBRANCH   1   7
BRANCH   6  13
ATOM     13  N   LIG d   1       3.114  88.744 112.973  0.00  0.00    -0.311 N 
ATOM     14  C   LIG d   1       2.882  87.433 112.947  0.00  0.00     0.210 C 
ATOM     15  C   LIG d   1       1.944  86.964 111.831  0.00  0.00     0.109 C 
ATOM     16  O   LIG d   1       3.339  86.618 113.763  0.00  0.00    -0.276 OA
ATOM     17  H   LIG d   1       2.677  89.335 112.293  0.00  0.00     0.149 HD
ENDBRANCH   6  13
BRANCH   5  18
ATOM     18  N   LIG d   1       6.159  88.870 112.759  0.00  0.00     0.381 N 
ATOM     19  H   LIG d   1       5.616  88.508 112.001  0.00  0.00    -0.090 HD
ATOM     20  H   LIG d   1       7.004  88.330 112.827  0.00  0.00    -0.090 HD
ATOM     21  H   LIG d   1       6.380  89.827 112.592  0.00  0.00    -0.090 HD
ENDBRANCH   5  18
BRANCH   3  22
ATOM     22  C   LIG d   1       6.322  89.441 117.512  0.00  0.00     0.382 C 
ATOM     23  O   LIG d   1       7.427  90.034 117.550  0.00  0.00    -0.241 OA
ATOM     24  O   LIG d   1       5.938  88.795 118.505  0.00  0.00    -0.241 OA
ENDBRANCH   3  22
TORSDOF 7
ENDMDL
MODEL 7
REMARK VINA RESULT:      -4.2      1.117      2.028
REMARK  7 active torsions:
REMARK  status: ('A' for Active; 'I' for Inactive)
REMARK    1  A    between atoms: C_2  and  C_3 
REMARK    2  A    between atoms: C_3  and  O_6 
REMARK    3  A    between atoms: C_3  and  C_4 
REMARK    4  A    between atoms: C_7  and  O_6 
REMARK    5  A    between atoms: C_9  and  C_10 
REMARK    6  A    between atoms: N_15  and  C_14 
REMARK    7  A    between atoms: N_20  and  C_19 
REMARK       I    between atoms: C_22  and  N_20 
ROOT
ATOM      1  C   LIG d   1       2.579  89.220 116.281  0.00  0.00     0.161 C 
ATOM      2  C   LIG d   1       1.410  89.989 116.404  0.00  0.00     0.016 C 
ATOM      3  C   LIG d   1       1.375  91.257 117.028  0.00  0.00     0.038 C 
ATOM      4  C   LIG d   1       2.545  91.914 117.439  0.00  0.00     0.028 C 
ATOM      5  C   LIG d   1       3.682  90.961 117.791  0.00  0.00    -0.047 C 
ATOM      6  C   LIG d   1       3.884  89.968 116.624  0.00  0.00     0.091 C 
ENDROOT
BRANCH   1   7
ATOM      7  O   LIG d   1       2.657  88.658 114.956  0.00  0.00    -0.368 OA
BRANCH   7   8
ATOM      8  C   LIG d   1       2.759  87.215 114.880  0.00  0.00     0.119 C 
BRANCH   8   9
ATOM      9  C   LIG d   1       3.333  86.864 113.494  0.00  0.00     0.028 C 
ATOM     10  C   LIG d   1       4.342  87.911 112.993  0.00  0.00     0.006 C 
ENDBRANCH   8   9
BRANCH   8  11
ATOM     11  C   LIG d   1       1.377  86.555 114.926  0.00  0.00     0.028 C 
ATOM     12  C   LIG d   1       1.173  85.688 116.178  0.00  0.00     0.006 C 
ENDBRANCH   8  11
ENDBRANCH   7   8
ENDBRANCH   1   7
BRANCH   6  13
ATOM     13  N   LIG d   1       4.922  88.947 116.922  0.00  0.00    -0.311 N 
ATOM     14  C   LIG d   1       6.061  88.838 116.239  0.00  0.00     0.210 C 
ATOM     15  C   LIG d   1       6.984  87.705 116.697  0.00  0.00     0.109 C 
ATOM     16  O   LIG d   1       6.408  89.593 115.318  0.00  0.00    -0.276 OA
ATOM     17  H   LIG d   1       4.736  88.313 117.674  0.00  0.00     0.149 HD
ENDBRANCH   6  13
BRANCH   5  18
ATOM     18  N   LIG d   1       4.878  91.778 118.069  0.00  0.00     0.381 N 
ATOM     19  H   LIG d   1       4.611  92.730 118.219  0.00  0.00    -0.090 HD
ATOM     20  H   LIG d   1       5.487  91.744 117.270  0.00  0.00    -0.090 HD
ATOM     21  H   LIG d   1       5.352  91.428 118.872  0.00  0.00    -0.090 HD
ENDBRANCH   5  18
BRANCH   3  22
ATOM     22  C   LIG d   1       0.155  91.865 117.282  0.00  0.00     0.382 C 
ATOM     23  O   LIG d   1      -0.164  92.911 116.667  0.00  0.00    -0.241 OA
ATOM     24  O   LIG d   1      -0.612  91.405 118.149  0.00  0.00    -0.241 OA
ENDBRANCH   3  22
TORSDOF 7
ENDMDL
MODEL 8
REMARK VINA RESULT:      -3.8      2.424      5.777
REMARK  7 active torsions:
REMARK  status: ('A' for Active; 'I' for Inactive)
REMARK    1  A    between atoms: C_2  and  C_3 
REMARK    2  A    between atoms: C_3  and  O_6 
REMARK    3  A    between atoms: C_3  and  C_4 
REMARK    4  A    between atoms: C_7  and  O_6 
REMARK    5  A    between atoms: C_9  and  C_10 
REMARK    6  A    between atoms: N_15  and  C_14 
REMARK    7  A    between atoms: N_20  and  C_19 
REMARK       I    between atoms: C_22  and  N_20 
ROOT
ATOM      1  C   LIG d   1       3.244  88.930 116.569  0.00  0.00     0.161 C 
ATOM      2  C   LIG d   1       4.520  89.462 116.822  0.00  0.00     0.016 C 
ATOM      3  C   LIG d   1       5.721  88.813 116.454  0.00  0.00     0.038 C 
ATOM      4  C   LIG d   1       5.725  87.652 115.667  0.00  0.00     0.028 C 
ATOM      5  C   LIG d   1       4.461  86.812 115.821  0.00  0.00    -0.047 C 
ATOM      6  C   LIG d   1       3.227  87.719 115.613  0.00  0.00     0.091 C 
ENDROOT
BRANCH   1   7
ATOM      7  O   LIG d   1       2.371  89.967 116.079  0.00  0.00    -0.368 OA
BRANCH   7   8
ATOM      8  C   LIG d   1       1.733  90.791 117.086  0.00  0.00     0.119 C 
BRANCH   8   9
ATOM      9  C   LIG d   1       0.259  90.966 116.674  0.00  0.00     0.028 C 
ATOM     10  C   LIG d   1      -0.558  91.732 117.729  0.00  0.00     0.006 C 
ENDBRANCH   8   9
BRANCH   8  11
ATOM     11  C   LIG d   1       2.320  92.206 117.102  0.00  0.00     0.028 C 
ATOM     12  C   LIG d   1       3.060  92.529 118.410  0.00  0.00     0.006 C 
ENDBRANCH   8  11
ENDBRANCH   7   8
ENDBRANCH   1   7
BRANCH   6  13
ATOM     13  N   LIG d   1       1.948  86.994 115.829  0.00  0.00    -0.311 N 
ATOM     14  C   LIG d   1       1.232  86.459 114.841  0.00  0.00     0.210 C 
ATOM     15  C   LIG d   1      -0.065  85.773 115.281  0.00  0.00     0.109 C 
ATOM     16  O   LIG d   1       1.565  86.459 113.647  0.00  0.00    -0.276 OA
ATOM     17  H   LIG d   1       1.619  86.919 116.772  0.00  0.00     0.149 HD
ENDBRANCH   6  13
BRANCH   5  18
ATOM     18  N   LIG d   1       4.539  85.708 114.845  0.00  0.00     0.381 N 
ATOM     19  H   LIG d   1       5.474  85.355 114.806  0.00  0.00    -0.090 HD
ATOM     20  H   LIG d   1       4.297  86.061 113.935  0.00  0.00    -0.090 HD
ATOM     21  H   LIG d   1       3.911  84.979 115.104  0.00  0.00    -0.090 HD
ENDBRANCH   5  18
BRANCH   3  22
ATOM     22  C   LIG d   1       6.935  89.305 116.908  0.00  0.00     0.382 C 
ATOM     23  O   LIG d   1       7.930  88.545 116.983  0.00  0.00    -0.241 OA
ATOM     24  O   LIG d   1       7.036  90.488 117.286  0.00  0.00    -0.241 OA
ENDBRANCH   3  22
TORSDOF 7
ENDMDL
MODEL 9
REMARK VINA RESULT:      -3.8      1.665      4.917
REMARK  7 active torsions:
REMARK  status: ('A' for Active; 'I' for Inactive)
REMARK    1  A    between atoms: C_2  and  C_3 
REMARK    2  A    between atoms: C_3  and  O_6 
REMARK    3  A    between atoms: C_3  and  C_4 
REMARK    4  A    between atoms: C_7  and  O_6 
REMARK    5  A    between atoms: C_9  and  C_10 
REMARK    6  A    between atoms: N_15  and  C_14 
REMARK    7  A    between atoms: N_20  and  C_19 
REMARK       I    between atoms: C_22  and  N_20 
ROOT
ATOM      1  C   LIG d   1       3.631  89.378 115.586  0.00  0.00     0.161 C 
ATOM      2  C   LIG d   1       4.895  88.774 115.685  0.00  0.00     0.016 C 
ATOM      3  C   LIG d   1       5.776  88.986 116.770  0.00  0.00     0.038 C 
ATOM      4  C   LIG d   1       5.387  89.703 117.911  0.00  0.00     0.028 C 
ATOM      5  C   LIG d   1       4.311  90.747 117.633  0.00  0.00    -0.047 C 
ATOM      6  C   LIG d   1       3.145  90.075 116.873  0.00  0.00     0.091 C 
ENDROOT
BRANCH   1   7
ATOM      7  O   LIG d   1       2.660  88.409 115.143  0.00  0.00    -0.368 OA
BRANCH   7   8
ATOM      8  C   LIG d   1       3.159  87.350 114.290  0.00  0.00     0.119 C 
BRANCH   8   9
ATOM      9  C   LIG d   1       2.768  87.700 112.841  0.00  0.00     0.028 C 
ATOM     10  C   LIG d   1       3.062  86.553 111.860  0.00  0.00     0.006 C 
ENDBRANCH   8   9
BRANCH   8  11
ATOM     11  C   LIG d   1       2.463  86.019 114.587  0.00  0.00     0.028 C 
ATOM     12  C   LIG d   1       1.762  86.006 115.955  0.00  0.00     0.006 C 
ENDBRANCH   8  11
ENDBRANCH   7   8
ENDBRANCH   1   7
BRANCH   6  13
ATOM     13  N   LIG d   1       2.086  91.044 116.488  0.00  0.00    -0.311 N 
ATOM     14  C   LIG d   1       1.029  91.318 117.250  0.00  0.00     0.210 C 
ATOM     15  C   LIG d   1       0.047  92.332 116.655  0.00  0.00     0.109 C 
ATOM     16  O   LIG d   1       0.828  90.840 118.377  0.00  0.00    -0.276 OA
ATOM     17  H   LIG d   1       2.186  91.501 115.602  0.00  0.00     0.149 HD
ENDBRANCH   6  13
BRANCH   5  18
ATOM     18  N   LIG d   1       3.902  91.323 118.928  0.00  0.00     0.381 N 
ATOM     19  H   LIG d   1       3.459  92.207 118.781  0.00  0.00    -0.090 HD
ATOM     20  H   LIG d   1       4.721  91.470 119.491  0.00  0.00    -0.090 HD
ATOM     21  H   LIG d   1       3.277  90.703 119.394  0.00  0.00    -0.090 HD
ENDBRANCH   5  18
BRANCH   3  22
ATOM     22  C   LIG d   1       7.077  88.511 116.703  0.00  0.00     0.382 C 
ATOM     23  O   LIG d   1       8.027  89.225 117.104  0.00  0.00    -0.241 OA
ATOM     24  O   LIG d   1       7.316  87.394 116.206  0.00  0.00    -0.241 OA
ENDBRANCH   3  22
TORSDOF 7
ENDMDL
