MODEL 1
REMARK VINA RESULT:      -4.6      0.000      0.000
REMARK  7 active torsions:
REMARK  status: ('A' for Active; 'I' for Inactive)
REMARK    1  A    between atoms: C_2  and  C_3 
REMARK    2  A    between atoms: C_3  and  O_6 
REMARK    3  A    between atoms: C_3  and  C_4 
REMARK    4  A    between atoms: C_7  and  O_6 
REMARK    5  A    between atoms: C_9  and  C_10 
REMARK    6  A    between atoms: N_15  and  C_14 
REMARK    7  A    between atoms: N_20  and  C_19 
REMARK       I    between atoms: C_22  and  N_20 
ROOT
ATOM      1  C   LIG d   1       3.316  88.658 115.549  0.00  0.00     0.161 C 
ATOM      2  C   LIG d   1       2.629  88.042 114.490  0.00  0.00     0.016 C 
ATOM      3  C   LIG d   1       3.186  87.859 113.203  0.00  0.00     0.038 C 
ATOM      4  C   LIG d   1       4.532  88.145 112.930  0.00  0.00     0.028 C 
ATOM      5  C   LIG d   1       5.113  89.233 113.827  0.00  0.00    -0.047 C 
ATOM      6  C   LIG d   1       4.823  88.876 115.302  0.00  0.00     0.091 C 
ENDROOT
BRANCH   1   7
ATOM      7  O   LIG d   1       3.110  87.911 116.765  0.00  0.00    -0.368 OA
BRANCH   7   8
ATOM      8  C   LIG d   1       2.283  88.545 117.771  0.00  0.00     0.119 C 
BRANCH   8   9
ATOM      9  C   LIG d   1       1.066  87.633 118.012  0.00  0.00     0.028 C 
ATOM     10  C   LIG d   1       1.463  86.157 118.185  0.00  0.00     0.006 C 
ENDBRANCH   8   9
BRANCH   8  11
ATOM     11  C   LIG d   1       1.704  89.869 117.262  0.00  0.00     0.028 C 
ATOM     12  C   LIG d   1       0.170  89.850 117.167  0.00  0.00     0.006 C 
ENDBRANCH   8  11
ENDBRANCH   7   8
ENDBRANCH   1   7
BRANCH   6  13
ATOM     13  N   LIG d   1       5.285  89.930 116.242  0.00  0.00    -0.311 N 
ATOM     14  C   LIG d   1       6.485  89.923 116.820  0.00  0.00     0.210 C 
ATOM     15  C   LIG d   1       6.752  91.094 117.771  0.00  0.00     0.109 C 
ATOM     16  O   LIG d   1       7.366  89.075 116.611  0.00  0.00    -0.276 OA
ATOM     17  H   LIG d   1       4.645  90.673 116.444  0.00  0.00     0.149 HD
ENDBRANCH   6  13
BRANCH   5  18
ATOM     18  N   LIG d   1       6.555  89.333 113.528  0.00  0.00     0.381 N 
ATOM     19  H   LIG d   1       7.079  88.840 114.223  0.00  0.00    -0.090 HD
ATOM     20  H   LIG d   1       6.826  90.300 113.556  0.00  0.00    -0.090 HD
ATOM     21  H   LIG d   1       6.743  88.953 112.627  0.00  0.00    -0.090 HD
ENDBRANCH   5  18
BRANCH   3  22
ATOM     22  C   LIG d   1       2.381  87.421 112.162  0.00  0.00     0.382 C 
ATOM     23  O   LIG d   1       2.762  86.476 111.430  0.00  0.00    -0.241 OA
ATOM     24  O   LIG d   1       1.300  87.988 111.918  0.00  0.00    -0.241 OA
ENDBRANCH   3  22
TORSDOF 7
ENDMDL
MODEL 2
REMARK VINA RESULT:      -4.4      1.408      4.601
REMARK  7 active torsions:
REMARK  status: ('A' for Active; 'I' for Inactive)
REMARK    1  A    between atoms: C_2  and  C_3 
REMARK    2  A    between atoms: C_3  and  O_6 
REMARK    3  A    between atoms: C_3  and  C_4 
REMARK    4  A    between atoms: C_7  and  O_6 
REMARK    5  A    between atoms: C_9  and  C_10 
REMARK    6  A    between atoms: N_15  and  C_14 
REMARK    7  A    between atoms: N_20  and  C_19 
REMARK       I    between atoms: C_22  and  N_20 
ROOT
ATOM      1  C   LIG d   1       3.849  87.882 115.773  0.00  0.00     0.161 C 
ATOM      2  C   LIG d   1       4.476  88.386 116.925  0.00  0.00     0.016 C 
ATOM      3  C   LIG d   1       5.620  89.216 116.888  0.00  0.00     0.038 C 
ATOM      4  C   LIG d   1       6.129  89.724 115.684  0.00  0.00     0.028 C 
ATOM      5  C   LIG d   1       5.835  88.836 114.479  0.00  0.00    -0.047 C 
ATOM      6  C   LIG d   1       4.323  88.516 114.449  0.00  0.00     0.091 C 
ENDROOT
BRANCH   1   7
ATOM      7  O   LIG d   1       2.419  88.003 115.903  0.00  0.00    -0.368 OA
BRANCH   7   8
ATOM      8  C   LIG d   1       1.941  88.673 117.095  0.00  0.00     0.119 C 
BRANCH   8   9
ATOM      9  C   LIG d   1       0.935  87.732 117.784  0.00  0.00     0.028 C 
ATOM     10  C   LIG d   1       1.586  86.421 118.256  0.00  0.00     0.006 C 
ENDBRANCH   8   9
BRANCH   8  11
ATOM     11  C   LIG d   1       1.143  89.933 116.744  0.00  0.00     0.028 C 
ATOM     12  C   LIG d   1      -0.300  89.890 117.272  0.00  0.00     0.006 C 
ENDBRANCH   8  11
ENDBRANCH   7   8
ENDBRANCH   1   7
BRANCH   6  13
ATOM     13  N   LIG d   1       3.963  87.583 113.349  0.00  0.00    -0.311 N 
ATOM     14  C   LIG d   1       2.941  87.786 112.520  0.00  0.00     0.210 C 
ATOM     15  C   LIG d   1       2.733  86.690 111.470  0.00  0.00     0.109 C 
ATOM     16  O   LIG d   1       2.207  88.785 112.534  0.00  0.00    -0.276 OA
ATOM     17  H   LIG d   1       4.526  86.761 113.246  0.00  0.00     0.149 HD
ENDBRANCH   6  13
BRANCH   5  18
ATOM     18  N   LIG d   1       6.299  89.550 113.275  0.00  0.00     0.381 N 
ATOM     19  H   LIG d   1       7.065  89.056 112.862  0.00  0.00    -0.090 HD
ATOM     20  H   LIG d   1       6.621  90.464 113.543  0.00  0.00    -0.090 HD
ATOM     21  H   LIG d   1       5.555  89.631 112.618  0.00  0.00    -0.090 HD
ENDBRANCH   5  18
BRANCH   3  22
ATOM     22  C   LIG d   1       6.292  89.513 118.064  0.00  0.00     0.382 C 
ATOM     23  O   LIG d   1       7.063  88.666 118.577  0.00  0.00    -0.241 OA
ATOM     24  O   LIG d   1       6.103  90.600 118.643  0.00  0.00    -0.241 OA
ENDBRANCH   3  22
TORSDOF 7
ENDMDL
MODEL 3
REMARK VINA RESULT:      -4.3      6.163      8.922
REMARK  7 active torsions:
REMARK  status: ('A' for Active; 'I' for Inactive)
REMARK    1  A    between atoms: C_2  and  C_3 
REMARK    2  A    between atoms: C_3  and  O_6 
REMARK    3  A    between atoms: C_3  and  C_4 
REMARK    4  A    between atoms: C_7  and  O_6 
REMARK    5  A    between atoms: C_9  and  C_10 
REMARK    6  A    between atoms: N_15  and  C_14 
REMARK    7  A    between atoms: N_20  and  C_19 
REMARK       I    between atoms: C_22  and  N_20 
ROOT
ATOM      1  C   LIG d   1      -2.661  92.929 117.931  0.00  0.00     0.161 C 
ATOM      2  C   LIG d   1      -2.556  94.322 117.779  0.00  0.00     0.016 C 
ATOM      3  C   LIG d   1      -1.350  95.036 117.964  0.00  0.00     0.038 C 
ATOM      4  C   LIG d   1      -0.125  94.383 118.166  0.00  0.00     0.028 C 
ATOM      5  C   LIG d   1      -0.269  93.016 118.827  0.00  0.00    -0.047 C 
ATOM      6  C   LIG d   1      -1.312  92.187 118.042  0.00  0.00     0.091 C 
ENDROOT
BRANCH   1   7
ATOM      7  O   LIG d   1      -3.448  92.378 116.856  0.00  0.00    -0.368 OA
BRANCH   7   8
ATOM      8  C   LIG d   1      -4.717  91.789 117.233  0.00  0.00     0.119 C 
BRANCH   8   9
ATOM      9  C   LIG d   1      -5.686  91.984 116.050  0.00  0.00     0.028 C 
ATOM     10  C   LIG d   1      -5.838  90.711 115.201  0.00  0.00     0.006 C 
ENDBRANCH   8   9
BRANCH   8  11
ATOM     11  C   LIG d   1      -5.353  92.540 118.406  0.00  0.00     0.028 C 
ATOM     12  C   LIG d   1      -6.802  92.968 118.124  0.00  0.00     0.006 C 
ENDBRANCH   8  11
ENDBRANCH   7   8
ENDBRANCH   1   7
BRANCH   6  13
ATOM     13  N   LIG d   1      -1.576  90.867 118.671  0.00  0.00    -0.311 N 
ATOM     14  C   LIG d   1      -1.208  89.709 118.124  0.00  0.00     0.210 C 
ATOM     15  C   LIG d   1      -1.595  88.463 118.928  0.00  0.00     0.109 C 
ATOM     16  O   LIG d   1      -0.571  89.596 117.067  0.00  0.00    -0.276 OA
ATOM     17  H   LIG d   1      -2.061  90.867 119.546  0.00  0.00     0.149 HD
ENDBRANCH   6  13
BRANCH   5  18
ATOM     18  N   LIG d   1       1.066  92.390 118.852  0.00  0.00     0.381 N 
ATOM     19  H   LIG d   1       1.759  93.078 119.071  0.00  0.00    -0.090 HD
ATOM     20  H   LIG d   1       1.268  92.018 117.940  0.00  0.00    -0.090 HD
ATOM     21  H   LIG d   1       1.088  91.659 119.529  0.00  0.00    -0.090 HD
ENDBRANCH   5  18
BRANCH   3  22
ATOM     22  C   LIG d   1      -1.369  96.422 117.987  0.00  0.00     0.382 C 
ATOM     23  O   LIG d   1      -2.453  97.032 118.155  0.00  0.00    -0.241 OA
ATOM     24  O   LIG d   1      -0.323  97.072 117.797  0.00  0.00    -0.241 OA
ENDBRANCH   3  22
TORSDOF 7
ENDMDL
MODEL 4
REMARK VINA RESULT:      -4.0      7.122     10.406
REMARK  7 active torsions:
REMARK  status: ('A' for Active; 'I' for Inactive)
REMARK    1  A    between atoms: C_2  and  C_3 
REMARK    2  A    between atoms: C_3  and  O_6 
REMARK    3  A    between atoms: C_3  and  C_4 
REMARK    4  A    between atoms: C_7  and  O_6 
REMARK    5  A    between atoms: C_9  and  C_10 
REMARK    6  A    between atoms: N_15  and  C_14 
REMARK    7  A    between atoms: N_20  and  C_19 
REMARK       I    between atoms: C_22  and  N_20 
ROOT
ATOM      1  C   LIG d   1      -3.703  92.092 117.004  0.00  0.00     0.161 C 
ATOM      2  C   LIG d   1      -3.032  93.193 117.562  0.00  0.00     0.016 C 
ATOM      3  C   LIG d   1      -3.652  94.127 118.424  0.00  0.00     0.038 C 
ATOM      4  C   LIG d   1      -4.954  93.937 118.910  0.00  0.00     0.028 C 
ATOM      5  C   LIG d   1      -5.834  93.113 117.977  0.00  0.00    -0.047 C 
ATOM      6  C   LIG d   1      -5.093  91.807 117.611  0.00  0.00     0.091 C 
ENDROOT
BRANCH   1   7
ATOM      7  O   LIG d   1      -2.869  90.919 117.087  0.00  0.00    -0.368 OA
BRANCH   7   8
ATOM      8  C   LIG d   1      -1.599  91.086 117.763  0.00  0.00     0.119 C 
BRANCH   8   9
ATOM      9  C   LIG d   1      -0.490  90.699 116.765  0.00  0.00     0.028 C 
ATOM     10  C   LIG d   1       0.803  90.255 117.469  0.00  0.00     0.006 C 
ENDBRANCH   8   9
BRANCH   8  11
ATOM     11  C   LIG d   1      -1.455  90.105 118.930  0.00  0.00     0.028 C 
ATOM     12  C   LIG d   1      -2.538  89.014 118.928  0.00  0.00     0.006 C 
ENDBRANCH   8  11
ENDBRANCH   7   8
ENDBRANCH   1   7
BRANCH   6  13
ATOM     13  N   LIG d   1      -5.848  90.980 116.634  0.00  0.00    -0.311 N 
ATOM     14  C   LIG d   1      -6.495  91.490 115.587  0.00  0.00     0.210 C 
ATOM     15  C   LIG d   1      -7.227  90.464 114.717  0.00  0.00     0.109 C 
ATOM     16  O   LIG d   1      -6.504  92.691 115.278  0.00  0.00    -0.276 OA
ATOM     17  H   LIG d   1      -5.867  89.991 116.792  0.00  0.00     0.149 HD
ENDBRANCH   6  13
BRANCH   5  18
ATOM     18  N   LIG d   1      -7.116  92.876 118.667  0.00  0.00     0.381 N 
ATOM     19  H   LIG d   1      -7.074  93.246 119.596  0.00  0.00    -0.090 HD
ATOM     20  H   LIG d   1      -7.274  91.885 118.729  0.00  0.00    -0.090 HD
ATOM     21  H   LIG d   1      -7.860  93.307 118.163  0.00  0.00    -0.090 HD
ENDBRANCH   5  18
BRANCH   3  22
ATOM     22  C   LIG d   1      -2.980  95.288 118.777  0.00  0.00     0.382 C 
ATOM     23  O   LIG d   1      -3.614  96.362 118.914  0.00  0.00    -0.241 OA
ATOM     24  O   LIG d   1      -1.742  95.284 118.916  0.00  0.00    -0.241 OA
ENDBRANCH   3  22
TORSDOF 7
ENDMDL
MODEL 5
REMARK VINA RESULT:      -4.0      1.595      4.891
REMARK  7 active torsions:
REMARK  status: ('A' for Active; 'I' for Inactive)
REMARK    1  A    between atoms: C_2  and  C_3 
REMARK    2  A    between atoms: C_3  and  O_6 
REMARK    3  A    between atoms: C_3  and  C_4 
REMARK    4  A    between atoms: C_7  and  O_6 
REMARK    5  A    between atoms: C_9  and  C_10 
REMARK    6  A    between atoms: N_15  and  C_14 
REMARK    7  A    between atoms: N_20  and  C_19 
REMARK       I    between atoms: C_22  and  N_20 
ROOT
ATOM      1  C   LIG d   1       4.756  87.633 116.378  0.00  0.00     0.161 C 
ATOM      2  C   LIG d   1       5.681  88.215 117.260  0.00  0.00     0.016 C 
ATOM      3  C   LIG d   1       6.635  89.180 116.862  0.00  0.00     0.038 C 
ATOM      4  C   LIG d   1       6.629  89.743 115.577  0.00  0.00     0.028 C 
ATOM      5  C   LIG d   1       6.040  88.821 114.515  0.00  0.00    -0.047 C 
ATOM      6  C   LIG d   1       4.661  88.316 114.997  0.00  0.00     0.091 C 
ENDROOT
BRANCH   1   7
ATOM      7  O   LIG d   1       3.457  87.577 116.999  0.00  0.00    -0.368 OA
BRANCH   7   8
ATOM      8  C   LIG d   1       2.749  88.837 117.112  0.00  0.00     0.119 C 
BRANCH   8   9
ATOM      9  C   LIG d   1       2.740  89.231 118.602  0.00  0.00     0.028 C 
ATOM     10  C   LIG d   1       3.375  90.610 118.848  0.00  0.00     0.006 C 
ENDBRANCH   8   9
BRANCH   8  11
ATOM     11  C   LIG d   1       1.276  88.685 116.723  0.00  0.00     0.028 C 
ATOM     12  C   LIG d   1       0.369  88.388 117.928  0.00  0.00     0.006 C 
ENDBRANCH   8  11
ENDBRANCH   7   8
ENDBRANCH   1   7
BRANCH   6  13
ATOM     13  N   LIG d   1       4.053  87.342 114.054  0.00  0.00    -0.311 N 
ATOM     14  C   LIG d   1       3.253  87.695 113.050  0.00  0.00     0.210 C 
ATOM     15  C   LIG d   1       2.717  86.532 112.210  0.00  0.00     0.109 C 
ATOM     16  O   LIG d   1       2.962  88.864 112.755  0.00  0.00    -0.276 OA
ATOM     17  H   LIG d   1       4.261  86.374 114.202  0.00  0.00     0.149 HD
ENDBRANCH   6  13
BRANCH   5  18
ATOM     18  N   LIG d   1       5.969  89.582 113.254  0.00  0.00     0.381 N 
ATOM     19  H   LIG d   1       6.803  89.436 112.722  0.00  0.00    -0.090 HD
ATOM     20  H   LIG d   1       5.900  90.561 113.469  0.00  0.00    -0.090 HD
ATOM     21  H   LIG d   1       5.175  89.294 112.726  0.00  0.00    -0.090 HD
ENDBRANCH   5  18
BRANCH   3  22
ATOM     22  C   LIG d   1       7.635  89.562 117.744  0.00  0.00     0.382 C 
ATOM     23  O   LIG d   1       8.840  89.408 117.430  0.00  0.00    -0.241 OA
ATOM     24  O   LIG d   1       7.347  90.016 118.867  0.00  0.00    -0.241 OA
ENDBRANCH   3  22
TORSDOF 7
ENDMDL
MODEL 6
REMARK VINA RESULT:      -3.9      1.489      2.301
REMARK  7 active torsions:
REMARK  status: ('A' for Active; 'I' for Inactive)
REMARK    1  A    between atoms: C_2  and  C_3 
REMARK    2  A    between atoms: C_3  and  O_6 
REMARK    3  A    between atoms: C_3  and  C_4 
REMARK    4  A    between atoms: C_7  and  O_6 
REMARK    5  A    between atoms: C_9  and  C_10 
REMARK    6  A    between atoms: N_15  and  C_14 
REMARK    7  A    between atoms: N_20  and  C_19 
REMARK       I    between atoms: C_22  and  N_20 
ROOT
ATOM      1  C   LIG d   1       3.296  89.035 116.739  0.00  0.00     0.161 C 
ATOM      2  C   LIG d   1       2.681  88.613 115.548  0.00  0.00     0.016 C 
ATOM      3  C   LIG d   1       3.398  88.107 114.439  0.00  0.00     0.038 C 
ATOM      4  C   LIG d   1       4.774  87.844 114.503  0.00  0.00     0.028 C 
ATOM      5  C   LIG d   1       5.513  88.724 115.506  0.00  0.00    -0.047 C 
ATOM      6  C   LIG d   1       4.786  88.652 116.868  0.00  0.00     0.091 C 
ENDROOT
BRANCH   1   7
ATOM      7  O   LIG d   1       2.553  88.545 117.872  0.00  0.00    -0.368 OA
BRANCH   7   8
ATOM      8  C   LIG d   1       1.351  87.795 117.571  0.00  0.00     0.119 C 
BRANCH   8   9
ATOM      9  C   LIG d   1       0.180  88.486 118.295  0.00  0.00     0.028 C 
ATOM     10  C   LIG d   1      -0.491  89.565 117.428  0.00  0.00     0.006 C 
ENDBRANCH   8   9
BRANCH   8  11
ATOM     11  C   LIG d   1       1.414  86.382 118.158  0.00  0.00     0.028 C 
ATOM     12  C   LIG d   1       2.291  85.430 117.330  0.00  0.00     0.006 C 
ENDBRANCH   8  11
ENDBRANCH   7   8
ENDBRANCH   1   7
BRANCH   6  13
ATOM     13  N   LIG d   1       5.394  89.550 117.884  0.00  0.00    -0.311 N 
ATOM     14  C   LIG d   1       5.562  90.859 117.699  0.00  0.00     0.210 C 
ATOM     15  C   LIG d   1       6.228  91.596 118.865  0.00  0.00     0.109 C 
ATOM     16  O   LIG d   1       5.194  91.484 116.693  0.00  0.00    -0.276 OA
ATOM     17  H   LIG d   1       5.693  89.131 118.743  0.00  0.00     0.149 HD
ENDBRANCH   6  13
BRANCH   5  18
ATOM     18  N   LIG d   1       6.909  88.252 115.570  0.00  0.00     0.381 N 
ATOM     19  H   LIG d   1       6.947  87.277 115.347  0.00  0.00    -0.090 HD
ATOM     20  H   LIG d   1       7.251  88.375 116.507  0.00  0.00    -0.090 HD
ATOM     21  H   LIG d   1       7.473  88.769 114.932  0.00  0.00    -0.090 HD
ENDBRANCH   5  18
BRANCH   3  22
ATOM     22  C   LIG d   1       2.742  87.894 113.236  0.00  0.00     0.382 C 
ATOM     23  O   LIG d   1       2.570  88.848 112.439  0.00  0.00    -0.241 OA
ATOM     24  O   LIG d   1       2.281  86.771 112.958  0.00  0.00    -0.241 OA
ENDBRANCH   3  22
TORSDOF 7
ENDMDL
MODEL 7
REMARK VINA RESULT:      -3.8      6.270      9.111
REMARK  7 active torsions:
REMARK  status: ('A' for Active; 'I' for Inactive)
REMARK    1  A    between atoms: C_2  and  C_3 
REMARK    2  A    between atoms: C_3  and  O_6 
REMARK    3  A    between atoms: C_3  and  C_4 
REMARK    4  A    between atoms: C_7  and  O_6 
REMARK    5  A    between atoms: C_9  and  C_10 
REMARK    6  A    between atoms: N_15  and  C_14 
REMARK    7  A    between atoms: N_20  and  C_19 
REMARK       I    between atoms: C_22  and  N_20 
ROOT
ATOM      1  C   LIG d   1      -3.345  91.897 118.561  0.00  0.00     0.161 C 
ATOM      2  C   LIG d   1      -3.563  93.283 118.479  0.00  0.00     0.016 C 
ATOM      3  C   LIG d   1      -2.525  94.224 118.295  0.00  0.00     0.038 C 
ATOM      4  C   LIG d   1      -1.205  93.830 118.028  0.00  0.00     0.028 C 
ATOM      5  C   LIG d   1      -0.853  92.463 118.603  0.00  0.00    -0.047 C 
ATOM      6  C   LIG d   1      -1.926  91.441 118.161  0.00  0.00     0.091 C 
ENDROOT
BRANCH   1   7
ATOM      7  O   LIG d   1      -4.335  91.199 117.780  0.00  0.00    -0.368 OA
BRANCH   7   8
ATOM      8  C   LIG d   1      -5.218  92.027 116.984  0.00  0.00     0.119 C 
BRANCH   8   9
ATOM      9  C   LIG d   1      -6.597  92.025 117.670  0.00  0.00     0.028 C 
ATOM     10  C   LIG d   1      -7.038  93.433 118.105  0.00  0.00     0.006 C 
ENDBRANCH   8   9
BRANCH   8  11
ATOM     11  C   LIG d   1      -5.453  91.419 115.598  0.00  0.00     0.028 C 
ATOM     12  C   LIG d   1      -6.851  90.797 115.450  0.00  0.00     0.006 C 
ENDBRANCH   8  11
ENDBRANCH   7   8
ENDBRANCH   1   7
BRANCH   6  13
ATOM     13  N   LIG d   1      -1.703  90.095 118.750  0.00  0.00    -0.311 N 
ATOM     14  C   LIG d   1      -0.974  89.149 118.161  0.00  0.00     0.210 C 
ATOM     15  C   LIG d   1      -0.889  87.826 118.929  0.00  0.00     0.109 C 
ATOM     16  O   LIG d   1      -0.364  89.290 117.090  0.00  0.00    -0.276 OA
ATOM     17  H   LIG d   1      -2.137  89.906 119.632  0.00  0.00     0.149 HD
ENDBRANCH   6  13
BRANCH   5  18
ATOM     18  N   LIG d   1       0.502  92.117 118.133  0.00  0.00     0.381 N 
ATOM     19  H   LIG d   1       1.014  91.678 118.872  0.00  0.00    -0.090 HD
ATOM     20  H   LIG d   1       0.982  92.962 117.876  0.00  0.00    -0.090 HD
ATOM     21  H   LIG d   1       0.446  91.506 117.349  0.00  0.00    -0.090 HD
ENDBRANCH   5  18
BRANCH   3  22
ATOM     22  C   LIG d   1      -2.796  95.579 118.417  0.00  0.00     0.382 C 
ATOM     23  O   LIG d   1      -1.943  96.424 118.053  0.00  0.00    -0.241 OA
ATOM     24  O   LIG d   1      -3.864  95.966 118.928  0.00  0.00    -0.241 OA
ENDBRANCH   3  22
TORSDOF 7
ENDMDL
MODEL 8
REMARK VINA RESULT:      -3.6      5.601      8.141
REMARK  7 active torsions:
REMARK  status: ('A' for Active; 'I' for Inactive)
REMARK    1  A    between atoms: C_2  and  C_3 
REMARK    2  A    between atoms: C_3  and  O_6 
REMARK    3  A    between atoms: C_3  and  C_4 
REMARK    4  A    between atoms: C_7  and  O_6 
REMARK    5  A    between atoms: C_9  and  C_10 
REMARK    6  A    between atoms: N_15  and  C_14 
REMARK    7  A    between atoms: N_20  and  C_19 
REMARK       I    between atoms: C_22  and  N_20 
ROOT
ATOM      1  C   LIG d   1      -1.523  92.515 117.569  0.00  0.00     0.161 C 
ATOM      2  C   LIG d   1      -2.889  92.585 117.248  0.00  0.00     0.016 C 
ATOM      3  C   LIG d   1      -3.795  91.520 117.462  0.00  0.00     0.038 C 
ATOM      4  C   LIG d   1      -3.423  90.359 118.156  0.00  0.00     0.028 C 
ATOM      5  C   LIG d   1      -1.936  90.039 118.049  0.00  0.00    -0.047 C 
ATOM      6  C   LIG d   1      -1.123  91.298 118.429  0.00  0.00     0.091 C 
ENDROOT
BRANCH   1   7
ATOM      7  O   LIG d   1      -1.108  93.738 118.208  0.00  0.00    -0.368 OA
BRANCH   7   8
ATOM      8  C   LIG d   1      -1.760  94.949 117.751  0.00  0.00     0.119 C 
BRANCH   8   9
ATOM      9  C   LIG d   1      -0.709  95.783 116.994  0.00  0.00     0.028 C 
ATOM     10  C   LIG d   1      -0.369  95.188 115.617  0.00  0.00     0.006 C 
ENDBRANCH   8   9
BRANCH   8  11
ATOM     11  C   LIG d   1      -2.200  95.823 118.929  0.00  0.00     0.028 C 
ATOM     12  C   LIG d   1      -1.529  97.206 118.928  0.00  0.00     0.006 C 
ENDBRANCH   8  11
ENDBRANCH   7   8
ENDBRANCH   1   7
BRANCH   6  13
ATOM     13  N   LIG d   1       0.341  91.096 118.269  0.00  0.00    -0.311 N 
ATOM     14  C   LIG d   1       0.872  90.218 117.421  0.00  0.00     0.210 C 
ATOM     15  C   LIG d   1       2.402  90.155 117.428  0.00  0.00     0.109 C 
ATOM     16  O   LIG d   1       0.222  89.507 116.640  0.00  0.00    -0.276 OA
ATOM     17  H   LIG d   1       0.943  91.655 118.842  0.00  0.00     0.149 HD
ENDBRANCH   6  13
BRANCH   5  18
ATOM     18  N   LIG d   1      -1.663  88.887 118.929  0.00  0.00     0.381 N 
ATOM     19  H   LIG d   1      -2.333  88.863 119.672  0.00  0.00    -0.090 HD
ATOM     20  H   LIG d   1      -0.749  88.995 119.331  0.00  0.00    -0.090 HD
ATOM     21  H   LIG d   1      -1.707  88.040 118.406  0.00  0.00    -0.090 HD
ENDBRANCH   5  18
BRANCH   3  22
ATOM     22  C   LIG d   1      -5.079  91.595 116.944  0.00  0.00     0.382 C 
ATOM     23  O   LIG d   1      -5.854  92.507 117.319  0.00  0.00    -0.241 OA
ATOM     24  O   LIG d   1      -5.486  90.737 116.138  0.00  0.00    -0.241 OA
ENDBRANCH   3  22
TORSDOF 7
ENDMDL
MODEL 9
REMARK VINA RESULT:      -3.4      6.444      9.496
REMARK  7 active torsions:
REMARK  status: ('A' for Active; 'I' for Inactive)
REMARK    1  A    between atoms: C_2  and  C_3 
REMARK    2  A    between atoms: C_3  and  O_6 
REMARK    3  A    between atoms: C_3  and  C_4 
REMARK    4  A    between atoms: C_7  and  O_6 
REMARK    5  A    between atoms: C_9  and  C_10 
REMARK    6  A    between atoms: N_15  and  C_14 
REMARK    7  A    between atoms: N_20  and  C_19 
REMARK       I    between atoms: C_22  and  N_20 
ROOT
ATOM      1  C   LIG d   1      -2.562  93.038 118.684  0.00  0.00     0.161 C 
ATOM      2  C   LIG d   1      -1.353  92.376 118.412  0.00  0.00     0.016 C 
ATOM      3  C   LIG d   1      -1.255  91.254 117.558  0.00  0.00     0.038 C 
ATOM      4  C   LIG d   1      -2.344  90.806 116.795  0.00  0.00     0.028 C 
ATOM      5  C   LIG d   1      -3.696  91.128 117.421  0.00  0.00    -0.047 C 
ATOM      6  C   LIG d   1      -3.740  92.632 117.774  0.00  0.00     0.091 C 
ENDROOT
BRANCH   1   7
ATOM      7  O   LIG d   1      -2.360  94.464 118.637  0.00  0.00    -0.368 OA
BRANCH   7   8
ATOM      8  C   LIG d   1      -1.103  94.912 118.072  0.00  0.00     0.119 C 
BRANCH   8   9
ATOM      9  C   LIG d   1      -0.605  96.092 118.928  0.00  0.00     0.028 C 
ATOM     10  C   LIG d   1      -0.655  97.429 118.170  0.00  0.00     0.006 C 
ENDBRANCH   8   9
BRANCH   8  11
ATOM     11  C   LIG d   1      -1.297  95.484 116.665  0.00  0.00     0.028 C 
ATOM     12  C   LIG d   1      -0.306  94.904 115.643  0.00  0.00     0.006 C 
ENDBRANCH   8  11
ENDBRANCH   7   8
ENDBRANCH   1   7
BRANCH   6  13
ATOM     13  N   LIG d   1      -4.997  93.015 118.469  0.00  0.00    -0.311 N 
ATOM     14  C   LIG d   1      -6.157  93.196 117.839  0.00  0.00     0.210 C 
ATOM     15  C   LIG d   1      -7.325  93.608 118.741  0.00  0.00     0.109 C 
ATOM     16  O   LIG d   1      -6.337  93.023 116.624  0.00  0.00    -0.276 OA
ATOM     17  H   LIG d   1      -4.949  93.146 119.460  0.00  0.00     0.149 HD
ENDBRANCH   6  13
BRANCH   5  18
ATOM     18  N   LIG d   1      -4.740  90.730 116.458  0.00  0.00     0.381 N 
ATOM     19  H   LIG d   1      -4.418  90.888 115.524  0.00  0.00    -0.090 HD
ATOM     20  H   LIG d   1      -5.556  91.296 116.610  0.00  0.00    -0.090 HD
ATOM     21  H   LIG d   1      -4.967  89.767 116.580  0.00  0.00    -0.090 HD
ENDBRANCH   5  18
BRANCH   3  22
ATOM     22  C   LIG d   1      -0.067  90.542 117.492  0.00  0.00     0.382 C 
ATOM     23  O   LIG d   1       0.885  90.840 118.252  0.00  0.00    -0.241 OA
ATOM     24  O   LIG d   1       0.079  89.634 116.651  0.00  0.00    -0.241 OA
ENDBRANCH   3  22
TORSDOF 7
ENDMDL
