MODEL 1
REMARK VINA RESULT:      -6.0      0.000      0.000
REMARK  7 active torsions:
REMARK  status: ('A' for Active; 'I' for Inactive)
REMARK    1  A    between atoms: C_2  and  C_3 
REMARK    2  A    between atoms: C_3  and  O_6 
REMARK    3  A    between atoms: C_3  and  C_4 
REMARK    4  A    between atoms: C_7  and  O_6 
REMARK    5  A    between atoms: C_9  and  C_10 
REMARK    6  A    between atoms: N_15  and  C_14 
REMARK    7  A    between atoms: N_20  and  C_19 
REMARK       I    between atoms: C_22  and  N_20 
ROOT
ATOM      1  C   LIG d   1       1.611  88.472 115.533  0.00  0.00     0.161 C 
ATOM      2  C   LIG d   1       0.352  88.622 116.138  0.00  0.00     0.016 C 
ATOM      3  C   LIG d   1       0.023  89.697 116.994  0.00  0.00     0.038 C 
ATOM      4  C   LIG d   1       0.889  90.784 117.185  0.00  0.00     0.028 C 
ATOM      5  C   LIG d   1       2.359  90.428 116.997  0.00  0.00    -0.047 C 
ATOM      6  C   LIG d   1       2.531  89.706 115.641  0.00  0.00     0.091 C 
ENDROOT
BRANCH   1   7
ATOM      7  O   LIG d   1       1.448  88.088 114.153  0.00  0.00    -0.368 OA
BRANCH   7   8
ATOM      8  C   LIG d   1       2.115  86.867 113.748  0.00  0.00     0.119 C 
BRANCH   8   9
ATOM      9  C   LIG d   1       2.523  87.031 112.271  0.00  0.00     0.028 C 
ATOM     10  C   LIG d   1       3.912  86.440 111.977  0.00  0.00     0.006 C 
ENDBRANCH   8   9
BRANCH   8  11
ATOM     11  C   LIG d   1       1.156  85.673 113.774  0.00  0.00     0.028 C 
ATOM     12  C   LIG d   1      -0.215  85.997 113.161  0.00  0.00     0.006 C 
ENDBRANCH   8  11
ENDBRANCH   7   8
ENDBRANCH   1   7
BRANCH   6  13
ATOM     13  N   LIG d   1       3.927  89.247 115.416  0.00  0.00    -0.311 N 
ATOM     14  C   LIG d   1       4.613  89.506 114.305  0.00  0.00     0.210 C 
ATOM     15  C   LIG d   1       6.029  88.923 114.268  0.00  0.00     0.109 C 
ATOM     16  O   LIG d   1       4.195  90.191 113.359  0.00  0.00    -0.276 OA
ATOM     17  H   LIG d   1       4.354  88.711 116.146  0.00  0.00     0.149 HD
ENDBRANCH   6  13
BRANCH   5  18
ATOM     18  N   LIG d   1       3.137  91.678 117.089  0.00  0.00     0.381 N 
ATOM     19  H   LIG d   1       2.664  92.327 117.686  0.00  0.00    -0.090 HD
ATOM     20  H   LIG d   1       3.206  92.085 116.173  0.00  0.00    -0.090 HD
ATOM     21  H   LIG d   1       4.047  91.488 117.446  0.00  0.00    -0.090 HD
ENDBRANCH   5  18
BRANCH   3  22
ATOM     22  C   LIG d   1      -1.169  89.672 117.702  0.00  0.00     0.382 C 
ATOM     23  O   LIG d   1      -1.177  89.945 118.926  0.00  0.00    -0.241 OA
ATOM     24  O   LIG d   1      -2.230  89.337 117.141  0.00  0.00    -0.241 OA
ENDBRANCH   3  22
TORSDOF 7
ENDMDL
MODEL 2
REMARK VINA RESULT:      -5.5      0.724      1.674
REMARK  7 active torsions:
REMARK  status: ('A' for Active; 'I' for Inactive)
REMARK    1  A    between atoms: C_2  and  C_3 
REMARK    2  A    between atoms: C_3  and  O_6 
REMARK    3  A    between atoms: C_3  and  C_4 
REMARK    4  A    between atoms: C_7  and  O_6 
REMARK    5  A    between atoms: C_9  and  C_10 
REMARK    6  A    between atoms: N_15  and  C_14 
REMARK    7  A    between atoms: N_20  and  C_19 
REMARK       I    between atoms: C_22  and  N_20 
ROOT
ATOM      1  C   LIG d   1       1.668  88.736 115.657  0.00  0.00     0.161 C 
ATOM      2  C   LIG d   1       0.379  88.806 116.211  0.00  0.00     0.016 C 
ATOM      3  C   LIG d   1      -0.042  89.843 117.075  0.00  0.00     0.038 C 
ATOM      4  C   LIG d   1       0.755  90.969 117.324  0.00  0.00     0.028 C 
ATOM      5  C   LIG d   1       2.249  90.695 117.191  0.00  0.00    -0.047 C 
ATOM      6  C   LIG d   1       2.515  90.014 115.829  0.00  0.00     0.091 C 
ENDROOT
BRANCH   1   7
ATOM      7  O   LIG d   1       1.582  88.375 114.264  0.00  0.00    -0.368 OA
BRANCH   7   8
ATOM      8  C   LIG d   1       1.899  86.999 113.942  0.00  0.00     0.119 C 
BRANCH   8   9
ATOM      9  C   LIG d   1       3.137  86.603 114.769  0.00  0.00     0.028 C 
ATOM     10  C   LIG d   1       2.854  85.431 115.724  0.00  0.00     0.006 C 
ENDBRANCH   8   9
BRANCH   8  11
ATOM     11  C   LIG d   1       2.326  86.853 112.478  0.00  0.00     0.028 C 
ATOM     12  C   LIG d   1       3.849  86.740 112.310  0.00  0.00     0.006 C 
ENDBRANCH   8  11
ENDBRANCH   7   8
ENDBRANCH   1   7
BRANCH   6  13
ATOM     13  N   LIG d   1       3.941  89.636 115.653  0.00  0.00    -0.311 N 
ATOM     14  C   LIG d   1       4.600  89.773 114.504  0.00  0.00     0.210 C 
ATOM     15  C   LIG d   1       6.058  89.302 114.534  0.00  0.00     0.109 C 
ATOM     16  O   LIG d   1       4.125  90.270 113.471  0.00  0.00    -0.276 OA
ATOM     17  H   LIG d   1       4.413  89.253 116.449  0.00  0.00     0.149 HD
ENDBRANCH   6  13
BRANCH   5  18
ATOM     18  N   LIG d   1       2.954  91.983 117.341  0.00  0.00     0.381 N 
ATOM     19  H   LIG d   1       2.703  92.596 116.591  0.00  0.00    -0.090 HD
ATOM     20  H   LIG d   1       3.944  91.819 117.296  0.00  0.00    -0.090 HD
ATOM     21  H   LIG d   1       2.718  92.401 118.214  0.00  0.00    -0.090 HD
ENDBRANCH   5  18
BRANCH   3  22
ATOM     22  C   LIG d   1      -1.259  89.739 117.731  0.00  0.00     0.382 C 
ATOM     23  O   LIG d   1      -2.279  89.360 117.105  0.00  0.00    -0.241 OA
ATOM     24  O   LIG d   1      -1.360  90.062 118.930  0.00  0.00    -0.241 OA
ENDBRANCH   3  22
TORSDOF 7
ENDMDL
MODEL 3
REMARK VINA RESULT:      -5.0      1.385      1.556
REMARK  7 active torsions:
REMARK  status: ('A' for Active; 'I' for Inactive)
REMARK    1  A    between atoms: C_2  and  C_3 
REMARK    2  A    between atoms: C_3  and  O_6 
REMARK    3  A    between atoms: C_3  and  C_4 
REMARK    4  A    between atoms: C_7  and  O_6 
REMARK    5  A    between atoms: C_9  and  C_10 
REMARK    6  A    between atoms: N_15  and  C_14 
REMARK    7  A    between atoms: N_20  and  C_19 
REMARK       I    between atoms: C_22  and  N_20 
ROOT
ATOM      1  C   LIG d   1       1.465  88.896 116.088  0.00  0.00     0.161 C 
ATOM      2  C   LIG d   1       0.107  89.131 116.356  0.00  0.00     0.016 C 
ATOM      3  C   LIG d   1      -0.349  90.119 117.259  0.00  0.00     0.038 C 
ATOM      4  C   LIG d   1       0.524  91.047 117.845  0.00  0.00     0.028 C 
ATOM      5  C   LIG d   1       1.950  90.526 117.995  0.00  0.00    -0.047 C 
ATOM      6  C   LIG d   1       2.427  89.972 116.633  0.00  0.00     0.091 C 
ENDROOT
BRANCH   1   7
ATOM      7  O   LIG d   1       1.661  88.722 114.671  0.00  0.00    -0.368 OA
BRANCH   7   8
ATOM      8  C   LIG d   1       2.135  87.419 114.248  0.00  0.00     0.119 C 
BRANCH   8   9
ATOM      9  C   LIG d   1       2.999  87.627 112.989  0.00  0.00     0.028 C 
ATOM     10  C   LIG d   1       4.449  88.012 113.330  0.00  0.00     0.006 C 
ENDBRANCH   8   9
BRANCH   8  11
ATOM     11  C   LIG d   1       0.977  86.522 113.801  0.00  0.00     0.028 C 
ATOM     12  C   LIG d   1       1.240  85.838 112.451  0.00  0.00     0.006 C 
ENDBRANCH   8  11
ENDBRANCH   7   8
ENDBRANCH   1   7
BRANCH   6  13
ATOM     13  N   LIG d   1       3.782  89.366 116.712  0.00  0.00    -0.311 N 
ATOM     14  C   LIG d   1       4.902  90.038 116.450  0.00  0.00     0.210 C 
ATOM     15  C   LIG d   1       6.191  89.219 116.571  0.00  0.00     0.109 C 
ATOM     16  O   LIG d   1       4.953  91.243 116.160  0.00  0.00    -0.276 OA
ATOM     17  H   LIG d   1       3.836  88.401 116.970  0.00  0.00     0.149 HD
ENDBRANCH   6  13
BRANCH   5  18
ATOM     18  N   LIG d   1       2.781  91.640 118.490  0.00  0.00     0.381 N 
ATOM     19  H   LIG d   1       2.292  92.505 118.374  0.00  0.00    -0.090 HD
ATOM     20  H   LIG d   1       3.627  91.680 117.948  0.00  0.00    -0.090 HD
ATOM     21  H   LIG d   1       3.000  91.500 119.452  0.00  0.00    -0.090 HD
ENDBRANCH   5  18
BRANCH   3  22
ATOM     22  C   LIG d   1      -1.689  90.160 117.614  0.00  0.00     0.382 C 
ATOM     23  O   LIG d   1      -2.483  89.297 117.167  0.00  0.00    -0.241 OA
ATOM     24  O   LIG d   1      -2.122  91.073 118.341  0.00  0.00    -0.241 OA
ENDBRANCH   3  22
TORSDOF 7
ENDMDL
MODEL 4
REMARK VINA RESULT:      -5.0      2.219      5.284
REMARK  7 active torsions:
REMARK  status: ('A' for Active; 'I' for Inactive)
REMARK    1  A    between atoms: C_2  and  C_3 
REMARK    2  A    between atoms: C_3  and  O_6 
REMARK    3  A    between atoms: C_3  and  C_4 
REMARK    4  A    between atoms: C_7  and  O_6 
REMARK    5  A    between atoms: C_9  and  C_10 
REMARK    6  A    between atoms: N_15  and  C_14 
REMARK    7  A    between atoms: N_20  and  C_19 
REMARK       I    between atoms: C_22  and  N_20 
ROOT
ATOM      1  C   LIG d   1       2.891  89.232 115.696  0.00  0.00     0.161 C 
ATOM      2  C   LIG d   1       2.191  88.458 114.755  0.00  0.00     0.016 C 
ATOM      3  C   LIG d   1       2.798  87.876 113.619  0.00  0.00     0.038 C 
ATOM      4  C   LIG d   1       4.187  87.904 113.425  0.00  0.00     0.028 C 
ATOM      5  C   LIG d   1       4.867  89.101 114.081  0.00  0.00    -0.047 C 
ATOM      6  C   LIG d   1       4.427  89.180 115.561  0.00  0.00     0.091 C 
ENDROOT
BRANCH   1   7
ATOM      7  O   LIG d   1       2.492  88.859 117.030  0.00  0.00    -0.368 OA
BRANCH   7   8
ATOM      8  C   LIG d   1       1.916  89.912 117.840  0.00  0.00     0.119 C 
BRANCH   8   9
ATOM      9  C   LIG d   1       0.516  89.442 118.283  0.00  0.00     0.028 C 
ATOM     10  C   LIG d   1      -0.493  89.430 117.123  0.00  0.00     0.006 C 
ENDBRANCH   8   9
BRANCH   8  11
ATOM     11  C   LIG d   1       1.676  91.181 117.017  0.00  0.00     0.028 C 
ATOM     12  C   LIG d   1       1.280  92.387 117.883  0.00  0.00     0.006 C 
ENDBRANCH   8  11
ENDBRANCH   7   8
ENDBRANCH   1   7
BRANCH   6  13
ATOM     13  N   LIG d   1       4.980  90.372 116.254  0.00  0.00    -0.311 N 
ATOM     14  C   LIG d   1       6.146  90.371 116.898  0.00  0.00     0.210 C 
ATOM     15  C   LIG d   1       6.520  91.700 117.561  0.00  0.00     0.109 C 
ATOM     16  O   LIG d   1       6.920  89.404 116.957  0.00  0.00    -0.276 OA
ATOM     17  H   LIG d   1       4.431  91.209 116.230  0.00  0.00     0.149 HD
ENDBRANCH   6  13
BRANCH   5  18
ATOM     18  N   LIG d   1       6.323  88.931 113.919  0.00  0.00     0.381 N 
ATOM     19  H   LIG d   1       6.531  88.672 112.975  0.00  0.00    -0.090 HD
ATOM     20  H   LIG d   1       6.634  88.192 114.525  0.00  0.00    -0.090 HD
ATOM     21  H   LIG d   1       6.793  89.779 114.150  0.00  0.00    -0.090 HD
ENDBRANCH   5  18
BRANCH   3  22
ATOM     22  C   LIG d   1       2.008  87.292 112.640  0.00  0.00     0.382 C 
ATOM     23  O   LIG d   1       2.171  87.602 111.436  0.00  0.00    -0.241 OA
ATOM     24  O   LIG d   1       1.105  86.493 112.951  0.00  0.00    -0.241 OA
ENDBRANCH   3  22
TORSDOF 7
ENDMDL
MODEL 5
REMARK VINA RESULT:      -5.0      2.542      5.633
REMARK  7 active torsions:
REMARK  status: ('A' for Active; 'I' for Inactive)
REMARK    1  A    between atoms: C_2  and  C_3 
REMARK    2  A    between atoms: C_3  and  O_6 
REMARK    3  A    between atoms: C_3  and  C_4 
REMARK    4  A    between atoms: C_7  and  O_6 
REMARK    5  A    between atoms: C_9  and  C_10 
REMARK    6  A    between atoms: N_15  and  C_14 
REMARK    7  A    between atoms: N_20  and  C_19 
REMARK       I    between atoms: C_22  and  N_20 
ROOT
ATOM      1  C   LIG d   1       3.105  89.689 116.655  0.00  0.00     0.161 C 
ATOM      2  C   LIG d   1       4.012  90.541 117.306  0.00  0.00     0.016 C 
ATOM      3  C   LIG d   1       5.336  90.754 116.861  0.00  0.00     0.038 C 
ATOM      4  C   LIG d   1       5.800  90.242 115.639  0.00  0.00     0.028 C 
ATOM      5  C   LIG d   1       5.082  88.968 115.206  0.00  0.00    -0.047 C 
ATOM      6  C   LIG d   1       3.556  89.208 115.259  0.00  0.00     0.091 C 
ENDROOT
BRANCH   1   7
ATOM      7  O   LIG d   1       1.812  90.321 116.572  0.00  0.00    -0.368 OA
BRANCH   7   8
ATOM      8  C   LIG d   1       0.839  89.913 117.565  0.00  0.00     0.119 C 
BRANCH   8   9
ATOM      9  C   LIG d   1      -0.374  89.333 116.812  0.00  0.00     0.028 C 
ATOM     10  C   LIG d   1      -1.705  89.633 117.523  0.00  0.00     0.006 C 
ENDBRANCH   8   9
BRANCH   8  11
ATOM     11  C   LIG d   1       0.296  91.117 118.341  0.00  0.00     0.028 C 
ATOM     12  C   LIG d   1       0.759  92.461 117.756  0.00  0.00     0.006 C 
ENDBRANCH   8  11
ENDBRANCH   7   8
ENDBRANCH   1   7
BRANCH   6  13
ATOM     13  N   LIG d   1       2.778  87.986 114.931  0.00  0.00    -0.311 N 
ATOM     14  C   LIG d   1       2.323  87.713 113.709  0.00  0.00     0.210 C 
ATOM     15  C   LIG d   1       1.526  86.409 113.593  0.00  0.00     0.109 C 
ATOM     16  O   LIG d   1       2.530  88.410 112.705  0.00  0.00    -0.276 OA
ATOM     17  H   LIG d   1       2.591  87.349 115.681  0.00  0.00     0.149 HD
ENDBRANCH   6  13
BRANCH   5  18
ATOM     18  N   LIG d   1       5.566  88.622 113.856  0.00  0.00     0.381 N 
ATOM     19  H   LIG d   1       4.951  87.953 113.437  0.00  0.00    -0.090 HD
ATOM     20  H   LIG d   1       6.478  88.206 113.934  0.00  0.00    -0.090 HD
ATOM     21  H   LIG d   1       5.614  89.441 113.290  0.00  0.00    -0.090 HD
ENDBRANCH   5  18
BRANCH   3  22
ATOM     22  C   LIG d   1       6.226  91.455 117.661  0.00  0.00     0.382 C 
ATOM     23  O   LIG d   1       7.456  91.416 117.414  0.00  0.00    -0.241 OA
ATOM     24  O   LIG d   1       5.819  92.088 118.653  0.00  0.00    -0.241 OA
ENDBRANCH   3  22
TORSDOF 7
ENDMDL
MODEL 6
REMARK VINA RESULT:      -4.9      2.011      5.390
REMARK  7 active torsions:
REMARK  status: ('A' for Active; 'I' for Inactive)
REMARK    1  A    between atoms: C_2  and  C_3 
REMARK    2  A    between atoms: C_3  and  O_6 
REMARK    3  A    between atoms: C_3  and  C_4 
REMARK    4  A    between atoms: C_7  and  O_6 
REMARK    5  A    between atoms: C_9  and  C_10 
REMARK    6  A    between atoms: N_15  and  C_14 
REMARK    7  A    between atoms: N_20  and  C_19 
REMARK       I    between atoms: C_22  and  N_20 
ROOT
ATOM      1  C   LIG d   1       2.117  89.781 116.958  0.00  0.00     0.161 C 
ATOM      2  C   LIG d   1       1.722  89.083 115.805  0.00  0.00     0.016 C 
ATOM      3  C   LIG d   1       2.632  88.449 114.928  0.00  0.00     0.038 C 
ATOM      4  C   LIG d   1       3.998  88.342 115.229  0.00  0.00     0.028 C 
ATOM      5  C   LIG d   1       4.511  89.465 116.124  0.00  0.00    -0.047 C 
ATOM      6  C   LIG d   1       3.592  89.580 117.362  0.00  0.00     0.091 C 
ENDROOT
BRANCH   1   7
ATOM      7  O   LIG d   1       1.246  89.443 118.056  0.00  0.00    -0.368 OA
BRANCH   7   8
ATOM      8  C   LIG d   1       0.396  90.508 118.546  0.00  0.00     0.119 C 
BRANCH   8   9
ATOM      9  C   LIG d   1      -1.021  89.927 118.719  0.00  0.00     0.028 C 
ATOM     10  C   LIG d   1      -1.668  89.549 117.376  0.00  0.00     0.006 C 
ENDBRANCH   8   9
BRANCH   8  11
ATOM     11  C   LIG d   1       0.251  91.627 117.511  0.00  0.00     0.028 C 
ATOM     12  C   LIG d   1       0.164  93.023 118.150  0.00  0.00     0.006 C 
ENDBRANCH   8  11
ENDBRANCH   7   8
ENDBRANCH   1   7
BRANCH   6  13
ATOM     13  N   LIG d   1       3.974  90.710 118.249  0.00  0.00    -0.311 N 
ATOM     14  C   LIG d   1       3.939  91.985 117.867  0.00  0.00     0.210 C 
ATOM     15  C   LIG d   1       4.392  92.991 118.929  0.00  0.00     0.109 C 
ATOM     16  O   LIG d   1       3.545  92.382 116.759  0.00  0.00    -0.276 OA
ATOM     17  H   LIG d   1       4.276  90.481 119.175  0.00  0.00     0.149 HD
ENDBRANCH   6  13
BRANCH   5  18
ATOM     18  N   LIG d   1       5.911  89.155 116.471  0.00  0.00     0.381 N 
ATOM     19  H   LIG d   1       6.031  88.164 116.540  0.00  0.00    -0.090 HD
ATOM     20  H   LIG d   1       6.123  89.562 117.364  0.00  0.00    -0.090 HD
ATOM     21  H   LIG d   1       6.524  89.522 115.776  0.00  0.00    -0.090 HD
ENDBRANCH   5  18
BRANCH   3  22
ATOM     22  C   LIG d   1       2.184  87.949 113.715  0.00  0.00     0.382 C 
ATOM     23  O   LIG d   1       1.396  86.973 113.692  0.00  0.00    -0.241 OA
ATOM     24  O   LIG d   1       2.592  88.433 112.643  0.00  0.00    -0.241 OA
ENDBRANCH   3  22
TORSDOF 7
ENDMDL
MODEL 7
REMARK VINA RESULT:      -4.9      2.765      5.208
REMARK  7 active torsions:
REMARK  status: ('A' for Active; 'I' for Inactive)
REMARK    1  A    between atoms: C_2  and  C_3 
REMARK    2  A    between atoms: C_3  and  O_6 
REMARK    3  A    between atoms: C_3  and  C_4 
REMARK    4  A    between atoms: C_7  and  O_6 
REMARK    5  A    between atoms: C_9  and  C_10 
REMARK    6  A    between atoms: N_15  and  C_14 
REMARK    7  A    between atoms: N_20  and  C_19 
REMARK       I    between atoms: C_22  and  N_20 
ROOT
ATOM      1  C   LIG d   1       3.686  88.615 117.049  0.00  0.00     0.161 C 
ATOM      2  C   LIG d   1       4.381  89.458 117.933  0.00  0.00     0.016 C 
ATOM      3  C   LIG d   1       5.357  90.390 117.513  0.00  0.00     0.038 C 
ATOM      4  C   LIG d   1       5.599  90.652 116.156  0.00  0.00     0.028 C 
ATOM      5  C   LIG d   1       5.284  89.469 115.247  0.00  0.00    -0.047 C 
ATOM      6  C   LIG d   1       3.856  88.964 115.556  0.00  0.00     0.091 C 
ENDROOT
BRANCH   1   7
ATOM      7  O   LIG d   1       2.289  88.584 117.401  0.00  0.00    -0.368 OA
BRANCH   7   8
ATOM      8  C   LIG d   1       1.468  89.639 116.843  0.00  0.00     0.119 C 
BRANCH   8   9
ATOM      9  C   LIG d   1       1.102  90.598 117.992  0.00  0.00     0.028 C 
ATOM     10  C   LIG d   1       1.652  92.017 117.770  0.00  0.00     0.006 C 
ENDBRANCH   8   9
BRANCH   8  11
ATOM     11  C   LIG d   1       0.132  89.093 116.330  0.00  0.00     0.028 C 
ATOM     12  C   LIG d   1      -1.052  89.467 117.237  0.00  0.00     0.006 C 
ENDBRANCH   8  11
ENDBRANCH   7   8
ENDBRANCH   1   7
BRANCH   6  13
ATOM     13  N   LIG d   1       3.500  87.755 114.768  0.00  0.00    -0.311 N 
ATOM     14  C   LIG d   1       2.890  87.804 113.585  0.00  0.00     0.210 C 
ATOM     15  C   LIG d   1       2.596  86.440 112.952  0.00  0.00     0.109 C 
ATOM     16  O   LIG d   1       2.594  88.848 112.985  0.00  0.00    -0.276 OA
ATOM     17  H   LIG d   1       3.731  86.866 115.167  0.00  0.00     0.149 HD
ENDBRANCH   6  13
BRANCH   5  18
ATOM     18  N   LIG d   1       5.448  89.922 113.853  0.00  0.00     0.381 N 
ATOM     19  H   LIG d   1       6.127  90.656 113.813  0.00  0.00    -0.090 HD
ATOM     20  H   LIG d   1       4.571  90.286 113.524  0.00  0.00    -0.090 HD
ATOM     21  H   LIG d   1       5.737  89.161 113.278  0.00  0.00    -0.090 HD
ENDBRANCH   5  18
BRANCH   3  22
ATOM     22  C   LIG d   1       6.133  91.045 118.458  0.00  0.00     0.382 C 
ATOM     23  O   LIG d   1       7.162  90.492 118.916  0.00  0.00    -0.241 OA
ATOM     24  O   LIG d   1       5.793  92.162 118.891  0.00  0.00    -0.241 OA
ENDBRANCH   3  22
TORSDOF 7
ENDMDL
MODEL 8
REMARK VINA RESULT:      -4.5      2.310      5.046
REMARK  7 active torsions:
REMARK  status: ('A' for Active; 'I' for Inactive)
REMARK    1  A    between atoms: C_2  and  C_3 
REMARK    2  A    between atoms: C_3  and  O_6 
REMARK    3  A    between atoms: C_3  and  C_4 
REMARK    4  A    between atoms: C_7  and  O_6 
REMARK    5  A    between atoms: C_9  and  C_10 
REMARK    6  A    between atoms: N_15  and  C_14 
REMARK    7  A    between atoms: N_20  and  C_19 
REMARK       I    between atoms: C_22  and  N_20 
ROOT
ATOM      1  C   LIG d   1       2.210  87.363 114.712  0.00  0.00     0.161 C 
ATOM      2  C   LIG d   1       0.925  86.923 114.351  0.00  0.00     0.016 C 
ATOM      3  C   LIG d   1       0.669  86.117 113.217  0.00  0.00     0.038 C 
ATOM      4  C   LIG d   1       1.706  85.569 112.448  0.00  0.00     0.028 C 
ATOM      5  C   LIG d   1       2.986  86.397 112.477  0.00  0.00    -0.047 C 
ATOM      6  C   LIG d   1       3.365  86.683 113.948  0.00  0.00     0.091 C 
ENDROOT
BRANCH   1   7
ATOM      7  O   LIG d   1       2.394  87.216 116.134  0.00  0.00    -0.368 OA
BRANCH   7   8
ATOM      8  C   LIG d   1       2.208  88.414 116.928  0.00  0.00     0.119 C 
BRANCH   8   9
ATOM      9  C   LIG d   1       1.349  89.389 116.100  0.00  0.00     0.028 C 
ATOM     10  C   LIG d   1      -0.042  89.615 116.715  0.00  0.00     0.006 C 
ENDBRANCH   8   9
BRANCH   8  11
ATOM     11  C   LIG d   1       3.535  89.140 117.161  0.00  0.00     0.028 C 
ATOM     12  C   LIG d   1       3.473  90.630 116.788  0.00  0.00     0.006 C 
ENDBRANCH   8  11
ENDBRANCH   7   8
ENDBRANCH   1   7
BRANCH   6  13
ATOM     13  N   LIG d   1       4.559  87.559 114.066  0.00  0.00    -0.311 N 
ATOM     14  C   LIG d   1       4.558  88.849 113.734  0.00  0.00     0.210 C 
ATOM     15  C   LIG d   1       5.900  89.565 113.914  0.00  0.00     0.109 C 
ATOM     16  O   LIG d   1       3.563  89.476 113.339  0.00  0.00    -0.276 OA
ATOM     17  H   LIG d   1       5.401  87.139 114.408  0.00  0.00     0.149 HD
ENDBRANCH   6  13
BRANCH   5  18
ATOM     18  N   LIG d   1       4.022  85.642 111.749  0.00  0.00     0.381 N 
ATOM     19  H   LIG d   1       3.877  84.660 111.874  0.00  0.00    -0.090 HD
ATOM     20  H   LIG d   1       4.923  85.878 112.127  0.00  0.00    -0.090 HD
ATOM     21  H   LIG d   1       3.992  85.869 110.779  0.00  0.00    -0.090 HD
ENDBRANCH   5  18
BRANCH   3  22
ATOM     22  C   LIG d   1      -0.639  85.886 112.820  0.00  0.00     0.382 C 
ATOM     23  O   LIG d   1      -0.876  85.432 111.675  0.00  0.00    -0.241 OA
ATOM     24  O   LIG d   1      -1.588  86.169 113.576  0.00  0.00    -0.241 OA
ENDBRANCH   3  22
TORSDOF 7
ENDMDL
MODEL 9
REMARK VINA RESULT:      -4.4      2.660      3.735
REMARK  7 active torsions:
REMARK  status: ('A' for Active; 'I' for Inactive)
REMARK    1  A    between atoms: C_2  and  C_3 
REMARK    2  A    between atoms: C_3  and  O_6 
REMARK    3  A    between atoms: C_3  and  C_4 
REMARK    4  A    between atoms: C_7  and  O_6 
REMARK    5  A    between atoms: C_9  and  C_10 
REMARK    6  A    between atoms: N_15  and  C_14 
REMARK    7  A    between atoms: N_20  and  C_19 
REMARK       I    between atoms: C_22  and  N_20 
ROOT
ATOM      1  C   LIG d   1       3.635  89.469 117.194  0.00  0.00     0.161 C 
ATOM      2  C   LIG d   1       2.357  90.029 117.037  0.00  0.00     0.016 C 
ATOM      3  C   LIG d   1       2.043  91.362 117.388  0.00  0.00     0.038 C 
ATOM      4  C   LIG d   1       3.030  92.277 117.782  0.00  0.00     0.028 C 
ATOM      5  C   LIG d   1       4.241  91.618 118.436  0.00  0.00    -0.047 C 
ATOM      6  C   LIG d   1       4.751  90.484 117.518  0.00  0.00     0.091 C 
ENDROOT
BRANCH   1   7
ATOM      7  O   LIG d   1       3.980  88.702 116.023  0.00  0.00    -0.368 OA
BRANCH   7   8
ATOM      8  C   LIG d   1       3.573  89.264 114.751  0.00  0.00     0.119 C 
BRANCH   8   9
ATOM      9  C   LIG d   1       3.097  88.099 113.862  0.00  0.00     0.028 C 
ATOM     10  C   LIG d   1       1.898  87.350 114.467  0.00  0.00     0.006 C 
ENDBRANCH   8   9
BRANCH   8  11
ATOM     11  C   LIG d   1       4.762  89.881 114.008  0.00  0.00     0.028 C 
ATOM     12  C   LIG d   1       5.905  88.881 113.778  0.00  0.00     0.006 C 
ENDBRANCH   8  11
ENDBRANCH   7   8
ENDBRANCH   1   7
BRANCH   6  13
ATOM     13  N   LIG d   1       5.882  89.732 118.122  0.00  0.00    -0.311 N 
ATOM     14  C   LIG d   1       7.161  90.042 117.916  0.00  0.00     0.210 C 
ATOM     15  C   LIG d   1       8.169  89.126 118.617  0.00  0.00     0.109 C 
ATOM     16  O   LIG d   1       7.556  91.008 117.246  0.00  0.00    -0.276 OA
ATOM     17  H   LIG d   1       5.652  88.952 118.705  0.00  0.00     0.149 HD
ENDBRANCH   6  13
BRANCH   5  18
ATOM     18  N   LIG d   1       5.248  92.670 118.671  0.00  0.00     0.381 N 
ATOM     19  H   LIG d   1       5.827  92.417 119.446  0.00  0.00    -0.090 HD
ATOM     20  H   LIG d   1       4.776  93.528 118.896  0.00  0.00    -0.090 HD
ATOM     21  H   LIG d   1       5.807  92.794 117.856  0.00  0.00    -0.090 HD
ENDBRANCH   5  18
BRANCH   3  22
ATOM     22  C   LIG d   1       0.721  91.780 117.385  0.00  0.00     0.382 C 
ATOM     23  O   LIG d   1      -0.204  90.935 117.321  0.00  0.00    -0.241 OA
ATOM     24  O   LIG d   1       0.443  92.994 117.401  0.00  0.00    -0.241 OA
ENDBRANCH   3  22
TORSDOF 7
ENDMDL
