MODEL 1
REMARK VINA RESULT:      -4.3      0.000      0.000
REMARK  7 active torsions:
REMARK  status: ('A' for Active; 'I' for Inactive)
REMARK    1  A    between atoms: C_2  and  C_3 
REMARK    2  A    between atoms: C_3  and  O_6 
REMARK    3  A    between atoms: C_3  and  C_4 
REMARK    4  A    between atoms: C_7  and  O_6 
REMARK    5  A    between atoms: C_9  and  C_10 
REMARK    6  A    between atoms: N_15  and  C_14 
REMARK    7  A    between atoms: N_20  and  C_19 
REMARK       I    between atoms: C_22  and  N_20 
ROOT
ATOM      1  C   LIG d   1      -3.329  90.748 118.833  0.00  0.00     0.161 C 
ATOM      2  C   LIG d   1      -3.482  92.144 118.827  0.00  0.00     0.016 C 
ATOM      3  C   LIG d   1      -2.404  93.045 118.664  0.00  0.00     0.038 C 
ATOM      4  C   LIG d   1      -1.112  92.603 118.343  0.00  0.00     0.028 C 
ATOM      5  C   LIG d   1      -0.813  91.192 118.839  0.00  0.00    -0.047 C 
ATOM      6  C   LIG d   1      -1.944  90.247 118.373  0.00  0.00     0.091 C 
ENDROOT
BRANCH   1   7
ATOM      7  O   LIG d   1      -4.370  90.139 118.043  0.00  0.00    -0.368 OA
BRANCH   7   8
ATOM      8  C   LIG d   1      -5.248  91.049 117.335  0.00  0.00     0.119 C 
BRANCH   8   9
ATOM      9  C   LIG d   1      -6.029  91.854 118.392  0.00  0.00     0.028 C 
ATOM     10  C   LIG d   1      -6.945  92.916 117.762  0.00  0.00     0.006 C 
ENDBRANCH   8   9
BRANCH   8  11
ATOM     11  C   LIG d   1      -6.312  90.289 116.538  0.00  0.00     0.028 C 
ATOM     12  C   LIG d   1      -6.207  90.531 115.023  0.00  0.00     0.006 C 
ENDBRANCH   8  11
ENDBRANCH   7   8
ENDBRANCH   1   7
BRANCH   6  13
ATOM     13  N   LIG d   1      -1.773  88.863 118.887  0.00  0.00    -0.311 N 
ATOM     14  C   LIG d   1      -1.106  87.915 118.231  0.00  0.00     0.210 C 
ATOM     15  C   LIG d   1      -1.067  86.552 118.929  0.00  0.00     0.109 C 
ATOM     16  O   LIG d   1      -0.516  88.082 117.153  0.00  0.00    -0.276 OA
ATOM     17  H   LIG d   1      -2.194  88.649 119.770  0.00  0.00     0.149 HD
ENDBRANCH   6  13
BRANCH   5  18
ATOM     18  N   LIG d   1       0.513  90.808 118.318  0.00  0.00     0.381 N 
ATOM     19  H   LIG d   1       0.425  90.005 117.728  0.00  0.00    -0.090 HD
ATOM     20  H   LIG d   1       1.109  90.569 119.091  0.00  0.00    -0.090 HD
ATOM     21  H   LIG d   1       0.910  91.565 117.805  0.00  0.00    -0.090 HD
ENDBRANCH   5  18
BRANCH   3  22
ATOM     22  C   LIG d   1      -2.606  94.402 118.862  0.00  0.00     0.382 C 
ATOM     23  O   LIG d   1      -3.773  94.859 118.930  0.00  0.00    -0.241 OA
ATOM     24  O   LIG d   1      -1.638  95.182 118.929  0.00  0.00    -0.241 OA
ENDBRANCH   3  22
TORSDOF 7
ENDMDL
MODEL 2
REMARK VINA RESULT:      -3.2      1.615      4.862
REMARK  7 active torsions:
REMARK  status: ('A' for Active; 'I' for Inactive)
REMARK    1  A    between atoms: C_2  and  C_3 
REMARK    2  A    between atoms: C_3  and  O_6 
REMARK    3  A    between atoms: C_3  and  C_4 
REMARK    4  A    between atoms: C_7  and  O_6 
REMARK    5  A    between atoms: C_9  and  C_10 
REMARK    6  A    between atoms: N_15  and  C_14 
REMARK    7  A    between atoms: N_20  and  C_19 
REMARK       I    between atoms: C_22  and  N_20 
ROOT
ATOM      1  C   LIG d   1      -2.752  90.011 118.071  0.00  0.00     0.161 C 
ATOM      2  C   LIG d   1      -2.290  88.699 117.875  0.00  0.00     0.016 C 
ATOM      3  C   LIG d   1      -0.926  88.334 117.951  0.00  0.00     0.038 C 
ATOM      4  C   LIG d   1       0.060  89.236 118.379  0.00  0.00     0.028 C 
ATOM      5  C   LIG d   1      -0.290  90.694 118.099  0.00  0.00    -0.047 C 
ATOM      6  C   LIG d   1      -1.704  90.986 118.649  0.00  0.00     0.091 C 
ENDROOT
BRANCH   1   7
ATOM      7  O   LIG d   1      -3.932  89.995 118.898  0.00  0.00    -0.368 OA
BRANCH   7   8
ATOM      8  C   LIG d   1      -5.105  90.642 118.347  0.00  0.00     0.119 C 
BRANCH   8   9
ATOM      9  C   LIG d   1      -4.867  90.824 116.836  0.00  0.00     0.028 C 
ATOM     10  C   LIG d   1      -5.806  89.952 115.985  0.00  0.00     0.006 C 
ENDBRANCH   8   9
BRANCH   8  11
ATOM     11  C   LIG d   1      -5.275  92.058 118.905  0.00  0.00     0.028 C 
ATOM     12  C   LIG d   1      -6.354  92.864 118.165  0.00  0.00     0.006 C 
ENDBRANCH   8  11
ENDBRANCH   7   8
ENDBRANCH   1   7
BRANCH   6  13
ATOM     13  N   LIG d   1      -2.158  92.367 118.342  0.00  0.00    -0.311 N 
ATOM     14  C   LIG d   1      -1.400  93.446 118.529  0.00  0.00     0.210 C 
ATOM     15  C   LIG d   1      -2.068  94.776 118.166  0.00  0.00     0.109 C 
ATOM     16  O   LIG d   1      -0.227  93.425 118.930  0.00  0.00    -0.276 OA
ATOM     17  H   LIG d   1      -3.087  92.473 117.982  0.00  0.00     0.149 HD
ENDBRANCH   6  13
BRANCH   5  18
ATOM     18  N   LIG d   1       0.756  91.530 118.719  0.00  0.00     0.381 N 
ATOM     19  H   LIG d   1       1.116  91.073 119.533  0.00  0.00    -0.090 HD
ATOM     20  H   LIG d   1       0.348  92.404 119.001  0.00  0.00    -0.090 HD
ATOM     21  H   LIG d   1       1.492  91.693 118.068  0.00  0.00    -0.090 HD
ENDBRANCH   5  18
BRANCH   3  22
ATOM     22  C   LIG d   1      -0.531  87.065 117.556  0.00  0.00     0.382 C 
ATOM     23  O   LIG d   1      -0.163  86.862 116.374  0.00  0.00    -0.241 OA
ATOM     24  O   LIG d   1      -0.580  86.111 118.356  0.00  0.00    -0.241 OA
ENDBRANCH   3  22
TORSDOF 7
ENDMDL
MODEL 3
REMARK VINA RESULT:      -2.2      5.466      8.747
REMARK  7 active torsions:
REMARK  status: ('A' for Active; 'I' for Inactive)
REMARK    1  A    between atoms: C_2  and  C_3 
REMARK    2  A    between atoms: C_3  and  O_6 
REMARK    3  A    between atoms: C_3  and  C_4 
REMARK    4  A    between atoms: C_7  and  O_6 
REMARK    5  A    between atoms: C_9  and  C_10 
REMARK    6  A    between atoms: N_15  and  C_14 
REMARK    7  A    between atoms: N_20  and  C_19 
REMARK       I    between atoms: C_22  and  N_20 
ROOT
ATOM      1  C   LIG d   1       1.804  86.327 115.153  0.00  0.00     0.161 C 
ATOM      2  C   LIG d   1       3.186  86.245 114.916  0.00  0.00     0.016 C 
ATOM      3  C   LIG d   1       4.131  85.927 115.919  0.00  0.00     0.038 C 
ATOM      4  C   LIG d   1       3.739  85.519 117.203  0.00  0.00     0.028 C 
ATOM      5  C   LIG d   1       2.385  86.075 117.629  0.00  0.00    -0.047 C 
ATOM      6  C   LIG d   1       1.349  85.777 116.521  0.00  0.00     0.091 C 
ENDROOT
BRANCH   1   7
ATOM      7  O   LIG d   1       1.086  85.676 114.087  0.00  0.00    -0.368 OA
BRANCH   7   8
ATOM      8  C   LIG d   1       1.594  85.896 112.748  0.00  0.00     0.119 C 
BRANCH   8   9
ATOM      9  C   LIG d   1       1.724  87.418 112.547  0.00  0.00     0.028 C 
ATOM     10  C   LIG d   1       2.992  87.801 111.766  0.00  0.00     0.006 C 
ENDBRANCH   8   9
BRANCH   8  11
ATOM     11  C   LIG d   1       0.592  85.431 111.687  0.00  0.00     0.028 C 
ATOM     12  C   LIG d   1      -0.797  86.066 111.861  0.00  0.00     0.006 C 
ENDBRANCH   8  11
ENDBRANCH   7   8
ENDBRANCH   1   7
BRANCH   6  13
ATOM     13  N   LIG d   1       0.015  86.361 116.819  0.00  0.00    -0.311 N 
ATOM     14  C   LIG d   1      -0.153  87.502 117.485  0.00  0.00     0.210 C 
ATOM     15  C   LIG d   1      -1.612  87.915 117.702  0.00  0.00     0.109 C 
ATOM     16  O   LIG d   1       0.768  88.228 117.889  0.00  0.00    -0.276 OA
ATOM     17  H   LIG d   1      -0.787  85.853 116.500  0.00  0.00     0.149 HD
ENDBRANCH   6  13
BRANCH   5  18
ATOM     18  N   LIG d   1       2.038  85.462 118.925  0.00  0.00     0.381 N 
ATOM     19  H   LIG d   1       2.171  86.127 119.660  0.00  0.00    -0.090 HD
ATOM     20  H   LIG d   1       2.651  84.683 119.090  0.00  0.00    -0.090 HD
ATOM     21  H   LIG d   1       1.091  85.153 118.913  0.00  0.00    -0.090 HD
ENDBRANCH   5  18
BRANCH   3  22
ATOM     22  C   LIG d   1       5.485  86.054 115.653  0.00  0.00     0.382 C 
ATOM     23  O   LIG d   1       5.872  86.765 114.694  0.00  0.00    -0.241 OA
ATOM     24  O   LIG d   1       6.324  85.432 116.333  0.00  0.00    -0.241 OA
ENDBRANCH   3  22
TORSDOF 7
ENDMDL
MODEL 4
REMARK VINA RESULT:      -2.2      2.659      5.304
REMARK  7 active torsions:
REMARK  status: ('A' for Active; 'I' for Inactive)
REMARK    1  A    between atoms: C_2  and  C_3 
REMARK    2  A    between atoms: C_3  and  O_6 
REMARK    3  A    between atoms: C_3  and  C_4 
REMARK    4  A    between atoms: C_7  and  O_6 
REMARK    5  A    between atoms: C_9  and  C_10 
REMARK    6  A    between atoms: N_15  and  C_14 
REMARK    7  A    between atoms: N_20  and  C_19 
REMARK       I    between atoms: C_22  and  N_20 
ROOT
ATOM      1  C   LIG d   1      -4.929  92.150 117.981  0.00  0.00     0.161 C 
ATOM      2  C   LIG d   1      -5.384  93.403 118.422  0.00  0.00     0.016 C 
ATOM      3  C   LIG d   1      -6.745  93.787 118.404  0.00  0.00     0.038 C 
ATOM      4  C   LIG d   1      -7.767  92.881 118.084  0.00  0.00     0.028 C 
ATOM      5  C   LIG d   1      -7.314  91.763 117.151  0.00  0.00    -0.047 C 
ATOM      6  C   LIG d   1      -6.040  91.109 117.733  0.00  0.00     0.091 C 
ENDROOT
BRANCH   1   7
ATOM      7  O   LIG d   1      -3.954  91.630 118.908  0.00  0.00    -0.368 OA
BRANCH   7   8
ATOM      8  C   LIG d   1      -2.625  91.407 118.376  0.00  0.00     0.119 C 
BRANCH   8   9
ATOM      9  C   LIG d   1      -2.127  90.057 118.929  0.00  0.00     0.028 C 
ATOM     10  C   LIG d   1      -2.061  88.968 117.845  0.00  0.00     0.006 C 
ENDBRANCH   8   9
BRANCH   8  11
ATOM     11  C   LIG d   1      -1.633  92.450 118.899  0.00  0.00     0.028 C 
ATOM     12  C   LIG d   1      -1.325  93.548 117.868  0.00  0.00     0.006 C 
ENDBRANCH   8  11
ENDBRANCH   7   8
ENDBRANCH   1   7
BRANCH   6  13
ATOM     13  N   LIG d   1      -5.483  90.060 116.839  0.00  0.00    -0.311 N 
ATOM     14  C   LIG d   1      -5.696  90.028 115.524  0.00  0.00     0.210 C 
ATOM     15  C   LIG d   1      -5.046  88.850 114.792  0.00  0.00     0.109 C 
ATOM     16  O   LIG d   1      -6.334  90.882 114.890  0.00  0.00    -0.276 OA
ATOM     17  H   LIG d   1      -4.926  89.346 117.265  0.00  0.00     0.149 HD
ENDBRANCH   6  13
BRANCH   5  18
ATOM     18  N   LIG d   1      -8.437  90.818 117.011  0.00  0.00     0.381 N 
ATOM     19  H   LIG d   1      -8.900  90.708 117.891  0.00  0.00    -0.090 HD
ATOM     20  H   LIG d   1      -8.076  89.923 116.731  0.00  0.00    -0.090 HD
ATOM     21  H   LIG d   1      -9.082  91.152 116.328  0.00  0.00    -0.090 HD
ENDBRANCH   5  18
BRANCH   3  22
ATOM     22  C   LIG d   1      -7.091  95.103 118.672  0.00  0.00     0.382 C 
ATOM     23  O   LIG d   1      -8.293  95.459 118.615  0.00  0.00    -0.241 OA
ATOM     24  O   LIG d   1      -6.212  95.948 118.926  0.00  0.00    -0.241 OA
ENDBRANCH   3  22
TORSDOF 7
ENDMDL
MODEL 5
REMARK VINA RESULT:      -2.2      2.644      5.185
REMARK  7 active torsions:
REMARK  status: ('A' for Active; 'I' for Inactive)
REMARK    1  A    between atoms: C_2  and  C_3 
REMARK    2  A    between atoms: C_3  and  O_6 
REMARK    3  A    between atoms: C_3  and  C_4 
REMARK    4  A    between atoms: C_7  and  O_6 
REMARK    5  A    between atoms: C_9  and  C_10 
REMARK    6  A    between atoms: N_15  and  C_14 
REMARK    7  A    between atoms: N_20  and  C_19 
REMARK       I    between atoms: C_22  and  N_20 
ROOT
ATOM      1  C   LIG d   1      -5.747  91.751 117.043  0.00  0.00     0.161 C 
ATOM      2  C   LIG d   1      -6.912  91.783 116.259  0.00  0.00     0.016 C 
ATOM      3  C   LIG d   1      -7.261  90.765 115.342  0.00  0.00     0.038 C 
ATOM      4  C   LIG d   1      -6.539  89.565 115.256  0.00  0.00     0.028 C 
ATOM      5  C   LIG d   1      -5.076  89.708 115.663  0.00  0.00    -0.047 C 
ATOM      6  C   LIG d   1      -5.005  90.398 117.044  0.00  0.00     0.091 C 
ENDROOT
BRANCH   1   7
ATOM      7  O   LIG d   1      -6.054  92.155 118.392  0.00  0.00    -0.368 OA
BRANCH   7   8
ATOM      8  C   LIG d   1      -5.259  93.240 118.930  0.00  0.00     0.119 C 
BRANCH   8   9
ATOM      9  C   LIG d   1      -6.123  94.515 118.881  0.00  0.00     0.028 C 
ATOM     10  C   LIG d   1      -7.582  94.221 118.495  0.00  0.00     0.006 C 
ENDBRANCH   8   9
BRANCH   8  11
ATOM     11  C   LIG d   1      -4.048  93.537 118.040  0.00  0.00     0.028 C 
ATOM     12  C   LIG d   1      -2.788  93.889 118.847  0.00  0.00     0.006 C 
ENDBRANCH   8  11
ENDBRANCH   7   8
ENDBRANCH   1   7
BRANCH   6  13
ATOM     13  N   LIG d   1      -3.606  90.653 117.479  0.00  0.00    -0.311 N 
ATOM     14  C   LIG d   1      -2.959  89.884 118.353  0.00  0.00     0.210 C 
ATOM     15  C   LIG d   1      -1.532  90.335 118.679  0.00  0.00     0.109 C 
ATOM     16  O   LIG d   1      -3.420  88.853 118.866  0.00  0.00    -0.276 OA
ATOM     17  H   LIG d   1      -3.146  91.451 117.089  0.00  0.00     0.149 HD
ENDBRANCH   6  13
BRANCH   5  18
ATOM     18  N   LIG d   1      -4.479  88.359 115.659  0.00  0.00     0.381 N 
ATOM     19  H   LIG d   1      -4.977  87.770 115.022  0.00  0.00    -0.090 HD
ATOM     20  H   LIG d   1      -4.559  87.965 116.580  0.00  0.00    -0.090 HD
ATOM     21  H   LIG d   1      -3.520  88.412 115.395  0.00  0.00    -0.090 HD
ENDBRANCH   5  18
BRANCH   3  22
ATOM     22  C   LIG d   1      -8.321  90.960 114.470  0.00  0.00     0.382 C 
ATOM     23  O   LIG d   1      -9.476  91.151 114.920  0.00  0.00    -0.241 OA
ATOM     24  O   LIG d   1      -8.144  90.902 113.238  0.00  0.00    -0.241 OA
ENDBRANCH   3  22
TORSDOF 7
ENDMDL
MODEL 6
REMARK VINA RESULT:      -1.8      1.889      4.680
REMARK  7 active torsions:
REMARK  status: ('A' for Active; 'I' for Inactive)
REMARK    1  A    between atoms: C_2  and  C_3 
REMARK    2  A    between atoms: C_3  and  O_6 
REMARK    3  A    between atoms: C_3  and  C_4 
REMARK    4  A    between atoms: C_7  and  O_6 
REMARK    5  A    between atoms: C_9  and  C_10 
REMARK    6  A    between atoms: N_15  and  C_14 
REMARK    7  A    between atoms: N_20  and  C_19 
REMARK       I    between atoms: C_22  and  N_20 
ROOT
ATOM      1  C   LIG d   1      -3.487  92.060 117.898  0.00  0.00     0.161 C 
ATOM      2  C   LIG d   1      -4.657  91.810 117.163  0.00  0.00     0.016 C 
ATOM      3  C   LIG d   1      -5.142  90.510 116.891  0.00  0.00     0.038 C 
ATOM      4  C   LIG d   1      -4.567  89.368 117.469  0.00  0.00     0.028 C 
ATOM      5  C   LIG d   1      -3.089  89.538 117.804  0.00  0.00    -0.047 C 
ATOM      6  C   LIG d   1      -2.907  90.832 118.631  0.00  0.00     0.091 C 
ENDROOT
BRANCH   1   7
ATOM      7  O   LIG d   1      -3.716  93.137 118.829  0.00  0.00    -0.368 OA
BRANCH   7   8
ATOM      8  C   LIG d   1      -2.666  94.130 118.926  0.00  0.00     0.119 C 
BRANCH   8   9
ATOM      9  C   LIG d   1      -3.339  95.516 118.930  0.00  0.00     0.028 C 
ATOM     10  C   LIG d   1      -2.317  96.665 118.930  0.00  0.00     0.006 C 
ENDBRANCH   8   9
BRANCH   8  11
ATOM     11  C   LIG d   1      -1.771  94.118 117.683  0.00  0.00     0.028 C 
ATOM     12  C   LIG d   1      -0.293  94.383 118.011  0.00  0.00     0.006 C 
ENDBRANCH   8  11
ENDBRANCH   7   8
ENDBRANCH   1   7
BRANCH   6  13
ATOM     13  N   LIG d   1      -1.480  91.118 118.929  0.00  0.00    -0.311 N 
ATOM     14  C   LIG d   1      -0.469  90.623 118.218  0.00  0.00     0.210 C 
ATOM     15  C   LIG d   1       0.925  91.027 118.709  0.00  0.00     0.109 C 
ATOM     16  O   LIG d   1      -0.594  89.913 117.209  0.00  0.00    -0.276 OA
ATOM     17  H   LIG d   1      -1.288  91.711 119.713  0.00  0.00     0.149 HD
ENDBRANCH   6  13
BRANCH   5  18
ATOM     18  N   LIG d   1      -2.653  88.327 118.524  0.00  0.00     0.381 N 
ATOM     19  H   LIG d   1      -2.683  87.538 117.909  0.00  0.00    -0.090 HD
ATOM     20  H   LIG d   1      -3.285  88.156 119.286  0.00  0.00    -0.090 HD
ATOM     21  H   LIG d   1      -1.728  88.451 118.872  0.00  0.00    -0.090 HD
ENDBRANCH   5  18
BRANCH   3  22
ATOM     22  C   LIG d   1      -6.190  90.340 116.000  0.00  0.00     0.382 C 
ATOM     23  O   LIG d   1      -6.236  89.318 115.273  0.00  0.00    -0.241 OA
ATOM     24  O   LIG d   1      -7.068  91.216 115.882  0.00  0.00    -0.241 OA
ENDBRANCH   3  22
TORSDOF 7
ENDMDL
MODEL 7
REMARK VINA RESULT:      -1.4      2.819      5.327
REMARK  7 active torsions:
REMARK  status: ('A' for Active; 'I' for Inactive)
REMARK    1  A    between atoms: C_2  and  C_3 
REMARK    2  A    between atoms: C_3  and  O_6 
REMARK    3  A    between atoms: C_3  and  C_4 
REMARK    4  A    between atoms: C_7  and  O_6 
REMARK    5  A    between atoms: C_9  and  C_10 
REMARK    6  A    between atoms: N_15  and  C_14 
REMARK    7  A    between atoms: N_20  and  C_19 
REMARK       I    between atoms: C_22  and  N_20 
ROOT
ATOM      1  C   LIG d   1      -5.052  90.985 117.330  0.00  0.00     0.161 C 
ATOM      2  C   LIG d   1      -5.436  92.118 118.066  0.00  0.00     0.016 C 
ATOM      3  C   LIG d   1      -6.582  92.890 117.765  0.00  0.00     0.038 C 
ATOM      4  C   LIG d   1      -7.510  92.491 116.792  0.00  0.00     0.028 C 
ATOM      5  C   LIG d   1      -6.900  91.633 115.689  0.00  0.00    -0.047 C 
ATOM      6  C   LIG d   1      -6.113  90.470 116.335  0.00  0.00     0.091 C 
ENDROOT
BRANCH   1   7
ATOM      7  O   LIG d   1      -4.654  89.930 118.228  0.00  0.00    -0.368 OA
BRANCH   7   8
ATOM      8  C   LIG d   1      -3.322  90.039 118.788  0.00  0.00     0.119 C 
BRANCH   8   9
ATOM      9  C   LIG d   1      -2.579  91.140 118.006  0.00  0.00     0.028 C 
ATOM     10  C   LIG d   1      -2.001  92.227 118.928  0.00  0.00     0.006 C 
ENDBRANCH   8   9
BRANCH   8  11
ATOM     11  C   LIG d   1      -2.513  88.760 118.555  0.00  0.00     0.028 C 
ATOM     12  C   LIG d   1      -1.004  88.961 118.769  0.00  0.00     0.006 C 
ENDBRANCH   8  11
ENDBRANCH   7   8
ENDBRANCH   1   7
BRANCH   6  13
ATOM     13  N   LIG d   1      -5.414  89.630 115.327  0.00  0.00    -0.311 N 
ATOM     14  C   LIG d   1      -6.051  88.908 114.407  0.00  0.00     0.210 C 
ATOM     15  C   LIG d   1      -5.141  88.098 113.478  0.00  0.00     0.109 C 
ATOM     16  O   LIG d   1      -7.281  88.886 114.251  0.00  0.00    -0.276 OA
ATOM     17  H   LIG d   1      -4.414  89.614 115.361  0.00  0.00     0.149 HD
ENDBRANCH   6  13
BRANCH   5  18
ATOM     18  N   LIG d   1      -8.002  91.174 114.821  0.00  0.00     0.381 N 
ATOM     19  H   LIG d   1      -7.822  90.240 114.511  0.00  0.00    -0.090 HD
ATOM     20  H   LIG d   1      -8.050  91.771 114.014  0.00  0.00    -0.090 HD
ATOM     21  H   LIG d   1      -8.864  91.205 115.319  0.00  0.00    -0.090 HD
ENDBRANCH   5  18
BRANCH   3  22
ATOM     22  C   LIG d   1      -6.786  94.098 118.414  0.00  0.00     0.382 C 
ATOM     23  O   LIG d   1      -5.817  94.704 118.930  0.00  0.00    -0.241 OA
ATOM     24  O   LIG d   1      -7.934  94.567 118.529  0.00  0.00    -0.241 OA
ENDBRANCH   3  22
TORSDOF 7
ENDMDL
