MODEL 1
REMARK VINA RESULT:      -5.2      0.000      0.000
REMARK  7 active torsions:
REMARK  status: ('A' for Active; 'I' for Inactive)
REMARK    1  A    between atoms: C_2  and  C_3 
REMARK    2  A    between atoms: C_3  and  O_6 
REMARK    3  A    between atoms: C_3  and  C_4 
REMARK    4  A    between atoms: C_7  and  O_6 
REMARK    5  A    between atoms: C_9  and  C_10 
REMARK    6  A    between atoms: N_15  and  C_14 
REMARK    7  A    between atoms: N_20  and  C_19 
REMARK       I    between atoms: C_22  and  N_20 
ROOT
ATOM      1  C   LIG d   1       4.973  87.313 115.723  0.00  0.00     0.161 C 
ATOM      2  C   LIG d   1       5.823  87.930 116.657  0.00  0.00     0.016 C 
ATOM      3  C   LIG d   1       6.494  89.150 116.411  0.00  0.00     0.038 C 
ATOM      4  C   LIG d   1       6.240  89.918 115.265  0.00  0.00     0.028 C 
ATOM      5  C   LIG d   1       5.775  89.091 114.072  0.00  0.00    -0.047 C 
ATOM      6  C   LIG d   1       4.597  88.192 114.512  0.00  0.00     0.091 C 
ENDROOT
BRANCH   1   7
ATOM      7  O   LIG d   1       3.785  86.837 116.385  0.00  0.00    -0.368 OA
BRANCH   7   8
ATOM      8  C   LIG d   1       2.598  87.654 116.231  0.00  0.00     0.119 C 
BRANCH   8   9
ATOM      9  C   LIG d   1       2.580  88.667 117.392  0.00  0.00     0.028 C 
ATOM     10  C   LIG d   1       2.591  90.124 116.901  0.00  0.00     0.006 C 
ENDBRANCH   8   9
BRANCH   8  11
ATOM     11  C   LIG d   1       1.323  86.822 116.398  0.00  0.00     0.028 C 
ATOM     12  C   LIG d   1       0.659  86.474 115.057  0.00  0.00     0.006 C 
ENDBRANCH   8  11
ENDBRANCH   7   8
ENDBRANCH   1   7
BRANCH   6  13
ATOM     13  N   LIG d   1       4.137  87.288 113.426  0.00  0.00    -0.311 N 
ATOM     14  C   LIG d   1       3.246  87.646 112.503  0.00  0.00     0.210 C 
ATOM     15  C   LIG d   1       2.896  86.555 111.486  0.00  0.00     0.109 C 
ATOM     16  O   LIG d   1       2.736  88.773 112.410  0.00  0.00    -0.276 OA
ATOM     17  H   LIG d   1       4.523  86.365 113.407  0.00  0.00     0.149 HD
ENDBRANCH   6  13
BRANCH   5  18
ATOM     18  N   LIG d   1       5.415  90.029 112.992  0.00  0.00     0.381 N 
ATOM     19  H   LIG d   1       4.439  90.242 113.040  0.00  0.00    -0.090 HD
ATOM     20  H   LIG d   1       5.600  89.591 112.106  0.00  0.00    -0.090 HD
ATOM     21  H   LIG d   1       5.949  90.866 113.075  0.00  0.00    -0.090 HD
ENDBRANCH   5  18
BRANCH   3  22
ATOM     22  C   LIG d   1       7.461  89.594 117.300  0.00  0.00     0.382 C 
ATOM     23  O   LIG d   1       7.993  90.718 117.139  0.00  0.00    -0.241 OA
ATOM     24  O   LIG d   1       7.840  88.865 118.236  0.00  0.00    -0.241 OA
ENDBRANCH   3  22
TORSDOF 7
ENDMDL
MODEL 2
REMARK VINA RESULT:      -5.2      2.250      4.080
REMARK  7 active torsions:
REMARK  status: ('A' for Active; 'I' for Inactive)
REMARK    1  A    between atoms: C_2  and  C_3 
REMARK    2  A    between atoms: C_3  and  O_6 
REMARK    3  A    between atoms: C_3  and  C_4 
REMARK    4  A    between atoms: C_7  and  O_6 
REMARK    5  A    between atoms: C_9  and  C_10 
REMARK    6  A    between atoms: N_15  and  C_14 
REMARK    7  A    between atoms: N_20  and  C_19 
REMARK       I    between atoms: C_22  and  N_20 
ROOT
ATOM      1  C   LIG d   1       4.624  89.031 115.096  0.00  0.00     0.161 C 
ATOM      2  C   LIG d   1       4.366  90.129 115.933  0.00  0.00     0.016 C 
ATOM      3  C   LIG d   1       3.108  90.373 116.532  0.00  0.00     0.038 C 
ATOM      4  C   LIG d   1       2.058  89.446 116.454  0.00  0.00     0.028 C 
ATOM      5  C   LIG d   1       2.112  88.572 115.206  0.00  0.00    -0.047 C 
ATOM      6  C   LIG d   1       3.523  87.950 115.089  0.00  0.00     0.091 C 
ENDROOT
BRANCH   1   7
ATOM      7  O   LIG d   1       5.897  88.447 115.434  0.00  0.00    -0.368 OA
BRANCH   7   8
ATOM      8  C   LIG d   1       6.312  88.579 116.816  0.00  0.00     0.119 C 
BRANCH   8   9
ATOM      9  C   LIG d   1       7.848  88.708 116.828  0.00  0.00     0.028 C 
ATOM     10  C   LIG d   1       8.547  87.433 116.327  0.00  0.00     0.006 C 
ENDBRANCH   8   9
BRANCH   8  11
ATOM     11  C   LIG d   1       6.005  87.308 117.613  0.00  0.00     0.028 C 
ATOM     12  C   LIG d   1       5.020  87.552 118.767  0.00  0.00     0.006 C 
ENDBRANCH   8  11
ENDBRANCH   7   8
ENDBRANCH   1   7
BRANCH   6  13
ATOM     13  N   LIG d   1       3.688  87.148 113.849  0.00  0.00    -0.311 N 
ATOM     14  C   LIG d   1       3.390  87.606 112.634  0.00  0.00     0.210 C 
ATOM     15  C   LIG d   1       3.615  86.608 111.494  0.00  0.00     0.109 C 
ATOM     16  O   LIG d   1       2.991  88.754 112.390  0.00  0.00    -0.276 OA
ATOM     17  H   LIG d   1       4.036  86.215 113.952  0.00  0.00     0.149 HD
ENDBRANCH   6  13
BRANCH   5  18
ATOM     18  N   LIG d   1       1.043  87.563 115.321  0.00  0.00     0.381 N 
ATOM     19  H   LIG d   1       0.227  87.978 115.725  0.00  0.00    -0.090 HD
ATOM     20  H   LIG d   1       1.355  86.826 115.929  0.00  0.00    -0.090 HD
ATOM     21  H   LIG d   1       0.825  87.192 114.422  0.00  0.00    -0.090 HD
ENDBRANCH   5  18
BRANCH   3  22
ATOM     22  C   LIG d   1       2.879  91.574 117.185  0.00  0.00     0.382 C 
ATOM     23  O   LIG d   1       3.672  92.534 117.029  0.00  0.00    -0.241 OA
ATOM     24  O   LIG d   1       1.914  91.696 117.963  0.00  0.00    -0.241 OA
ENDBRANCH   3  22
TORSDOF 7
ENDMDL
MODEL 3
REMARK VINA RESULT:      -5.0      1.604      4.969
REMARK  7 active torsions:
REMARK  status: ('A' for Active; 'I' for Inactive)
REMARK    1  A    between atoms: C_2  and  C_3 
REMARK    2  A    between atoms: C_3  and  O_6 
REMARK    3  A    between atoms: C_3  and  C_4 
REMARK    4  A    between atoms: C_7  and  O_6 
REMARK    5  A    between atoms: C_9  and  C_10 
REMARK    6  A    between atoms: N_15  and  C_14 
REMARK    7  A    between atoms: N_20  and  C_19 
REMARK       I    between atoms: C_22  and  N_20 
ROOT
ATOM      1  C   LIG d   1       4.210  87.991 115.290  0.00  0.00     0.161 C 
ATOM      2  C   LIG d   1       3.560  87.228 114.306  0.00  0.00     0.016 C 
ATOM      3  C   LIG d   1       3.834  87.346 112.923  0.00  0.00     0.038 C 
ATOM      4  C   LIG d   1       4.891  88.132 112.441  0.00  0.00     0.028 C 
ATOM      5  C   LIG d   1       5.241  89.303 113.354  0.00  0.00    -0.047 C 
ATOM      6  C   LIG d   1       5.443  88.774 114.793  0.00  0.00     0.091 C 
ENDROOT
BRANCH   1   7
ATOM      7  O   LIG d   1       4.567  87.149 116.404  0.00  0.00    -0.368 OA
BRANCH   7   8
ATOM      8  C   LIG d   1       3.879  87.417 117.651  0.00  0.00     0.119 C 
BRANCH   8   9
ATOM      9  C   LIG d   1       2.987  86.198 117.959  0.00  0.00     0.028 C 
ATOM     10  C   LIG d   1       1.611  86.292 117.280  0.00  0.00     0.006 C 
ENDBRANCH   8   9
BRANCH   8  11
ATOM     11  C   LIG d   1       2.916  88.600 117.514  0.00  0.00     0.028 C 
ATOM     12  C   LIG d   1       3.300  89.787 118.411  0.00  0.00     0.006 C 
ENDBRANCH   8  11
ENDBRANCH   7   8
ENDBRANCH   1   7
BRANCH   6  13
ATOM     13  N   LIG d   1       5.706  89.865 115.766  0.00  0.00    -0.311 N 
ATOM     14  C   LIG d   1       6.749  89.873 116.595  0.00  0.00     0.210 C 
ATOM     15  C   LIG d   1       6.822  91.084 117.531  0.00  0.00     0.109 C 
ATOM     16  O   LIG d   1       7.639  89.009 116.620  0.00  0.00    -0.276 OA
ATOM     17  H   LIG d   1       5.051  90.622 115.791  0.00  0.00     0.149 HD
ENDBRANCH   6  13
BRANCH   5  18
ATOM     18  N   LIG d   1       6.444  89.954 112.803  0.00  0.00     0.381 N 
ATOM     19  H   LIG d   1       7.119  89.260 112.551  0.00  0.00    -0.090 HD
ATOM     20  H   LIG d   1       6.847  90.544 113.509  0.00  0.00    -0.090 HD
ATOM     21  H   LIG d   1       6.202  90.497 112.004  0.00  0.00    -0.090 HD
ENDBRANCH   5  18
BRANCH   3  22
ATOM     22  C   LIG d   1       3.019  86.702 112.004  0.00  0.00     0.382 C 
ATOM     23  O   LIG d   1       3.231  85.500 111.713  0.00  0.00    -0.241 OA
ATOM     24  O   LIG d   1       2.103  87.321 111.430  0.00  0.00    -0.241 OA
ENDBRANCH   3  22
TORSDOF 7
ENDMDL
MODEL 4
REMARK VINA RESULT:      -4.1      2.377      4.690
REMARK  7 active torsions:
REMARK  status: ('A' for Active; 'I' for Inactive)
REMARK    1  A    between atoms: C_2  and  C_3 
REMARK    2  A    between atoms: C_3  and  O_6 
REMARK    3  A    between atoms: C_3  and  C_4 
REMARK    4  A    between atoms: C_7  and  O_6 
REMARK    5  A    between atoms: C_9  and  C_10 
REMARK    6  A    between atoms: N_15  and  C_14 
REMARK    7  A    between atoms: N_20  and  C_19 
REMARK       I    between atoms: C_22  and  N_20 
ROOT
ATOM      1  C   LIG d   1       3.682  87.834 115.288  0.00  0.00     0.161 C 
ATOM      2  C   LIG d   1       3.173  87.065 114.228  0.00  0.00     0.016 C 
ATOM      3  C   LIG d   1       3.612  87.197 112.890  0.00  0.00     0.038 C 
ATOM      4  C   LIG d   1       4.705  88.007 112.545  0.00  0.00     0.028 C 
ATOM      5  C   LIG d   1       4.916  89.178 113.500  0.00  0.00    -0.047 C 
ATOM      6  C   LIG d   1       4.951  88.643 114.950  0.00  0.00     0.091 C 
ENDROOT
BRANCH   1   7
ATOM      7  O   LIG d   1       3.916  86.991 116.434  0.00  0.00    -0.368 OA
BRANCH   7   8
ATOM      8  C   LIG d   1       3.461  87.509 117.709  0.00  0.00     0.119 C 
BRANCH   8   9
ATOM      9  C   LIG d   1       4.636  87.396 118.700  0.00  0.00     0.028 C 
ATOM     10  C   LIG d   1       5.280  85.999 118.689  0.00  0.00     0.006 C 
ENDBRANCH   8   9
BRANCH   8  11
ATOM     11  C   LIG d   1       2.348  86.638 118.299  0.00  0.00     0.028 C 
ATOM     12  C   LIG d   1       1.973  85.455 117.392  0.00  0.00     0.006 C 
ENDBRANCH   8  11
ENDBRANCH   7   8
ENDBRANCH   1   7
BRANCH   6  13
ATOM     13  N   LIG d   1       5.071  89.733 115.953  0.00  0.00    -0.311 N 
ATOM     14  C   LIG d   1       4.123  90.645 116.161  0.00  0.00     0.210 C 
ATOM     15  C   LIG d   1       4.456  91.693 117.228  0.00  0.00     0.109 C 
ATOM     16  O   LIG d   1       3.024  90.667 115.586  0.00  0.00    -0.276 OA
ATOM     17  H   LIG d   1       5.917  89.771 116.486  0.00  0.00     0.149 HD
ENDBRANCH   6  13
BRANCH   5  18
ATOM     18  N   LIG d   1       6.165  89.856 113.103  0.00  0.00     0.381 N 
ATOM     19  H   LIG d   1       6.019  90.367 112.256  0.00  0.00    -0.090 HD
ATOM     20  H   LIG d   1       6.872  89.162 112.935  0.00  0.00    -0.090 HD
ATOM     21  H   LIG d   1       6.461  90.474 113.826  0.00  0.00    -0.090 HD
ENDBRANCH   5  18
BRANCH   3  22
ATOM     22  C   LIG d   1       2.930  86.545 111.875  0.00  0.00     0.382 C 
ATOM     23  O   LIG d   1       1.860  87.024 111.430  0.00  0.00    -0.241 OA
ATOM     24  O   LIG d   1       3.347  85.459 111.430  0.00  0.00    -0.241 OA
ENDBRANCH   3  22
TORSDOF 7
ENDMDL
MODEL 5
REMARK VINA RESULT:      -3.9      2.581      5.463
REMARK  7 active torsions:
REMARK  status: ('A' for Active; 'I' for Inactive)
REMARK    1  A    between atoms: C_2  and  C_3 
REMARK    2  A    between atoms: C_3  and  O_6 
REMARK    3  A    between atoms: C_3  and  C_4 
REMARK    4  A    between atoms: C_7  and  O_6 
REMARK    5  A    between atoms: C_9  and  C_10 
REMARK    6  A    between atoms: N_15  and  C_14 
REMARK    7  A    between atoms: N_20  and  C_19 
REMARK       I    between atoms: C_22  and  N_20 
ROOT
ATOM      1  C   LIG d   1       3.927  90.068 116.630  0.00  0.00     0.161 C 
ATOM      2  C   LIG d   1       3.170  89.609 115.539  0.00  0.00     0.016 C 
ATOM      3  C   LIG d   1       3.445  88.404 114.853  0.00  0.00     0.038 C 
ATOM      4  C   LIG d   1       4.411  87.494 115.310  0.00  0.00     0.028 C 
ATOM      5  C   LIG d   1       5.534  88.152 116.105  0.00  0.00    -0.047 C 
ATOM      6  C   LIG d   1       4.915  89.035 117.212  0.00  0.00     0.091 C 
ENDROOT
BRANCH   1   7
ATOM      7  O   LIG d   1       3.049  90.559 117.662  0.00  0.00    -0.368 OA
BRANCH   7   8
ATOM      8  C   LIG d   1       2.695  91.962 117.584  0.00  0.00     0.119 C 
BRANCH   8   9
ATOM      9  C   LIG d   1       3.989  92.751 117.309  0.00  0.00     0.028 C 
ATOM     10  C   LIG d   1       4.651  93.262 118.600  0.00  0.00     0.006 C 
ENDBRANCH   8   9
BRANCH   8  11
ATOM     11  C   LIG d   1       2.181  92.482 118.929  0.00  0.00     0.028 C 
ATOM     12  C   LIG d   1       0.693  92.865 118.890  0.00  0.00     0.006 C 
ENDBRANCH   8  11
ENDBRANCH   7   8
ENDBRANCH   1   7
BRANCH   6  13
ATOM     13  N   LIG d   1       5.943  89.781 117.983  0.00  0.00    -0.311 N 
ATOM     14  C   LIG d   1       6.991  90.380 117.419  0.00  0.00     0.210 C 
ATOM     15  C   LIG d   1       7.942  91.076 118.398  0.00  0.00     0.109 C 
ATOM     16  O   LIG d   1       7.207  90.427 116.199  0.00  0.00    -0.276 OA
ATOM     17  H   LIG d   1       5.829  89.819 118.977  0.00  0.00     0.149 HD
ENDBRANCH   6  13
BRANCH   5  18
ATOM     18  N   LIG d   1       6.393  87.076 116.635  0.00  0.00     0.381 N 
ATOM     19  H   LIG d   1       7.210  86.984 116.067  0.00  0.00    -0.090 HD
ATOM     20  H   LIG d   1       5.886  86.209 116.602  0.00  0.00    -0.090 HD
ATOM     21  H   LIG d   1       6.654  87.281 117.575  0.00  0.00    -0.090 HD
ENDBRANCH   5  18
BRANCH   3  22
ATOM     22  C   LIG d   1       2.777  88.117 113.672  0.00  0.00     0.382 C 
ATOM     23  O   LIG d   1       3.047  88.757 112.628  0.00  0.00    -0.241 OA
ATOM     24  O   LIG d   1       1.876  87.258 113.649  0.00  0.00    -0.241 OA
ENDBRANCH   3  22
TORSDOF 7
ENDMDL
MODEL 6
REMARK VINA RESULT:      -3.9      2.591      5.580
REMARK  7 active torsions:
REMARK  status: ('A' for Active; 'I' for Inactive)
REMARK    1  A    between atoms: C_2  and  C_3 
REMARK    2  A    between atoms: C_3  and  O_6 
REMARK    3  A    between atoms: C_3  and  C_4 
REMARK    4  A    between atoms: C_7  and  O_6 
REMARK    5  A    between atoms: C_9  and  C_10 
REMARK    6  A    between atoms: N_15  and  C_14 
REMARK    7  A    between atoms: N_20  and  C_19 
REMARK       I    between atoms: C_22  and  N_20 
ROOT
ATOM      1  C   LIG d   1       5.215  89.406 116.732  0.00  0.00     0.161 C 
ATOM      2  C   LIG d   1       4.612  89.794 115.524  0.00  0.00     0.016 C 
ATOM      3  C   LIG d   1       4.120  88.875 114.569  0.00  0.00     0.038 C 
ATOM      4  C   LIG d   1       4.059  87.498 114.829  0.00  0.00     0.028 C 
ATOM      5  C   LIG d   1       5.116  87.021 115.820  0.00  0.00    -0.047 C 
ATOM      6  C   LIG d   1       5.057  87.911 117.082  0.00  0.00     0.091 C 
ENDROOT
BRANCH   1   7
ATOM      7  O   LIG d   1       4.723  90.227 117.809  0.00  0.00    -0.368 OA
BRANCH   7   8
ATOM      8  C   LIG d   1       5.701  91.073 118.464  0.00  0.00     0.119 C 
BRANCH   8   9
ATOM      9  C   LIG d   1       5.123  92.501 118.506  0.00  0.00     0.028 C 
ATOM     10  C   LIG d   1       3.809  92.626 117.717  0.00  0.00     0.006 C 
ENDBRANCH   8   9
BRANCH   8  11
ATOM     11  C   LIG d   1       6.987  91.180 117.638  0.00  0.00     0.028 C 
ATOM     12  C   LIG d   1       8.114  91.910 118.384  0.00  0.00     0.006 C 
ENDBRANCH   8  11
ENDBRANCH   7   8
ENDBRANCH   1   7
BRANCH   6  13
ATOM     13  N   LIG d   1       6.115  87.567 118.068  0.00  0.00    -0.311 N 
ATOM     14  C   LIG d   1       7.413  87.540 117.772  0.00  0.00     0.210 C 
ATOM     15  C   LIG d   1       8.332  87.140 118.930  0.00  0.00     0.109 C 
ATOM     16  O   LIG d   1       7.893  87.841 116.668  0.00  0.00    -0.276 OA
ATOM     17  H   LIG d   1       5.816  87.339 118.996  0.00  0.00     0.149 HD
ENDBRANCH   6  13
BRANCH   5  18
ATOM     18  N   LIG d   1       4.851  85.598 116.103  0.00  0.00     0.381 N 
ATOM     19  H   LIG d   1       5.579  85.034 115.711  0.00  0.00    -0.090 HD
ATOM     20  H   LIG d   1       3.982  85.337 115.671  0.00  0.00    -0.090 HD
ATOM     21  H   LIG d   1       4.799  85.450 117.087  0.00  0.00    -0.090 HD
ENDBRANCH   5  18
BRANCH   3  22
ATOM     22  C   LIG d   1       3.717  89.329 113.322  0.00  0.00     0.382 C 
ATOM     23  O   LIG d   1       2.949  88.629 112.619  0.00  0.00    -0.241 OA
ATOM     24  O   LIG d   1       4.147  90.408 112.874  0.00  0.00    -0.241 OA
ENDBRANCH   3  22
TORSDOF 7
ENDMDL
MODEL 7
REMARK VINA RESULT:      -3.8      2.683      5.926
REMARK  7 active torsions:
REMARK  status: ('A' for Active; 'I' for Inactive)
REMARK    1  A    between atoms: C_2  and  C_3 
REMARK    2  A    between atoms: C_3  and  O_6 
REMARK    3  A    between atoms: C_3  and  C_4 
REMARK    4  A    between atoms: C_7  and  O_6 
REMARK    5  A    between atoms: C_9  and  C_10 
REMARK    6  A    between atoms: N_15  and  C_14 
REMARK    7  A    between atoms: N_20  and  C_19 
REMARK       I    between atoms: C_22  and  N_20 
ROOT
ATOM      1  C   LIG d   1       4.504  88.628 116.066  0.00  0.00     0.161 C 
ATOM      2  C   LIG d   1       3.686  87.729 115.363  0.00  0.00     0.016 C 
ATOM      3  C   LIG d   1       2.298  87.922 115.177  0.00  0.00     0.038 C 
ATOM      4  C   LIG d   1       1.658  89.112 115.554  0.00  0.00     0.028 C 
ATOM      5  C   LIG d   1       2.343  89.826 116.715  0.00  0.00    -0.047 C 
ATOM      6  C   LIG d   1       3.845  89.986 116.389  0.00  0.00     0.091 C 
ENDROOT
BRANCH   1   7
ATOM      7  O   LIG d   1       5.739  88.829 115.349  0.00  0.00    -0.368 OA
BRANCH   7   8
ATOM      8  C   LIG d   1       6.922  88.234 115.938  0.00  0.00     0.119 C 
BRANCH   8   9
ATOM      9  C   LIG d   1       6.451  87.217 116.996  0.00  0.00     0.028 C 
ATOM     10  C   LIG d   1       7.043  85.816 116.767  0.00  0.00     0.006 C 
ENDBRANCH   8   9
BRANCH   8  11
ATOM     11  C   LIG d   1       7.742  89.272 116.710  0.00  0.00     0.028 C 
ATOM     12  C   LIG d   1       7.655  89.086 118.233  0.00  0.00     0.006 C 
ENDBRANCH   8  11
ENDBRANCH   7   8
ENDBRANCH   1   7
BRANCH   6  13
ATOM     13  N   LIG d   1       4.606  90.600 117.509  0.00  0.00    -0.311 N 
ATOM     14  C   LIG d   1       4.646  91.912 117.735  0.00  0.00     0.210 C 
ATOM     15  C   LIG d   1       5.505  92.336 118.930  0.00  0.00     0.109 C 
ATOM     16  O   LIG d   1       4.025  92.762 117.079  0.00  0.00    -0.276 OA
ATOM     17  H   LIG d   1       5.113  89.980 118.109  0.00  0.00     0.149 HD
ENDBRANCH   6  13
BRANCH   5  18
ATOM     18  N   LIG d   1       1.654  91.116 116.913  0.00  0.00     0.381 N 
ATOM     19  H   LIG d   1       0.989  91.034 117.656  0.00  0.00    -0.090 HD
ATOM     20  H   LIG d   1       1.159  91.353 116.071  0.00  0.00    -0.090 HD
ATOM     21  H   LIG d   1       2.317  91.827 117.128  0.00  0.00    -0.090 HD
ENDBRANCH   5  18
BRANCH   3  22
ATOM     22  C   LIG d   1       1.528  86.901 114.642  0.00  0.00     0.382 C 
ATOM     23  O   LIG d   1       1.788  86.451 113.500  0.00  0.00    -0.241 OA
ATOM     24  O   LIG d   1       0.548  86.454 115.269  0.00  0.00    -0.241 OA
ENDBRANCH   3  22
TORSDOF 7
ENDMDL
MODEL 8
REMARK VINA RESULT:      -3.7      3.235      4.788
REMARK  7 active torsions:
REMARK  status: ('A' for Active; 'I' for Inactive)
REMARK    1  A    between atoms: C_2  and  C_3 
REMARK    2  A    between atoms: C_3  and  O_6 
REMARK    3  A    between atoms: C_3  and  C_4 
REMARK    4  A    between atoms: C_7  and  O_6 
REMARK    5  A    between atoms: C_9  and  C_10 
REMARK    6  A    between atoms: N_15  and  C_14 
REMARK    7  A    between atoms: N_20  and  C_19 
REMARK       I    between atoms: C_22  and  N_20 
ROOT
ATOM      1  C   LIG d   1       4.933  90.346 117.715  0.00  0.00     0.161 C 
ATOM      2  C   LIG d   1       5.784  91.398 118.092  0.00  0.00     0.016 C 
ATOM      3  C   LIG d   1       5.316  92.651 118.551  0.00  0.00     0.038 C 
ATOM      4  C   LIG d   1       3.958  92.885 118.810  0.00  0.00     0.028 C 
ATOM      5  C   LIG d   1       3.023  92.024 117.968  0.00  0.00    -0.047 C 
ATOM      6  C   LIG d   1       3.451  90.545 118.097  0.00  0.00     0.091 C 
ENDROOT
BRANCH   1   7
ATOM      7  O   LIG d   1       5.426  89.103 118.253  0.00  0.00    -0.368 OA
BRANCH   7   8
ATOM      8  C   LIG d   1       5.910  88.138 117.286  0.00  0.00     0.119 C 
BRANCH   8   9
ATOM      9  C   LIG d   1       5.016  86.888 117.392  0.00  0.00     0.028 C 
ATOM     10  C   LIG d   1       4.633  86.321 116.015  0.00  0.00     0.006 C 
ENDBRANCH   8   9
BRANCH   8  11
ATOM     11  C   LIG d   1       7.322  87.658 117.637  0.00  0.00     0.028 C 
ATOM     12  C   LIG d   1       8.203  87.441 116.396  0.00  0.00     0.006 C 
ENDBRANCH   8  11
ENDBRANCH   7   8
ENDBRANCH   1   7
BRANCH   6  13
ATOM     13  N   LIG d   1       2.641  89.643 117.237  0.00  0.00    -0.311 N 
ATOM     14  C   LIG d   1       2.694  89.656 115.906  0.00  0.00     0.210 C 
ATOM     15  C   LIG d   1       1.761  88.658 115.213  0.00  0.00     0.109 C 
ATOM     16  O   LIG d   1       3.448  90.376 115.235  0.00  0.00    -0.276 OA
ATOM     17  H   LIG d   1       2.024  89.004 117.700  0.00  0.00     0.149 HD
ENDBRANCH   6  13
BRANCH   5  18
ATOM     18  N   LIG d   1       1.646  92.271 118.437  0.00  0.00     0.381 N 
ATOM     19  H   LIG d   1       1.014  92.243 117.661  0.00  0.00    -0.090 HD
ATOM     20  H   LIG d   1       1.602  93.187 118.847  0.00  0.00    -0.090 HD
ATOM     21  H   LIG d   1       1.387  91.584 119.110  0.00  0.00    -0.090 HD
ENDBRANCH   5  18
BRANCH   3  22
ATOM     22  C   LIG d   1       6.209  93.699 118.718  0.00  0.00     0.382 C 
ATOM     23  O   LIG d   1       5.781  94.859 118.929  0.00  0.00    -0.241 OA
ATOM     24  O   LIG d   1       7.435  93.506 118.616  0.00  0.00    -0.241 OA
ENDBRANCH   3  22
TORSDOF 7
ENDMDL
MODEL 9
REMARK VINA RESULT:      -3.6      2.091      3.299
REMARK  7 active torsions:
REMARK  status: ('A' for Active; 'I' for Inactive)
REMARK    1  A    between atoms: C_2  and  C_3 
REMARK    2  A    between atoms: C_3  and  O_6 
REMARK    3  A    between atoms: C_3  and  C_4 
REMARK    4  A    between atoms: C_7  and  O_6 
REMARK    5  A    between atoms: C_9  and  C_10 
REMARK    6  A    between atoms: N_15  and  C_14 
REMARK    7  A    between atoms: N_20  and  C_19 
REMARK       I    between atoms: C_22  and  N_20 
ROOT
ATOM      1  C   LIG d   1       4.674  88.776 117.722  0.00  0.00     0.161 C 
ATOM      2  C   LIG d   1       6.027  89.103 117.907  0.00  0.00     0.016 C 
ATOM      3  C   LIG d   1       6.983  89.081 116.864  0.00  0.00     0.038 C 
ATOM      4  C   LIG d   1       6.615  88.876 115.526  0.00  0.00     0.028 C 
ATOM      5  C   LIG d   1       5.346  88.046 115.367  0.00  0.00    -0.047 C 
ATOM      6  C   LIG d   1       4.233  88.657 116.248  0.00  0.00     0.091 C 
ENDROOT
BRANCH   1   7
ATOM      7  O   LIG d   1       3.842  89.724 118.419  0.00  0.00    -0.368 OA
BRANCH   7   8
ATOM      8  C   LIG d   1       3.797  91.061 117.863  0.00  0.00     0.119 C 
BRANCH   8   9
ATOM      9  C   LIG d   1       4.352  92.025 118.930  0.00  0.00     0.028 C 
ATOM     10  C   LIG d   1       5.704  92.635 118.522  0.00  0.00     0.006 C 
ENDBRANCH   8   9
BRANCH   8  11
ATOM     11  C   LIG d   1       2.354  91.514 117.619  0.00  0.00     0.028 C 
ATOM     12  C   LIG d   1       1.903  92.616 118.591  0.00  0.00     0.006 C 
ENDBRANCH   8  11
ENDBRANCH   7   8
ENDBRANCH   1   7
BRANCH   6  13
ATOM     13  N   LIG d   1       2.981  87.857 116.216  0.00  0.00    -0.311 N 
ATOM     14  C   LIG d   1       1.985  88.086 115.361  0.00  0.00     0.210 C 
ATOM     15  C   LIG d   1       0.777  87.157 115.512  0.00  0.00     0.109 C 
ATOM     16  O   LIG d   1       2.002  88.951 114.472  0.00  0.00    -0.276 OA
ATOM     17  H   LIG d   1       2.897  87.115 116.883  0.00  0.00     0.149 HD
ENDBRANCH   6  13
BRANCH   5  18
ATOM     18  N   LIG d   1       5.003  88.027 113.932  0.00  0.00     0.381 N 
ATOM     19  H   LIG d   1       5.046  87.089 113.586  0.00  0.00    -0.090 HD
ATOM     20  H   LIG d   1       5.676  88.579 113.430  0.00  0.00    -0.090 HD
ATOM     21  H   LIG d   1       4.089  88.397 113.795  0.00  0.00    -0.090 HD
ENDBRANCH   5  18
BRANCH   3  22
ATOM     22  C   LIG d   1       8.329  89.228 117.163  0.00  0.00     0.382 C 
ATOM     23  O   LIG d   1       9.168  88.431 116.678  0.00  0.00    -0.241 OA
ATOM     24  O   LIG d   1       8.709  90.119 117.945  0.00  0.00    -0.241 OA
ENDBRANCH   3  22
TORSDOF 7
ENDMDL
