MODEL 1
REMARK VINA RESULT:      -4.7      0.000      0.000
REMARK  7 active torsions:
REMARK  status: ('A' for Active; 'I' for Inactive)
REMARK    1  A    between atoms: C_2  and  C_3 
REMARK    2  A    between atoms: C_3  and  O_6 
REMARK    3  A    between atoms: C_3  and  C_4 
REMARK    4  A    between atoms: C_7  and  O_6 
REMARK    5  A    between atoms: C_9  and  C_10 
REMARK    6  A    between atoms: N_15  and  C_14 
REMARK    7  A    between atoms: N_20  and  C_19 
REMARK       I    between atoms: C_22  and  N_20 
ROOT
ATOM      1  C   LIG d   1       3.005  87.920 115.929  0.00  0.00     0.161 C 
ATOM      2  C   LIG d   1       3.593  88.429 117.098  0.00  0.00     0.016 C 
ATOM      3  C   LIG d   1       4.818  89.136 117.109  0.00  0.00     0.038 C 
ATOM      4  C   LIG d   1       5.465  89.515 115.924  0.00  0.00     0.028 C 
ATOM      5  C   LIG d   1       5.171  88.588 114.749  0.00  0.00    -0.047 C 
ATOM      6  C   LIG d   1       3.640  88.420 114.614  0.00  0.00     0.091 C 
ENDROOT
BRANCH   1   7
ATOM      7  O   LIG d   1       1.589  88.191 115.936  0.00  0.00    -0.368 OA
BRANCH   7   8
ATOM      8  C   LIG d   1       1.075  88.861 117.113  0.00  0.00     0.119 C 
BRANCH   8   9
ATOM      9  C   LIG d   1      -0.227  88.145 117.521  0.00  0.00     0.028 C 
ATOM     10  C   LIG d   1      -1.409  89.117 117.672  0.00  0.00     0.006 C 
ENDBRANCH   8   9
BRANCH   8  11
ATOM     11  C   LIG d   1       0.663  90.302 116.798  0.00  0.00     0.028 C 
ATOM     12  C   LIG d   1       1.551  91.342 117.500  0.00  0.00     0.006 C 
ENDBRANCH   8  11
ENDBRANCH   7   8
ENDBRANCH   1   7
BRANCH   6  13
ATOM     13  N   LIG d   1       3.268  87.461 113.542  0.00  0.00    -0.311 N 
ATOM     14  C   LIG d   1       2.613  87.815 112.437  0.00  0.00     0.210 C 
ATOM     15  C   LIG d   1       2.311  86.667 111.469  0.00  0.00     0.109 C 
ATOM     16  O   LIG d   1       2.282  88.976 112.152  0.00  0.00    -0.276 OA
ATOM     17  H   LIG d   1       3.525  86.503 113.676  0.00  0.00     0.149 HD
ENDBRANCH   6  13
BRANCH   5  18
ATOM     18  N   LIG d   1       5.796  89.176 113.550  0.00  0.00     0.381 N 
ATOM     19  H   LIG d   1       5.899  90.164 113.671  0.00  0.00    -0.090 HD
ATOM     20  H   LIG d   1       5.196  89.017 112.759  0.00  0.00    -0.090 HD
ATOM     21  H   LIG d   1       6.686  88.759 113.389  0.00  0.00    -0.090 HD
ENDBRANCH   5  18
BRANCH   3  22
ATOM     22  C   LIG d   1       5.427  89.436 118.318  0.00  0.00     0.382 C 
ATOM     23  O   LIG d   1       6.245  88.631 118.825  0.00  0.00    -0.241 OA
ATOM     24  O   LIG d   1       5.136  90.482 118.929  0.00  0.00    -0.241 OA
ENDBRANCH   3  22
TORSDOF 7
ENDMDL
MODEL 2
REMARK VINA RESULT:      -4.3      3.211      6.170
REMARK  7 active torsions:
REMARK  status: ('A' for Active; 'I' for Inactive)
REMARK    1  A    between atoms: C_2  and  C_3 
REMARK    2  A    between atoms: C_3  and  O_6 
REMARK    3  A    between atoms: C_3  and  C_4 
REMARK    4  A    between atoms: C_7  and  O_6 
REMARK    5  A    between atoms: C_9  and  C_10 
REMARK    6  A    between atoms: N_15  and  C_14 
REMARK    7  A    between atoms: N_20  and  C_19 
REMARK       I    between atoms: C_22  and  N_20 
ROOT
ATOM      1  C   LIG d   1       0.843  89.182 117.374  0.00  0.00     0.161 C 
ATOM      2  C   LIG d   1      -0.553  89.065 117.470  0.00  0.00     0.016 C 
ATOM      3  C   LIG d   1      -1.386  90.089 117.977  0.00  0.00     0.038 C 
ATOM      4  C   LIG d   1      -0.890  91.365 118.283  0.00  0.00     0.028 C 
ATOM      5  C   LIG d   1       0.583  91.364 118.678  0.00  0.00    -0.047 C 
ATOM      6  C   LIG d   1       1.391  90.607 117.599  0.00  0.00     0.091 C 
ENDROOT
BRANCH   1   7
ATOM      7  O   LIG d   1       1.289  88.668 116.103  0.00  0.00    -0.368 OA
BRANCH   7   8
ATOM      8  C   LIG d   1       2.136  87.494 116.151  0.00  0.00     0.119 C 
BRANCH   8   9
ATOM      9  C   LIG d   1       3.089  87.560 114.942  0.00  0.00     0.028 C 
ATOM     10  C   LIG d   1       3.615  88.982 114.687  0.00  0.00     0.006 C 
ENDBRANCH   8   9
BRANCH   8  11
ATOM     11  C   LIG d   1       1.321  86.211 115.956  0.00  0.00     0.028 C 
ATOM     12  C   LIG d   1       1.346  85.705 114.505  0.00  0.00     0.006 C 
ENDBRANCH   8  11
ENDBRANCH   7   8
ENDBRANCH   1   7
BRANCH   6  13
ATOM     13  N   LIG d   1       2.830  90.485 117.949  0.00  0.00    -0.311 N 
ATOM     14  C   LIG d   1       3.762  91.338 117.526  0.00  0.00     0.210 C 
ATOM     15  C   LIG d   1       5.187  91.019 117.986  0.00  0.00     0.109 C 
ATOM     16  O   LIG d   1       3.538  92.347 116.839  0.00  0.00    -0.276 OA
ATOM     17  H   LIG d   1       3.095  89.713 118.528  0.00  0.00     0.149 HD
ENDBRANCH   6  13
BRANCH   5  18
ATOM     18  N   LIG d   1       1.004  92.769 118.835  0.00  0.00     0.381 N 
ATOM     19  H   LIG d   1       1.141  92.974 119.805  0.00  0.00    -0.090 HD
ATOM     20  H   LIG d   1       0.276  93.367 118.486  0.00  0.00    -0.090 HD
ATOM     21  H   LIG d   1       1.847  92.930 118.331  0.00  0.00    -0.090 HD
ENDBRANCH   5  18
BRANCH   3  22
ATOM     22  C   LIG d   1      -2.726  89.828 118.220  0.00  0.00     0.382 C 
ATOM     23  O   LIG d   1      -3.193  88.685 117.995  0.00  0.00    -0.241 OA
ATOM     24  O   LIG d   1      -3.484  90.732 118.620  0.00  0.00    -0.241 OA
ENDBRANCH   3  22
TORSDOF 7
ENDMDL
MODEL 3
REMARK VINA RESULT:      -4.3      2.041      4.398
REMARK  7 active torsions:
REMARK  status: ('A' for Active; 'I' for Inactive)
REMARK    1  A    between atoms: C_2  and  C_3 
REMARK    2  A    between atoms: C_3  and  O_6 
REMARK    3  A    between atoms: C_3  and  C_4 
REMARK    4  A    between atoms: C_7  and  O_6 
REMARK    5  A    between atoms: C_9  and  C_10 
REMARK    6  A    between atoms: N_15  and  C_14 
REMARK    7  A    between atoms: N_20  and  C_19 
REMARK       I    between atoms: C_22  and  N_20 
ROOT
ATOM      1  C   LIG d   1       2.642  89.425 116.348  0.00  0.00     0.161 C 
ATOM      2  C   LIG d   1       2.424  88.852 115.084  0.00  0.00     0.016 C 
ATOM      3  C   LIG d   1       3.469  88.474 114.211  0.00  0.00     0.038 C 
ATOM      4  C   LIG d   1       4.814  88.504 114.607  0.00  0.00     0.028 C 
ATOM      5  C   LIG d   1       5.106  89.545 115.682  0.00  0.00    -0.047 C 
ATOM      6  C   LIG d   1       4.102  89.362 116.844  0.00  0.00     0.091 C 
ENDROOT
BRANCH   1   7
ATOM      7  O   LIG d   1       1.759  88.823 117.316  0.00  0.00    -0.368 OA
BRANCH   7   8
ATOM      8  C   LIG d   1       0.843  89.723 117.988  0.00  0.00     0.119 C 
BRANCH   8   9
ATOM      9  C   LIG d   1      -0.291  88.867 118.586  0.00  0.00     0.028 C 
ATOM     10  C   LIG d   1      -1.532  88.822 117.679  0.00  0.00     0.006 C 
ENDBRANCH   8   9
BRANCH   8  11
ATOM     11  C   LIG d   1       0.158  90.666 116.995  0.00  0.00     0.028 C 
ATOM     12  C   LIG d   1       0.099  92.118 117.496  0.00  0.00     0.006 C 
ENDBRANCH   8  11
ENDBRANCH   7   8
ENDBRANCH   1   7
BRANCH   6  13
ATOM     13  N   LIG d   1       4.263  90.395 117.900  0.00  0.00    -0.311 N 
ATOM     14  C   LIG d   1       3.976  91.682 117.717  0.00  0.00     0.210 C 
ATOM     15  C   LIG d   1       4.233  92.582 118.930  0.00  0.00     0.109 C 
ATOM     16  O   LIG d   1       3.502  92.160 116.675  0.00  0.00    -0.276 OA
ATOM     17  H   LIG d   1       4.613  90.089 118.787  0.00  0.00     0.149 HD
ENDBRANCH   6  13
BRANCH   5  18
ATOM     18  N   LIG d   1       6.510  89.374 116.100  0.00  0.00     0.381 N 
ATOM     19  H   LIG d   1       7.013  88.869 115.398  0.00  0.00    -0.090 HD
ATOM     20  H   LIG d   1       6.534  88.839 116.950  0.00  0.00    -0.090 HD
ATOM     21  H   LIG d   1       6.933  90.264 116.246  0.00  0.00    -0.090 HD
ENDBRANCH   5  18
BRANCH   3  22
ATOM     22  C   LIG d   1       3.175  88.097 112.909  0.00  0.00     0.382 C 
ATOM     23  O   LIG d   1       3.710  87.075 112.416  0.00  0.00    -0.241 OA
ATOM     24  O   LIG d   1       2.415  88.791 112.207  0.00  0.00    -0.241 OA
ENDBRANCH   3  22
TORSDOF 7
ENDMDL
MODEL 4
REMARK VINA RESULT:      -4.3      1.669      4.775
REMARK  7 active torsions:
REMARK  status: ('A' for Active; 'I' for Inactive)
REMARK    1  A    between atoms: C_2  and  C_3 
REMARK    2  A    between atoms: C_3  and  O_6 
REMARK    3  A    between atoms: C_3  and  C_4 
REMARK    4  A    between atoms: C_7  and  O_6 
REMARK    5  A    between atoms: C_9  and  C_10 
REMARK    6  A    between atoms: N_15  and  C_14 
REMARK    7  A    between atoms: N_20  and  C_19 
REMARK       I    between atoms: C_22  and  N_20 
ROOT
ATOM      1  C   LIG d   1       3.285  88.116 115.382  0.00  0.00     0.161 C 
ATOM      2  C   LIG d   1       2.551  87.505 114.352  0.00  0.00     0.016 C 
ATOM      3  C   LIG d   1       2.990  87.453 113.009  0.00  0.00     0.038 C 
ATOM      4  C   LIG d   1       4.272  87.879 112.631  0.00  0.00     0.028 C 
ATOM      5  C   LIG d   1       4.844  88.960 113.542  0.00  0.00    -0.047 C 
ATOM      6  C   LIG d   1       4.735  88.488 115.010  0.00  0.00     0.091 C 
ENDROOT
BRANCH   1   7
ATOM      7  O   LIG d   1       3.267  87.281 116.556  0.00  0.00    -0.368 OA
BRANCH   7   8
ATOM      8  C   LIG d   1       2.434  87.736 117.650  0.00  0.00     0.119 C 
BRANCH   8   9
ATOM      9  C   LIG d   1       1.125  86.924 117.605  0.00  0.00     0.028 C 
ATOM     10  C   LIG d   1      -0.105  87.806 117.334  0.00  0.00     0.006 C 
ENDBRANCH   8   9
BRANCH   8  11
ATOM     11  C   LIG d   1       2.012  89.196 117.459  0.00  0.00     0.028 C 
ATOM     12  C   LIG d   1       2.595  90.130 118.530  0.00  0.00     0.006 C 
ENDBRANCH   8  11
ENDBRANCH   7   8
ENDBRANCH   1   7
BRANCH   6  13
ATOM     13  N   LIG d   1       5.195  89.523 115.973  0.00  0.00    -0.311 N 
ATOM     14  C   LIG d   1       6.088  89.285 116.932  0.00  0.00     0.210 C 
ATOM     15  C   LIG d   1       6.408  90.485 117.829  0.00  0.00     0.109 C 
ATOM     16  O   LIG d   1       6.670  88.204 117.105  0.00  0.00    -0.276 OA
ATOM     17  H   LIG d   1       4.798  90.437 115.885  0.00  0.00     0.149 HD
ENDBRANCH   6  13
BRANCH   5  18
ATOM     18  N   LIG d   1       6.233  89.212 113.116  0.00  0.00     0.381 N 
ATOM     19  H   LIG d   1       6.383  88.830 112.204  0.00  0.00    -0.090 HD
ATOM     20  H   LIG d   1       6.857  88.753 113.756  0.00  0.00    -0.090 HD
ATOM     21  H   LIG d   1       6.416  90.191 113.109  0.00  0.00    -0.090 HD
ENDBRANCH   5  18
BRANCH   3  22
ATOM     22  C   LIG d   1       2.126  87.006 112.020  0.00  0.00     0.382 C 
ATOM     23  O   LIG d   1       1.163  87.723 111.658  0.00  0.00    -0.241 OA
ATOM     24  O   LIG d   1       2.272  85.875 111.518  0.00  0.00    -0.241 OA
ENDBRANCH   3  22
TORSDOF 7
ENDMDL
MODEL 5
REMARK VINA RESULT:      -4.1      8.008     10.875
REMARK  7 active torsions:
REMARK  status: ('A' for Active; 'I' for Inactive)
REMARK    1  A    between atoms: C_2  and  C_3 
REMARK    2  A    between atoms: C_3  and  O_6 
REMARK    3  A    between atoms: C_3  and  C_4 
REMARK    4  A    between atoms: C_7  and  O_6 
REMARK    5  A    between atoms: C_9  and  C_10 
REMARK    6  A    between atoms: N_15  and  C_14 
REMARK    7  A    between atoms: N_20  and  C_19 
REMARK       I    between atoms: C_22  and  N_20 
ROOT
ATOM      1  C   LIG d   1      -5.713  92.549 117.809  0.00  0.00     0.161 C 
ATOM      2  C   LIG d   1      -6.142  93.726 118.445  0.00  0.00     0.016 C 
ATOM      3  C   LIG d   1      -7.275  94.465 118.032  0.00  0.00     0.038 C 
ATOM      4  C   LIG d   1      -8.149  93.991 117.042  0.00  0.00     0.028 C 
ATOM      5  C   LIG d   1      -7.477  93.066 116.033  0.00  0.00    -0.047 C 
ATOM      6  C   LIG d   1      -6.717  91.957 116.798  0.00  0.00     0.091 C 
ENDROOT
BRANCH   1   7
ATOM      7  O   LIG d   1      -5.357  91.562 118.797  0.00  0.00    -0.368 OA
BRANCH   7   8
ATOM      8  C   LIG d   1      -3.947  91.244 118.900  0.00  0.00     0.119 C 
BRANCH   8   9
ATOM      9  C   LIG d   1      -3.163  92.398 118.246  0.00  0.00     0.028 C 
ATOM     10  C   LIG d   1      -1.648  92.293 118.494  0.00  0.00     0.006 C 
ENDBRANCH   8   9
BRANCH   8  11
ATOM     11  C   LIG d   1      -3.596  89.999 118.079  0.00  0.00     0.028 C 
ATOM     12  C   LIG d   1      -2.788  88.965 118.880  0.00  0.00     0.006 C 
ENDBRANCH   8  11
ENDBRANCH   7   8
ENDBRANCH   1   7
BRANCH   6  13
ATOM     13  N   LIG d   1      -5.962  91.057 115.888  0.00  0.00    -0.311 N 
ATOM     14  C   LIG d   1      -6.504  90.001 115.285  0.00  0.00     0.210 C 
ATOM     15  C   LIG d   1      -5.544  89.195 114.405  0.00  0.00     0.109 C 
ATOM     16  O   LIG d   1      -7.697  89.673 115.371  0.00  0.00    -0.276 OA
ATOM     17  H   LIG d   1      -4.995  91.268 115.738  0.00  0.00     0.149 HD
ENDBRANCH   6  13
BRANCH   5  18
ATOM     18  N   LIG d   1      -8.528  92.538 115.143  0.00  0.00     0.381 N 
ATOM     19  H   LIG d   1      -9.373  92.401 115.661  0.00  0.00    -0.090 HD
ATOM     20  H   LIG d   1      -8.232  91.649 114.782  0.00  0.00    -0.090 HD
ATOM     21  H   LIG d   1      -8.689  93.173 114.392  0.00  0.00    -0.090 HD
ENDBRANCH   5  18
BRANCH   3  22
ATOM     22  C   LIG d   1      -7.520  95.713 118.585  0.00  0.00     0.382 C 
ATOM     23  O   LIG d   1      -8.701  96.089 118.784  0.00  0.00    -0.241 OA
ATOM     24  O   LIG d   1      -6.578  96.484 118.847  0.00  0.00    -0.241 OA
ENDBRANCH   3  22
TORSDOF 7
ENDMDL
MODEL 6
REMARK VINA RESULT:      -4.0      2.111      4.696
REMARK  7 active torsions:
REMARK  status: ('A' for Active; 'I' for Inactive)
REMARK    1  A    between atoms: C_2  and  C_3 
REMARK    2  A    between atoms: C_3  and  O_6 
REMARK    3  A    between atoms: C_3  and  C_4 
REMARK    4  A    between atoms: C_7  and  O_6 
REMARK    5  A    between atoms: C_9  and  C_10 
REMARK    6  A    between atoms: N_15  and  C_14 
REMARK    7  A    between atoms: N_20  and  C_19 
REMARK       I    between atoms: C_22  and  N_20 
ROOT
ATOM      1  C   LIG d   1       2.731  89.589 116.344  0.00  0.00     0.161 C 
ATOM      2  C   LIG d   1       2.488  89.004 115.090  0.00  0.00     0.016 C 
ATOM      3  C   LIG d   1       3.505  88.453 114.278  0.00  0.00     0.038 C 
ATOM      4  C   LIG d   1       4.824  88.311 114.735  0.00  0.00     0.028 C 
ATOM      5  C   LIG d   1       5.213  89.342 115.789  0.00  0.00    -0.047 C 
ATOM      6  C   LIG d   1       4.146  89.344 116.908  0.00  0.00     0.091 C 
ENDROOT
BRANCH   1   7
ATOM      7  O   LIG d   1       1.733  89.152 117.288  0.00  0.00    -0.368 OA
BRANCH   7   8
ATOM      8  C   LIG d   1       1.038  87.924 116.959  0.00  0.00     0.119 C 
BRANCH   8   9
ATOM      9  C   LIG d   1      -0.391  88.036 117.524  0.00  0.00     0.028 C 
ATOM     10  C   LIG d   1      -0.840  89.496 117.701  0.00  0.00     0.006 C 
ENDBRANCH   8   9
BRANCH   8  11
ATOM     11  C   LIG d   1       1.663  86.722 117.672  0.00  0.00     0.028 C 
ATOM     12  C   LIG d   1       2.302  85.718 116.699  0.00  0.00     0.006 C 
ENDBRANCH   8  11
ENDBRANCH   7   8
ENDBRANCH   1   7
BRANCH   6  13
ATOM     13  N   LIG d   1       4.406  90.383 117.938  0.00  0.00    -0.311 N 
ATOM     14  C   LIG d   1       4.171  91.680 117.746  0.00  0.00     0.210 C 
ATOM     15  C   LIG d   1       4.528  92.584 118.930  0.00  0.00     0.109 C 
ATOM     16  O   LIG d   1       3.671  92.164 116.719  0.00  0.00    -0.276 OA
ATOM     17  H   LIG d   1       4.783  90.075 118.812  0.00  0.00     0.149 HD
ENDBRANCH   6  13
BRANCH   5  18
ATOM     18  N   LIG d   1       6.561  88.995 116.277  0.00  0.00     0.381 N 
ATOM     19  H   LIG d   1       7.199  88.953 115.507  0.00  0.00    -0.090 HD
ATOM     20  H   LIG d   1       6.527  88.087 116.707  0.00  0.00    -0.090 HD
ATOM     21  H   LIG d   1       6.870  89.673 116.938  0.00  0.00    -0.090 HD
ENDBRANCH   5  18
BRANCH   3  22
ATOM     22  C   LIG d   1       3.215  88.072 112.977  0.00  0.00     0.382 C 
ATOM     23  O   LIG d   1       2.414  88.749 112.289  0.00  0.00    -0.241 OA
ATOM     24  O   LIG d   1       3.711  87.034 112.497  0.00  0.00    -0.241 OA
ENDBRANCH   3  22
TORSDOF 7
ENDMDL
MODEL 7
REMARK VINA RESULT:      -4.0      2.383      4.996
REMARK  7 active torsions:
REMARK  status: ('A' for Active; 'I' for Inactive)
REMARK    1  A    between atoms: C_2  and  C_3 
REMARK    2  A    between atoms: C_3  and  O_6 
REMARK    3  A    between atoms: C_3  and  C_4 
REMARK    4  A    between atoms: C_7  and  O_6 
REMARK    5  A    between atoms: C_9  and  C_10 
REMARK    6  A    between atoms: N_15  and  C_14 
REMARK    7  A    between atoms: N_20  and  C_19 
REMARK       I    between atoms: C_22  and  N_20 
ROOT
ATOM      1  C   LIG d   1       4.686  89.548 115.602  0.00  0.00     0.161 C 
ATOM      2  C   LIG d   1       4.096  89.419 114.333  0.00  0.00     0.016 C 
ATOM      3  C   LIG d   1       3.584  88.199 113.833  0.00  0.00     0.038 C 
ATOM      4  C   LIG d   1       3.491  87.050 114.634  0.00  0.00     0.028 C 
ATOM      5  C   LIG d   1       4.534  87.001 115.746  0.00  0.00    -0.047 C 
ATOM      6  C   LIG d   1       4.493  88.332 116.532  0.00  0.00     0.091 C 
ENDROOT
BRANCH   1   7
ATOM      7  O   LIG d   1       4.210  90.748 116.242  0.00  0.00    -0.368 OA
BRANCH   7   8
ATOM      8  C   LIG d   1       3.315  90.560 117.365  0.00  0.00     0.119 C 
BRANCH   8   9
ATOM      9  C   LIG d   1       1.908  91.000 116.915  0.00  0.00     0.028 C 
ATOM     10  C   LIG d   1       1.418  92.252 117.660  0.00  0.00     0.006 C 
ENDBRANCH   8   9
BRANCH   8  11
ATOM     11  C   LIG d   1       3.677  91.488 118.528  0.00  0.00     0.028 C 
ATOM     12  C   LIG d   1       5.150  91.925 118.505  0.00  0.00     0.006 C 
ENDBRANCH   8  11
ENDBRANCH   7   8
ENDBRANCH   1   7
BRANCH   6  13
ATOM     13  N   LIG d   1       5.539  88.400 117.585  0.00  0.00    -0.311 N 
ATOM     14  C   LIG d   1       6.751  87.866 117.450  0.00  0.00     0.210 C 
ATOM     15  C   LIG d   1       7.670  88.033 118.664  0.00  0.00     0.109 C 
ATOM     16  O   LIG d   1       7.164  87.298 116.428  0.00  0.00    -0.276 OA
ATOM     17  H   LIG d   1       5.299  88.871 118.436  0.00  0.00     0.149 HD
ENDBRANCH   6  13
BRANCH   5  18
ATOM     18  N   LIG d   1       4.235  85.825 116.584  0.00  0.00     0.381 N 
ATOM     19  H   LIG d   1       4.086  85.024 116.004  0.00  0.00    -0.090 HD
ATOM     20  H   LIG d   1       3.392  86.000 117.102  0.00  0.00    -0.090 HD
ATOM     21  H   LIG d   1       4.990  85.653 117.212  0.00  0.00    -0.090 HD
ENDBRANCH   5  18
BRANCH   3  22
ATOM     22  C   LIG d   1       3.196  88.109 112.505  0.00  0.00     0.382 C 
ATOM     23  O   LIG d   1       3.855  87.403 111.705  0.00  0.00    -0.241 OA
ATOM     24  O   LIG d   1       2.220  88.761 112.087  0.00  0.00    -0.241 OA
ENDBRANCH   3  22
TORSDOF 7
ENDMDL
MODEL 8
REMARK VINA RESULT:      -3.7      2.971      4.956
REMARK  7 active torsions:
REMARK  status: ('A' for Active; 'I' for Inactive)
REMARK    1  A    between atoms: C_2  and  C_3 
REMARK    2  A    between atoms: C_3  and  O_6 
REMARK    3  A    between atoms: C_3  and  C_4 
REMARK    4  A    between atoms: C_7  and  O_6 
REMARK    5  A    between atoms: C_9  and  C_10 
REMARK    6  A    between atoms: N_15  and  C_14 
REMARK    7  A    between atoms: N_20  and  C_19 
REMARK       I    between atoms: C_22  and  N_20 
ROOT
ATOM      1  C   LIG d   1       2.012  88.197 116.198  0.00  0.00     0.161 C 
ATOM      2  C   LIG d   1       2.866  88.294 115.087  0.00  0.00     0.016 C 
ATOM      3  C   LIG d   1       3.831  89.316 114.933  0.00  0.00     0.038 C 
ATOM      4  C   LIG d   1       4.111  90.230 115.960  0.00  0.00     0.028 C 
ATOM      5  C   LIG d   1       2.928  90.479 116.889  0.00  0.00    -0.047 C 
ATOM      6  C   LIG d   1       2.380  89.120 117.378  0.00  0.00     0.091 C 
ENDROOT
BRANCH   1   7
ATOM      7  O   LIG d   1       1.937  86.826 116.638  0.00  0.00    -0.368 OA
BRANCH   7   8
ATOM      8  C   LIG d   1       2.905  86.424 117.638  0.00  0.00     0.119 C 
BRANCH   8   9
ATOM      9  C   LIG d   1       3.888  85.447 116.963  0.00  0.00     0.028 C 
ATOM     10  C   LIG d   1       5.274  86.074 116.733  0.00  0.00     0.006 C 
ENDBRANCH   8   9
BRANCH   8  11
ATOM     11  C   LIG d   1       2.245  85.621 118.762  0.00  0.00     0.028 C 
ATOM     12  C   LIG d   1       0.710  85.678 118.713  0.00  0.00     0.006 C 
ENDBRANCH   8  11
ENDBRANCH   7   8
ENDBRANCH   1   7
BRANCH   6  13
ATOM     13  N   LIG d   1       1.168  89.269 118.226  0.00  0.00    -0.311 N 
ATOM     14  C   LIG d   1       0.036  89.824 117.796  0.00  0.00     0.210 C 
ATOM     15  C   LIG d   1      -1.085  89.898 118.837  0.00  0.00     0.109 C 
ATOM     16  O   LIG d   1      -0.157  90.232 116.641  0.00  0.00    -0.276 OA
ATOM     17  H   LIG d   1       1.227  88.936 119.168  0.00  0.00     0.149 HD
ENDBRANCH   6  13
BRANCH   5  18
ATOM     18  N   LIG d   1       3.400  91.342 117.989  0.00  0.00     0.381 N 
ATOM     19  H   LIG d   1       2.718  91.361 118.721  0.00  0.00    -0.090 HD
ATOM     20  H   LIG d   1       3.515  92.278 117.641  0.00  0.00    -0.090 HD
ATOM     21  H   LIG d   1       4.267  91.002 118.341  0.00  0.00    -0.090 HD
ENDBRANCH   5  18
BRANCH   3  22
ATOM     22  C   LIG d   1       4.499  89.455 113.726  0.00  0.00     0.382 C 
ATOM     23  O   LIG d   1       3.999  90.152 112.810  0.00  0.00    -0.241 OA
ATOM     24  O   LIG d   1       5.573  88.857 113.526  0.00  0.00    -0.241 OA
ENDBRANCH   3  22
TORSDOF 7
ENDMDL
MODEL 9
REMARK VINA RESULT:      -3.6      2.336      5.003
REMARK  7 active torsions:
REMARK  status: ('A' for Active; 'I' for Inactive)
REMARK    1  A    between atoms: C_2  and  C_3 
REMARK    2  A    between atoms: C_3  and  O_6 
REMARK    3  A    between atoms: C_3  and  C_4 
REMARK    4  A    between atoms: C_7  and  O_6 
REMARK    5  A    between atoms: C_9  and  C_10 
REMARK    6  A    between atoms: N_15  and  C_14 
REMARK    7  A    between atoms: N_20  and  C_19 
REMARK       I    between atoms: C_22  and  N_20 
ROOT
ATOM      1  C   LIG d   1       2.950  88.200 115.506  0.00  0.00     0.161 C 
ATOM      2  C   LIG d   1       2.406  87.424 114.470  0.00  0.00     0.016 C 
ATOM      3  C   LIG d   1       2.969  87.349 113.175  0.00  0.00     0.038 C 
ATOM      4  C   LIG d   1       4.208  87.931 112.870  0.00  0.00     0.028 C 
ATOM      5  C   LIG d   1       4.539  89.140 113.739  0.00  0.00    -0.047 C 
ATOM      6  C   LIG d   1       4.363  88.754 115.225  0.00  0.00     0.091 C 
ENDROOT
BRANCH   1   7
ATOM      7  O   LIG d   1       2.942  87.449 116.736  0.00  0.00    -0.368 OA
BRANCH   7   8
ATOM      8  C   LIG d   1       2.976  86.007 116.602  0.00  0.00     0.119 C 
BRANCH   8   9
ATOM      9  C   LIG d   1       1.890  85.430 117.530  0.00  0.00     0.028 C 
ATOM     10  C   LIG d   1       0.803  86.462 117.874  0.00  0.00     0.006 C 
ENDBRANCH   8   9
BRANCH   8  11
ATOM     11  C   LIG d   1       4.298  85.430 117.118  0.00  0.00     0.028 C 
ATOM     12  C   LIG d   1       5.088  86.429 117.978  0.00  0.00     0.006 C 
ENDBRANCH   8  11
ENDBRANCH   7   8
ENDBRANCH   1   7
BRANCH   6  13
ATOM     13  N   LIG d   1       4.585  89.904 116.140  0.00  0.00    -0.311 N 
ATOM     14  C   LIG d   1       3.636  90.783 116.457  0.00  0.00     0.210 C 
ATOM     15  C   LIG d   1       4.082  91.904 117.401  0.00  0.00     0.109 C 
ATOM     16  O   LIG d   1       2.459  90.722 116.071  0.00  0.00    -0.276 OA
ATOM     17  H   LIG d   1       5.504  90.011 116.523  0.00  0.00     0.149 HD
ENDBRANCH   6  13
BRANCH   5  18
ATOM     18  N   LIG d   1       5.913  89.563 113.410  0.00  0.00     0.381 N 
ATOM     19  H   LIG d   1       6.096  90.462 113.808  0.00  0.00    -0.090 HD
ATOM     20  H   LIG d   1       6.000  89.637 112.411  0.00  0.00    -0.090 HD
ATOM     21  H   LIG d   1       6.567  88.898 113.759  0.00  0.00    -0.090 HD
ENDBRANCH   5  18
BRANCH   3  22
ATOM     22  C   LIG d   1       2.269  86.718 112.157  0.00  0.00     0.382 C 
ATOM     23  O   LIG d   1       1.382  87.342 111.526  0.00  0.00    -0.241 OA
ATOM     24  O   LIG d   1       2.484  85.521 111.891  0.00  0.00    -0.241 OA
ENDBRANCH   3  22
TORSDOF 7
ENDMDL
