MODEL 1
REMARK VINA RESULT:      -4.4      0.000      0.000
REMARK  7 active torsions:
REMARK  status: ('A' for Active; 'I' for Inactive)
REMARK    1  A    between atoms: C_2  and  C_3 
REMARK    2  A    between atoms: C_3  and  O_6 
REMARK    3  A    between atoms: C_3  and  C_4 
REMARK    4  A    between atoms: C_7  and  O_6 
REMARK    5  A    between atoms: C_9  and  C_10 
REMARK    6  A    between atoms: N_15  and  C_14 
REMARK    7  A    between atoms: N_20  and  C_19 
REMARK       I    between atoms: C_22  and  N_20 
ROOT
ATOM      1  C   LIG d   1       4.247  88.706 115.921  0.00  0.00     0.161 C 
ATOM      2  C   LIG d   1       3.368  88.445 114.857  0.00  0.00     0.016 C 
ATOM      3  C   LIG d   1       3.737  88.555 113.497  0.00  0.00     0.038 C 
ATOM      4  C   LIG d   1       5.064  88.790 113.106  0.00  0.00     0.028 C 
ATOM      5  C   LIG d   1       5.875  89.557 114.145  0.00  0.00    -0.047 C 
ATOM      6  C   LIG d   1       5.728  88.855 115.514  0.00  0.00     0.091 C 
ENDROOT
BRANCH   1   7
ATOM      7  O   LIG d   1       4.106  87.690 116.933  0.00  0.00    -0.368 OA
BRANCH   7   8
ATOM      8  C   LIG d   1       3.801  86.355 116.458  0.00  0.00     0.119 C 
BRANCH   8   9
ATOM      9  C   LIG d   1       2.740  85.758 117.402  0.00  0.00     0.028 C 
ATOM     10  C   LIG d   1       1.311  86.173 117.016  0.00  0.00     0.006 C 
ENDBRANCH   8   9
BRANCH   8  11
ATOM     11  C   LIG d   1       5.017  85.431 116.577  0.00  0.00     0.028 C 
ATOM     12  C   LIG d   1       5.989  85.865 117.685  0.00  0.00     0.006 C 
ENDBRANCH   8  11
ENDBRANCH   7   8
ENDBRANCH   1   7
BRANCH   6  13
ATOM     13  N   LIG d   1       6.422  89.589 116.604  0.00  0.00    -0.311 N 
ATOM     14  C   LIG d   1       7.658  89.301 117.011  0.00  0.00     0.210 C 
ATOM     15  C   LIG d   1       8.178  90.167 118.162  0.00  0.00     0.109 C 
ATOM     16  O   LIG d   1       8.384  88.433 116.505  0.00  0.00    -0.276 OA
ATOM     17  H   LIG d   1       5.917  90.331 117.049  0.00  0.00     0.149 HD
ENDBRANCH   6  13
BRANCH   5  18
ATOM     18  N   LIG d   1       7.270  89.612 113.669  0.00  0.00     0.381 N 
ATOM     19  H   LIG d   1       7.865  89.941 114.403  0.00  0.00    -0.090 HD
ATOM     20  H   LIG d   1       7.327  90.258 112.903  0.00  0.00    -0.090 HD
ATOM     21  H   LIG d   1       7.565  88.707 113.373  0.00  0.00    -0.090 HD
ENDBRANCH   5  18
BRANCH   3  22
ATOM     22  C   LIG d   1       2.765  88.470 112.512  0.00  0.00     0.382 C 
ATOM     23  O   LIG d   1       2.787  87.521 111.691  0.00  0.00    -0.241 OA
ATOM     24  O   LIG d   1       1.894  89.353 112.406  0.00  0.00    -0.241 OA
ENDBRANCH   3  22
TORSDOF 7
ENDMDL
MODEL 2
REMARK VINA RESULT:      -4.3      1.225      1.973
REMARK  7 active torsions:
REMARK  status: ('A' for Active; 'I' for Inactive)
REMARK    1  A    between atoms: C_2  and  C_3 
REMARK    2  A    between atoms: C_3  and  O_6 
REMARK    3  A    between atoms: C_3  and  C_4 
REMARK    4  A    between atoms: C_7  and  O_6 
REMARK    5  A    between atoms: C_9  and  C_10 
REMARK    6  A    between atoms: N_15  and  C_14 
REMARK    7  A    between atoms: N_20  and  C_19 
REMARK       I    between atoms: C_22  and  N_20 
ROOT
ATOM      1  C   LIG d   1       4.089  88.605 115.830  0.00  0.00     0.161 C 
ATOM      2  C   LIG d   1       3.235  88.361 114.742  0.00  0.00     0.016 C 
ATOM      3  C   LIG d   1       3.636  88.496 113.393  0.00  0.00     0.038 C 
ATOM      4  C   LIG d   1       4.971  88.740 113.037  0.00  0.00     0.028 C 
ATOM      5  C   LIG d   1       5.756  89.490 114.108  0.00  0.00    -0.047 C 
ATOM      6  C   LIG d   1       5.578  88.763 115.461  0.00  0.00     0.091 C 
ENDROOT
BRANCH   1   7
ATOM      7  O   LIG d   1       3.926  87.570 116.821  0.00  0.00    -0.368 OA
BRANCH   7   8
ATOM      8  C   LIG d   1       3.258  87.960 118.046  0.00  0.00     0.119 C 
BRANCH   8   9
ATOM      9  C   LIG d   1       1.874  87.285 118.054  0.00  0.00     0.028 C 
ATOM     10  C   LIG d   1       1.867  85.949 117.291  0.00  0.00     0.006 C 
ENDBRANCH   8   9
BRANCH   8  11
ATOM     11  C   LIG d   1       2.975  89.465 118.072  0.00  0.00     0.028 C 
ATOM     12  C   LIG d   1       1.483  89.788 118.249  0.00  0.00     0.006 C 
ENDBRANCH   8  11
ENDBRANCH   7   8
ENDBRANCH   1   7
BRANCH   6  13
ATOM     13  N   LIG d   1       6.246  89.479 116.580  0.00  0.00    -0.311 N 
ATOM     14  C   LIG d   1       7.479  89.199 116.997  0.00  0.00     0.210 C 
ATOM     15  C   LIG d   1       7.969  90.042 118.178  0.00  0.00     0.109 C 
ATOM     16  O   LIG d   1       8.226  88.355 116.479  0.00  0.00    -0.276 OA
ATOM     17  H   LIG d   1       5.723  90.201 117.036  0.00  0.00     0.149 HD
ENDBRANCH   6  13
BRANCH   5  18
ATOM     18  N   LIG d   1       7.162  89.554 113.666  0.00  0.00     0.381 N 
ATOM     19  H   LIG d   1       7.767  89.553 114.463  0.00  0.00    -0.090 HD
ATOM     20  H   LIG d   1       7.305  90.412 113.162  0.00  0.00    -0.090 HD
ATOM     21  H   LIG d   1       7.371  88.777 113.079  0.00  0.00    -0.090 HD
ENDBRANCH   5  18
BRANCH   3  22
ATOM     22  C   LIG d   1       2.687  88.426 112.384  0.00  0.00     0.382 C 
ATOM     23  O   LIG d   1       1.798  89.307 112.297  0.00  0.00    -0.241 OA
ATOM     24  O   LIG d   1       2.683  87.470 111.586  0.00  0.00    -0.241 OA
ENDBRANCH   3  22
TORSDOF 7
ENDMDL
MODEL 3
REMARK VINA RESULT:      -4.2      1.101      1.588
REMARK  7 active torsions:
REMARK  status: ('A' for Active; 'I' for Inactive)
REMARK    1  A    between atoms: C_2  and  C_3 
REMARK    2  A    between atoms: C_3  and  O_6 
REMARK    3  A    between atoms: C_3  and  C_4 
REMARK    4  A    between atoms: C_7  and  O_6 
REMARK    5  A    between atoms: C_9  and  C_10 
REMARK    6  A    between atoms: N_15  and  C_14 
REMARK    7  A    between atoms: N_20  and  C_19 
REMARK       I    between atoms: C_22  and  N_20 
ROOT
ATOM      1  C   LIG d   1       4.153  88.634 115.845  0.00  0.00     0.161 C 
ATOM      2  C   LIG d   1       3.290  88.363 114.771  0.00  0.00     0.016 C 
ATOM      3  C   LIG d   1       3.676  88.471 113.415  0.00  0.00     0.038 C 
ATOM      4  C   LIG d   1       5.006  88.713 113.040  0.00  0.00     0.028 C 
ATOM      5  C   LIG d   1       5.799  89.489 114.087  0.00  0.00    -0.047 C 
ATOM      6  C   LIG d   1       5.638  88.791 115.457  0.00  0.00     0.091 C 
ENDROOT
BRANCH   1   7
ATOM      7  O   LIG d   1       4.005  87.620 116.859  0.00  0.00    -0.368 OA
BRANCH   7   8
ATOM      8  C   LIG d   1       2.646  87.232 117.177  0.00  0.00     0.119 C 
BRANCH   8   9
ATOM      9  C   LIG d   1       2.128  88.202 118.257  0.00  0.00     0.028 C 
ATOM     10  C   LIG d   1       1.010  89.120 117.733  0.00  0.00     0.006 C 
ENDBRANCH   8   9
BRANCH   8  11
ATOM     11  C   LIG d   1       2.600  85.844 117.824  0.00  0.00     0.028 C 
ATOM     12  C   LIG d   1       1.181  85.430 118.246  0.00  0.00     0.006 C 
ENDBRANCH   8  11
ENDBRANCH   7   8
ENDBRANCH   1   7
BRANCH   6  13
ATOM     13  N   LIG d   1       6.314  89.533 116.554  0.00  0.00    -0.311 N 
ATOM     14  C   LIG d   1       7.540  89.245 116.987  0.00  0.00     0.210 C 
ATOM     15  C   LIG d   1       8.040  90.120 118.140  0.00  0.00     0.109 C 
ATOM     16  O   LIG d   1       8.273  88.369 116.504  0.00  0.00    -0.276 OA
ATOM     17  H   LIG d   1       5.803  90.280 116.981  0.00  0.00     0.149 HD
ENDBRANCH   6  13
BRANCH   5  18
ATOM     18  N   LIG d   1       7.200  89.550 113.630  0.00  0.00     0.381 N 
ATOM     19  H   LIG d   1       7.255  90.062 112.772  0.00  0.00    -0.090 HD
ATOM     20  H   LIG d   1       7.528  88.615 113.460  0.00  0.00    -0.090 HD
ATOM     21  H   LIG d   1       7.766  89.987 114.323  0.00  0.00    -0.090 HD
ENDBRANCH   5  18
BRANCH   3  22
ATOM     22  C   LIG d   1       2.718  88.376 112.417  0.00  0.00     0.382 C 
ATOM     23  O   LIG d   1       2.710  87.385 111.648  0.00  0.00    -0.241 OA
ATOM     24  O   LIG d   1       1.888  89.290 112.249  0.00  0.00    -0.241 OA
ENDBRANCH   3  22
TORSDOF 7
ENDMDL
MODEL 4
REMARK VINA RESULT:      -4.2      2.015      5.400
REMARK  7 active torsions:
REMARK  status: ('A' for Active; 'I' for Inactive)
REMARK    1  A    between atoms: C_2  and  C_3 
REMARK    2  A    between atoms: C_3  and  O_6 
REMARK    3  A    between atoms: C_3  and  C_4 
REMARK    4  A    between atoms: C_7  and  O_6 
REMARK    5  A    between atoms: C_9  and  C_10 
REMARK    6  A    between atoms: N_15  and  C_14 
REMARK    7  A    between atoms: N_20  and  C_19 
REMARK       I    between atoms: C_22  and  N_20 
ROOT
ATOM      1  C   LIG d   1       4.866  88.112 116.155  0.00  0.00     0.161 C 
ATOM      2  C   LIG d   1       5.939  88.403 117.014  0.00  0.00     0.016 C 
ATOM      3  C   LIG d   1       7.118  89.060 116.591  0.00  0.00     0.038 C 
ATOM      4  C   LIG d   1       7.240  89.609 115.306  0.00  0.00     0.028 C 
ATOM      5  C   LIG d   1       6.389  88.898 114.260  0.00  0.00    -0.047 C 
ATOM      6  C   LIG d   1       4.935  88.802 114.777  0.00  0.00     0.091 C 
ENDROOT
BRANCH   1   7
ATOM      7  O   LIG d   1       3.619  88.423 116.809  0.00  0.00    -0.368 OA
BRANCH   7   8
ATOM      8  C   LIG d   1       3.065  89.733 116.535  0.00  0.00     0.119 C 
BRANCH   8   9
ATOM      9  C   LIG d   1       3.171  90.561 117.830  0.00  0.00     0.028 C 
ATOM     10  C   LIG d   1       4.250  91.653 117.743  0.00  0.00     0.006 C 
ENDBRANCH   8   9
BRANCH   8  11
ATOM     11  C   LIG d   1       1.567  89.652 116.226  0.00  0.00     0.028 C 
ATOM     12  C   LIG d   1       0.744  90.702 116.988  0.00  0.00     0.006 C 
ENDBRANCH   8  11
ENDBRANCH   7   8
ENDBRANCH   1   7
BRANCH   6  13
ATOM     13  N   LIG d   1       4.053  88.046 113.850  0.00  0.00    -0.311 N 
ATOM     14  C   LIG d   1       3.266  88.629 112.948  0.00  0.00     0.210 C 
ATOM     15  C   LIG d   1       2.422  87.666 112.107  0.00  0.00     0.109 C 
ATOM     16  O   LIG d   1       3.210  89.851 112.742  0.00  0.00    -0.276 OA
ATOM     17  H   LIG d   1       4.059  87.048 113.928  0.00  0.00     0.149 HD
ENDBRANCH   6  13
BRANCH   5  18
ATOM     18  N   LIG d   1       6.506  89.656 113.000  0.00  0.00     0.381 N 
ATOM     19  H   LIG d   1       5.880  89.278 112.317  0.00  0.00    -0.090 HD
ATOM     20  H   LIG d   1       7.444  89.566 112.652  0.00  0.00    -0.090 HD
ATOM     21  H   LIG d   1       6.294  90.617 113.159  0.00  0.00    -0.090 HD
ENDBRANCH   5  18
BRANCH   3  22
ATOM     22  C   LIG d   1       8.206  89.138 117.447  0.00  0.00     0.382 C 
ATOM     23  O   LIG d   1       9.124  89.961 117.220  0.00  0.00    -0.241 OA
ATOM     24  O   LIG d   1       8.302  88.364 118.419  0.00  0.00    -0.241 OA
ENDBRANCH   3  22
TORSDOF 7
ENDMDL
MODEL 5
REMARK VINA RESULT:      -4.0      2.610      3.591
REMARK  7 active torsions:
REMARK  status: ('A' for Active; 'I' for Inactive)
REMARK    1  A    between atoms: C_2  and  C_3 
REMARK    2  A    between atoms: C_3  and  O_6 
REMARK    3  A    between atoms: C_3  and  C_4 
REMARK    4  A    between atoms: C_7  and  O_6 
REMARK    5  A    between atoms: C_9  and  C_10 
REMARK    6  A    between atoms: N_15  and  C_14 
REMARK    7  A    between atoms: N_20  and  C_19 
REMARK       I    between atoms: C_22  and  N_20 
ROOT
ATOM      1  C   LIG d   1       2.893  89.796 115.645  0.00  0.00     0.161 C 
ATOM      2  C   LIG d   1       2.562  89.060 114.495  0.00  0.00     0.016 C 
ATOM      3  C   LIG d   1       3.517  88.382 113.704  0.00  0.00     0.038 C 
ATOM      4  C   LIG d   1       4.859  88.267 114.096  0.00  0.00     0.028 C 
ATOM      5  C   LIG d   1       5.331  89.416 114.980  0.00  0.00    -0.047 C 
ATOM      6  C   LIG d   1       4.336  89.590 116.151  0.00  0.00     0.091 C 
ENDROOT
BRANCH   1   7
ATOM      7  O   LIG d   1       1.949  89.512 116.696  0.00  0.00    -0.368 OA
BRANCH   7   8
ATOM      8  C   LIG d   1       0.903  90.495 116.896  0.00  0.00     0.119 C 
BRANCH   8   9
ATOM      9  C   LIG d   1       1.269  91.311 118.151  0.00  0.00     0.028 C 
ATOM     10  C   LIG d   1       1.807  92.709 117.806  0.00  0.00     0.006 C 
ENDBRANCH   8   9
BRANCH   8  11
ATOM     11  C   LIG d   1      -0.435  89.826 117.223  0.00  0.00     0.028 C 
ATOM     12  C   LIG d   1      -0.311  88.306 117.415  0.00  0.00     0.006 C 
ENDBRANCH   8  11
ENDBRANCH   7   8
ENDBRANCH   1   7
BRANCH   6  13
ATOM     13  N   LIG d   1       4.679  90.748 117.018  0.00  0.00    -0.311 N 
ATOM     14  C   LIG d   1       5.400  90.641 118.132  0.00  0.00     0.210 C 
ATOM     15  C   LIG d   1       5.620  91.955 118.888  0.00  0.00     0.109 C 
ATOM     16  O   LIG d   1       5.905  89.588 118.550  0.00  0.00    -0.276 OA
ATOM     17  H   LIG d   1       4.335  91.646 116.737  0.00  0.00     0.149 HD
ENDBRANCH   6  13
BRANCH   5  18
ATOM     18  N   LIG d   1       6.701  89.100 115.428  0.00  0.00     0.381 N 
ATOM     19  H   LIG d   1       6.667  88.468 116.202  0.00  0.00    -0.090 HD
ATOM     20  H   LIG d   1       7.147  89.947 115.732  0.00  0.00    -0.090 HD
ATOM     21  H   LIG d   1       7.218  88.693 114.680  0.00  0.00    -0.090 HD
ENDBRANCH   5  18
BRANCH   3  22
ATOM     22  C   LIG d   1       3.139  87.842 112.483  0.00  0.00     0.382 C 
ATOM     23  O   LIG d   1       3.973  87.209 111.793  0.00  0.00    -0.241 OA
ATOM     24  O   LIG d   1       1.987  88.018 112.044  0.00  0.00    -0.241 OA
ENDBRANCH   3  22
TORSDOF 7
ENDMDL
MODEL 6
REMARK VINA RESULT:      -4.0      2.360      3.513
REMARK  7 active torsions:
REMARK  status: ('A' for Active; 'I' for Inactive)
REMARK    1  A    between atoms: C_2  and  C_3 
REMARK    2  A    between atoms: C_3  and  O_6 
REMARK    3  A    between atoms: C_3  and  C_4 
REMARK    4  A    between atoms: C_7  and  O_6 
REMARK    5  A    between atoms: C_9  and  C_10 
REMARK    6  A    between atoms: N_15  and  C_14 
REMARK    7  A    between atoms: N_20  and  C_19 
REMARK       I    between atoms: C_22  and  N_20 
ROOT
ATOM      1  C   LIG d   1       4.253  89.747 114.831  0.00  0.00     0.161 C 
ATOM      2  C   LIG d   1       3.518  89.269 113.734  0.00  0.00     0.016 C 
ATOM      3  C   LIG d   1       3.333  87.894 113.461  0.00  0.00     0.038 C 
ATOM      4  C   LIG d   1       3.747  86.897 114.358  0.00  0.00     0.028 C 
ATOM      5  C   LIG d   1       4.932  87.314 115.221  0.00  0.00    -0.047 C 
ATOM      6  C   LIG d   1       4.618  88.676 115.881  0.00  0.00     0.091 C 
ENDROOT
BRANCH   1   7
ATOM      7  O   LIG d   1       3.548  90.839 115.454  0.00  0.00    -0.368 OA
BRANCH   7   8
ATOM      8  C   LIG d   1       2.942  90.557 116.739  0.00  0.00     0.119 C 
BRANCH   8   9
ATOM      9  C   LIG d   1       1.430  90.373 116.508  0.00  0.00     0.028 C 
ATOM     10  C   LIG d   1       0.938  88.977 116.926  0.00  0.00     0.006 C 
ENDBRANCH   8   9
BRANCH   8  11
ATOM     11  C   LIG d   1       3.065  91.753 117.688  0.00  0.00     0.028 C 
ATOM     12  C   LIG d   1       1.777  92.587 117.765  0.00  0.00     0.006 C 
ENDBRANCH   8  11
ENDBRANCH   7   8
ENDBRANCH   1   7
BRANCH   6  13
ATOM     13  N   LIG d   1       5.760  89.198 116.677  0.00  0.00    -0.311 N 
ATOM     14  C   LIG d   1       5.904  88.978 117.983  0.00  0.00     0.210 C 
ATOM     15  C   LIG d   1       7.142  89.623 118.614  0.00  0.00     0.109 C 
ATOM     16  O   LIG d   1       5.142  88.284 118.672  0.00  0.00    -0.276 OA
ATOM     17  H   LIG d   1       6.442  89.745 116.191  0.00  0.00     0.149 HD
ENDBRANCH   6  13
BRANCH   5  18
ATOM     18  N   LIG d   1       5.170  86.238 116.201  0.00  0.00     0.381 N 
ATOM     19  H   LIG d   1       6.062  85.817 116.032  0.00  0.00    -0.090 HD
ATOM     20  H   LIG d   1       4.462  85.534 116.089  0.00  0.00    -0.090 HD
ATOM     21  H   LIG d   1       5.139  86.606 117.127  0.00  0.00    -0.090 HD
ENDBRANCH   5  18
BRANCH   3  22
ATOM     22  C   LIG d   1       2.762  87.503 112.259  0.00  0.00     0.382 C 
ATOM     23  O   LIG d   1       1.560  87.772 112.019  0.00  0.00    -0.241 OA
ATOM     24  O   LIG d   1       3.421  86.845 111.432  0.00  0.00    -0.241 OA
ENDBRANCH   3  22
TORSDOF 7
ENDMDL
MODEL 7
REMARK VINA RESULT:      -3.9      2.307      3.988
REMARK  7 active torsions:
REMARK  status: ('A' for Active; 'I' for Inactive)
REMARK    1  A    between atoms: C_2  and  C_3 
REMARK    2  A    between atoms: C_3  and  O_6 
REMARK    3  A    between atoms: C_3  and  C_4 
REMARK    4  A    between atoms: C_7  and  O_6 
REMARK    5  A    between atoms: C_9  and  C_10 
REMARK    6  A    between atoms: N_15  and  C_14 
REMARK    7  A    between atoms: N_20  and  C_19 
REMARK       I    between atoms: C_22  and  N_20 
ROOT
ATOM      1  C   LIG d   1       4.495  88.247 116.241  0.00  0.00     0.161 C 
ATOM      2  C   LIG d   1       3.166  88.700 116.203  0.00  0.00     0.016 C 
ATOM      3  C   LIG d   1       2.729  89.882 116.845  0.00  0.00     0.038 C 
ATOM      4  C   LIG d   1       3.627  90.775 117.446  0.00  0.00     0.028 C 
ATOM      5  C   LIG d   1       4.904  90.107 117.945  0.00  0.00    -0.047 C 
ATOM      6  C   LIG d   1       5.511  89.266 116.798  0.00  0.00     0.091 C 
ENDROOT
BRANCH   1   7
ATOM      7  O   LIG d   1       4.898  87.804 114.930  0.00  0.00    -0.368 OA
BRANCH   7   8
ATOM      8  C   LIG d   1       4.186  88.391 113.813  0.00  0.00     0.119 C 
BRANCH   8   9
ATOM      9  C   LIG d   1       4.182  87.355 112.671  0.00  0.00     0.028 C 
ATOM     10  C   LIG d   1       2.798  87.211 112.015  0.00  0.00     0.006 C 
ENDBRANCH   8   9
BRANCH   8  11
ATOM     11  C   LIG d   1       4.931  89.607 113.254  0.00  0.00     0.028 C 
ATOM     12  C   LIG d   1       6.457  89.484 113.388  0.00  0.00     0.006 C 
ENDBRANCH   8  11
ENDBRANCH   7   8
ENDBRANCH   1   7
BRANCH   6  13
ATOM     13  N   LIG d   1       6.718  88.511 117.226  0.00  0.00    -0.311 N 
ATOM     14  C   LIG d   1       7.960  88.963 117.064  0.00  0.00     0.210 C 
ATOM     15  C   LIG d   1       9.061  88.018 117.557  0.00  0.00     0.109 C 
ATOM     16  O   LIG d   1       8.254  90.070 116.588  0.00  0.00    -0.276 OA
ATOM     17  H   LIG d   1       6.569  87.617 117.650  0.00  0.00     0.149 HD
ENDBRANCH   6  13
BRANCH   5  18
ATOM     18  N   LIG d   1       5.807  91.171 118.422  0.00  0.00     0.381 N 
ATOM     19  H   LIG d   1       5.587  91.403 119.370  0.00  0.00    -0.090 HD
ATOM     20  H   LIG d   1       5.671  91.991 117.857  0.00  0.00    -0.090 HD
ATOM     21  H   LIG d   1       6.755  90.869 118.358  0.00  0.00    -0.090 HD
ENDBRANCH   5  18
BRANCH   3  22
ATOM     22  C   LIG d   1       1.372  90.159 116.925  0.00  0.00     0.382 C 
ATOM     23  O   LIG d   1       0.819  90.267 118.046  0.00  0.00    -0.241 OA
ATOM     24  O   LIG d   1       0.686  90.257 115.890  0.00  0.00    -0.241 OA
ENDBRANCH   3  22
TORSDOF 7
ENDMDL
MODEL 8
REMARK VINA RESULT:      -3.8      1.898      4.988
REMARK  7 active torsions:
REMARK  status: ('A' for Active; 'I' for Inactive)
REMARK    1  A    between atoms: C_2  and  C_3 
REMARK    2  A    between atoms: C_3  and  O_6 
REMARK    3  A    between atoms: C_3  and  C_4 
REMARK    4  A    between atoms: C_7  and  O_6 
REMARK    5  A    between atoms: C_9  and  C_10 
REMARK    6  A    between atoms: N_15  and  C_14 
REMARK    7  A    between atoms: N_20  and  C_19 
REMARK       I    between atoms: C_22  and  N_20 
ROOT
ATOM      1  C   LIG d   1       4.107  87.131 115.724  0.00  0.00     0.161 C 
ATOM      2  C   LIG d   1       5.046  87.486 116.706  0.00  0.00     0.016 C 
ATOM      3  C   LIG d   1       5.999  88.517 116.536  0.00  0.00     0.038 C 
ATOM      4  C   LIG d   1       5.978  89.369 115.422  0.00  0.00     0.028 C 
ATOM      5  C   LIG d   1       5.372  88.726 114.179  0.00  0.00    -0.047 C 
ATOM      6  C   LIG d   1       3.997  88.123 114.547  0.00  0.00     0.091 C 
ENDROOT
BRANCH   1   7
ATOM      7  O   LIG d   1       2.816  86.930 116.332  0.00  0.00    -0.368 OA
BRANCH   7   8
ATOM      8  C   LIG d   1       2.442  87.878 117.362  0.00  0.00     0.119 C 
BRANCH   8   9
ATOM      9  C   LIG d   1       1.665  87.102 118.444  0.00  0.00     0.028 C 
ATOM     10  C   LIG d   1       1.472  85.621 118.080  0.00  0.00     0.006 C 
ENDBRANCH   8   9
BRANCH   8  11
ATOM     11  C   LIG d   1       1.459  88.923 116.828  0.00  0.00     0.028 C 
ATOM     12  C   LIG d   1       2.049  90.342 116.809  0.00  0.00     0.006 C 
ENDBRANCH   8  11
ENDBRANCH   7   8
ENDBRANCH   1   7
BRANCH   6  13
ATOM     13  N   LIG d   1       3.372  87.401 113.408  0.00  0.00    -0.311 N 
ATOM     14  C   LIG d   1       2.567  87.986 112.522  0.00  0.00     0.210 C 
ATOM     15  C   LIG d   1       2.014  87.055 111.438  0.00  0.00     0.109 C 
ATOM     16  O   LIG d   1       2.284  89.193 112.513  0.00  0.00    -0.276 OA
ATOM     17  H   LIG d   1       3.573  86.424 113.321  0.00  0.00     0.149 HD
ENDBRANCH   6  13
BRANCH   5  18
ATOM     18  N   LIG d   1       5.287  89.766 113.136  0.00  0.00     0.381 N 
ATOM     19  H   LIG d   1       4.677  90.500 113.438  0.00  0.00    -0.090 HD
ATOM     20  H   LIG d   1       4.901  89.359 112.302  0.00  0.00    -0.090 HD
ATOM     21  H   LIG d   1       6.193  90.134 112.947  0.00  0.00    -0.090 HD
ENDBRANCH   5  18
BRANCH   3  22
ATOM     22  C   LIG d   1       7.012  88.677 117.469  0.00  0.00     0.382 C 
ATOM     23  O   LIG d   1       8.110  88.092 117.309  0.00  0.00    -0.241 OA
ATOM     24  O   LIG d   1       6.826  89.364 118.492  0.00  0.00    -0.241 OA
ENDBRANCH   3  22
TORSDOF 7
ENDMDL
MODEL 9
REMARK VINA RESULT:      -3.8      2.606      5.032
REMARK  7 active torsions:
REMARK  status: ('A' for Active; 'I' for Inactive)
REMARK    1  A    between atoms: C_2  and  C_3 
REMARK    2  A    between atoms: C_3  and  O_6 
REMARK    3  A    between atoms: C_3  and  C_4 
REMARK    4  A    between atoms: C_7  and  O_6 
REMARK    5  A    between atoms: C_9  and  C_10 
REMARK    6  A    between atoms: N_15  and  C_14 
REMARK    7  A    between atoms: N_20  and  C_19 
REMARK       I    between atoms: C_22  and  N_20 
ROOT
ATOM      1  C   LIG d   1       2.990  88.978 114.996  0.00  0.00     0.161 C 
ATOM      2  C   LIG d   1       4.350  88.899 114.650  0.00  0.00     0.016 C 
ATOM      3  C   LIG d   1       5.398  89.251 115.531  0.00  0.00     0.038 C 
ATOM      4  C   LIG d   1       5.162  89.566 116.877  0.00  0.00     0.028 C 
ATOM      5  C   LIG d   1       3.774  90.146 117.129  0.00  0.00    -0.047 C 
ATOM      6  C   LIG d   1       2.717  89.212 116.496  0.00  0.00     0.091 C 
ENDROOT
BRANCH   1   7
ATOM      7  O   LIG d   1       2.301  87.797 114.539  0.00  0.00    -0.368 OA
BRANCH   7   8
ATOM      8  C   LIG d   1       3.137  86.677 114.160  0.00  0.00     0.119 C 
BRANCH   8   9
ATOM      9  C   LIG d   1       2.679  86.208 112.766  0.00  0.00     0.028 C 
ATOM     10  C   LIG d   1       3.827  86.203 111.742  0.00  0.00     0.006 C 
ENDBRANCH   8   9
BRANCH   8  11
ATOM     11  C   LIG d   1       2.914  85.477 115.085  0.00  0.00     0.028 C 
ATOM     12  C   LIG d   1       1.682  85.642 115.989  0.00  0.00     0.006 C 
ENDBRANCH   8  11
ENDBRANCH   7   8
ENDBRANCH   1   7
BRANCH   6  13
ATOM     13  N   LIG d   1       1.337  89.750 116.623  0.00  0.00    -0.311 N 
ATOM     14  C   LIG d   1       0.409  89.208 117.410  0.00  0.00     0.210 C 
ATOM     15  C   LIG d   1      -0.954  89.907 117.378  0.00  0.00     0.109 C 
ATOM     16  O   LIG d   1       0.595  88.234 118.156  0.00  0.00    -0.276 OA
ATOM     17  H   LIG d   1       1.110  90.557 116.077  0.00  0.00     0.149 HD
ENDBRANCH   6  13
BRANCH   5  18
ATOM     18  N   LIG d   1       3.612  90.298 118.587  0.00  0.00     0.381 N 
ATOM     19  H   LIG d   1       4.482  90.575 118.997  0.00  0.00    -0.090 HD
ATOM     20  H   LIG d   1       3.347  89.412 118.979  0.00  0.00    -0.090 HD
ATOM     21  H   LIG d   1       2.913  90.980 118.783  0.00  0.00    -0.090 HD
ENDBRANCH   5  18
BRANCH   3  22
ATOM     22  C   LIG d   1       6.698  89.330 115.054  0.00  0.00     0.382 C 
ATOM     23  O   LIG d   1       7.664  89.172 115.839  0.00  0.00    -0.241 OA
ATOM     24  O   LIG d   1       6.917  89.602 113.859  0.00  0.00    -0.241 OA
ENDBRANCH   3  22
TORSDOF 7
ENDMDL
