MODEL 1
REMARK VINA RESULT:      -4.8      0.000      0.000
REMARK  7 active torsions:
REMARK  status: ('A' for Active; 'I' for Inactive)
REMARK    1  A    between atoms: C_2  and  C_3 
REMARK    2  A    between atoms: C_3  and  O_6 
REMARK    3  A    between atoms: C_3  and  C_4 
REMARK    4  A    between atoms: C_7  and  O_6 
REMARK    5  A    between atoms: C_9  and  C_10 
REMARK    6  A    between atoms: N_15  and  C_14 
REMARK    7  A    between atoms: N_20  and  C_19 
REMARK       I    between atoms: C_22  and  N_20 
ROOT
ATOM      1  C   LIG d   1       3.528  88.721 115.517  0.00  0.00     0.161 C 
ATOM      2  C   LIG d   1       4.247  89.349 116.548  0.00  0.00     0.016 C 
ATOM      3  C   LIG d   1       5.552  89.868 116.383  0.00  0.00     0.038 C 
ATOM      4  C   LIG d   1       6.171  89.930 115.125  0.00  0.00     0.028 C 
ATOM      5  C   LIG d   1       5.688  88.854 114.159  0.00  0.00    -0.047 C 
ATOM      6  C   LIG d   1       4.143  88.879 114.111  0.00  0.00     0.091 C 
ENDROOT
BRANCH   1   7
ATOM      7  O   LIG d   1       2.163  89.184 115.522  0.00  0.00    -0.368 OA
BRANCH   7   8
ATOM      8  C   LIG d   1       1.434  89.007 116.761  0.00  0.00     0.119 C 
BRANCH   8   9
ATOM      9  C   LIG d   1       0.607  87.714 116.632  0.00  0.00     0.028 C 
ATOM     10  C   LIG d   1       1.108  86.601 117.568  0.00  0.00     0.006 C 
ENDBRANCH   8   9
BRANCH   8  11
ATOM     11  C   LIG d   1       0.408  90.126 116.968  0.00  0.00     0.028 C 
ATOM     12  C   LIG d   1      -1.036  89.604 117.038  0.00  0.00     0.006 C 
ENDBRANCH   8  11
ENDBRANCH   7   8
ENDBRANCH   1   7
BRANCH   6  13
ATOM     13  N   LIG d   1       3.586  87.801 113.253  0.00  0.00    -0.311 N 
ATOM     14  C   LIG d   1       2.721  88.025 112.265  0.00  0.00     0.210 C 
ATOM     15  C   LIG d   1       2.256  86.771 111.517  0.00  0.00     0.109 C 
ATOM     16  O   LIG d   1       2.319  89.145 111.916  0.00  0.00    -0.276 OA
ATOM     17  H   LIG d   1       3.882  86.864 113.446  0.00  0.00     0.149 HD
ENDBRANCH   6  13
BRANCH   5  18
ATOM     18  N   LIG d   1       6.312  89.120 112.849  0.00  0.00     0.381 N 
ATOM     19  H   LIG d   1       6.114  88.367 112.220  0.00  0.00    -0.090 HD
ATOM     20  H   LIG d   1       7.308  89.177 112.968  0.00  0.00    -0.090 HD
ATOM     21  H   LIG d   1       5.965  89.975 112.473  0.00  0.00    -0.090 HD
ENDBRANCH   5  18
BRANCH   3  22
ATOM     22  C   LIG d   1       6.266  90.297 117.491  0.00  0.00     0.382 C 
ATOM     23  O   LIG d   1       5.690  90.423 118.598  0.00  0.00    -0.241 OA
ATOM     24  O   LIG d   1       7.470  90.601 117.387  0.00  0.00    -0.241 OA
ENDBRANCH   3  22
TORSDOF 7
ENDMDL
MODEL 2
REMARK VINA RESULT:      -4.4      3.307      6.212
REMARK  7 active torsions:
REMARK  status: ('A' for Active; 'I' for Inactive)
REMARK    1  A    between atoms: C_2  and  C_3 
REMARK    2  A    between atoms: C_3  and  O_6 
REMARK    3  A    between atoms: C_3  and  C_4 
REMARK    4  A    between atoms: C_7  and  O_6 
REMARK    5  A    between atoms: C_9  and  C_10 
REMARK    6  A    between atoms: N_15  and  C_14 
REMARK    7  A    between atoms: N_20  and  C_19 
REMARK       I    between atoms: C_22  and  N_20 
ROOT
ATOM      1  C   LIG d   1       0.024  88.628 117.181  0.00  0.00     0.161 C 
ATOM      2  C   LIG d   1      -1.339  88.850 117.443  0.00  0.00     0.016 C 
ATOM      3  C   LIG d   1      -1.866  90.111 117.805  0.00  0.00     0.038 C 
ATOM      4  C   LIG d   1      -1.085  91.276 117.782  0.00  0.00     0.028 C 
ATOM      5  C   LIG d   1       0.399  91.014 118.014  0.00  0.00    -0.047 C 
ATOM      6  C   LIG d   1       0.872  89.910 117.042  0.00  0.00     0.091 C 
ENDROOT
BRANCH   1   7
ATOM      7  O   LIG d   1       0.167  87.803 116.008  0.00  0.00    -0.368 OA
BRANCH   7   8
ATOM      8  C   LIG d   1       0.284  86.378 116.241  0.00  0.00     0.119 C 
BRANCH   8   9
ATOM      9  C   LIG d   1       1.707  85.956 115.829  0.00  0.00     0.028 C 
ATOM     10  C   LIG d   1       2.193  86.686 114.566  0.00  0.00     0.006 C 
ENDBRANCH   8   9
BRANCH   8  11
ATOM     11  C   LIG d   1      -0.655  85.585 115.327  0.00  0.00     0.028 C 
ATOM     12  C   LIG d   1      -2.091  85.510 115.868  0.00  0.00     0.006 C 
ENDBRANCH   8  11
ENDBRANCH   7   8
ENDBRANCH   1   7
BRANCH   6  13
ATOM     13  N   LIG d   1       2.294  89.533 117.260  0.00  0.00    -0.311 N 
ATOM     14  C   LIG d   1       3.252  89.733 116.357  0.00  0.00     0.210 C 
ATOM     15  C   LIG d   1       4.645  89.253 116.775  0.00  0.00     0.109 C 
ATOM     16  O   LIG d   1       3.086  90.292 115.262  0.00  0.00    -0.276 OA
ATOM     17  H   LIG d   1       2.522  89.102 118.134  0.00  0.00     0.149 HD
ENDBRANCH   6  13
BRANCH   5  18
ATOM     18  N   LIG d   1       1.112  92.292 117.828  0.00  0.00     0.381 N 
ATOM     19  H   LIG d   1       1.098  92.550 116.861  0.00  0.00    -0.090 HD
ATOM     20  H   LIG d   1       2.069  92.175 118.109  0.00  0.00    -0.090 HD
ATOM     21  H   LIG d   1       0.682  93.005 118.375  0.00  0.00    -0.090 HD
ENDBRANCH   5  18
BRANCH   3  22
ATOM     22  C   LIG d   1      -3.181  90.208 118.235  0.00  0.00     0.382 C 
ATOM     23  O   LIG d   1      -3.543  91.189 118.928  0.00  0.00    -0.241 OA
ATOM     24  O   LIG d   1      -3.999  89.305 117.975  0.00  0.00    -0.241 OA
ENDBRANCH   3  22
TORSDOF 7
ENDMDL
MODEL 3
REMARK VINA RESULT:      -4.4      1.679      4.834
REMARK  7 active torsions:
REMARK  status: ('A' for Active; 'I' for Inactive)
REMARK    1  A    between atoms: C_2  and  C_3 
REMARK    2  A    between atoms: C_3  and  O_6 
REMARK    3  A    between atoms: C_3  and  C_4 
REMARK    4  A    between atoms: C_7  and  O_6 
REMARK    5  A    between atoms: C_9  and  C_10 
REMARK    6  A    between atoms: N_15  and  C_14 
REMARK    7  A    between atoms: N_20  and  C_19 
REMARK       I    between atoms: C_22  and  N_20 
ROOT
ATOM      1  C   LIG d   1       3.504  88.267 115.275  0.00  0.00     0.161 C 
ATOM      2  C   LIG d   1       2.788  87.617 114.256  0.00  0.00     0.016 C 
ATOM      3  C   LIG d   1       3.236  87.542 112.917  0.00  0.00     0.038 C 
ATOM      4  C   LIG d   1       4.511  87.985 112.535  0.00  0.00     0.028 C 
ATOM      5  C   LIG d   1       5.056  89.098 113.423  0.00  0.00    -0.047 C 
ATOM      6  C   LIG d   1       4.949  88.659 114.901  0.00  0.00     0.091 C 
ENDROOT
BRANCH   1   7
ATOM      7  O   LIG d   1       3.498  87.459 116.469  0.00  0.00    -0.368 OA
BRANCH   7   8
ATOM      8  C   LIG d   1       2.697  87.956 117.570  0.00  0.00     0.119 C 
BRANCH   8   9
ATOM      9  C   LIG d   1       1.453  87.055 117.681  0.00  0.00     0.028 C 
ATOM     10  C   LIG d   1       0.193  87.719 117.100  0.00  0.00     0.006 C 
ENDBRANCH   8   9
BRANCH   8  11
ATOM     11  C   LIG d   1       2.157  89.359 117.278  0.00  0.00     0.028 C 
ATOM     12  C   LIG d   1       2.693  90.419 118.253  0.00  0.00     0.006 C 
ENDBRANCH   8  11
ENDBRANCH   7   8
ENDBRANCH   1   7
BRANCH   6  13
ATOM     13  N   LIG d   1       5.384  89.725 115.842  0.00  0.00    -0.311 N 
ATOM     14  C   LIG d   1       6.442  89.609 116.643  0.00  0.00     0.210 C 
ATOM     15  C   LIG d   1       6.702  90.817 117.548  0.00  0.00     0.109 C 
ATOM     16  O   LIG d   1       7.208  88.634 116.666  0.00  0.00    -0.276 OA
ATOM     17  H   LIG d   1       4.837  90.563 115.865  0.00  0.00     0.149 HD
ENDBRANCH   6  13
BRANCH   5  18
ATOM     18  N   LIG d   1       6.443  89.368 112.999  0.00  0.00     0.381 N 
ATOM     19  H   LIG d   1       6.966  88.515 112.991  0.00  0.00    -0.090 HD
ATOM     20  H   LIG d   1       6.869  89.993 113.659  0.00  0.00    -0.090 HD
ATOM     21  H   LIG d   1       6.448  89.778 112.091  0.00  0.00    -0.090 HD
ENDBRANCH   5  18
BRANCH   3  22
ATOM     22  C   LIG d   1       2.386  87.055 111.935  0.00  0.00     0.382 C 
ATOM     23  O   LIG d   1       2.594  85.925 111.430  0.00  0.00    -0.241 OA
ATOM     24  O   LIG d   1       1.441  87.749 111.516  0.00  0.00    -0.241 OA
ENDBRANCH   3  22
TORSDOF 7
ENDMDL
MODEL 4
REMARK VINA RESULT:      -4.2      1.753      2.121
REMARK  7 active torsions:
REMARK  status: ('A' for Active; 'I' for Inactive)
REMARK    1  A    between atoms: C_2  and  C_3 
REMARK    2  A    between atoms: C_3  and  O_6 
REMARK    3  A    between atoms: C_3  and  C_4 
REMARK    4  A    between atoms: C_7  and  O_6 
REMARK    5  A    between atoms: C_9  and  C_10 
REMARK    6  A    between atoms: N_15  and  C_14 
REMARK    7  A    between atoms: N_20  and  C_19 
REMARK       I    between atoms: C_22  and  N_20 
ROOT
ATOM      1  C   LIG d   1       4.558  86.876 115.526  0.00  0.00     0.161 C 
ATOM      2  C   LIG d   1       5.605  87.145 116.423  0.00  0.00     0.016 C 
ATOM      3  C   LIG d   1       6.622  88.094 116.171  0.00  0.00     0.038 C 
ATOM      4  C   LIG d   1       6.577  88.952 115.062  0.00  0.00     0.028 C 
ATOM      5  C   LIG d   1       5.814  88.370 113.876  0.00  0.00    -0.047 C 
ATOM      6  C   LIG d   1       4.431  87.881 114.362  0.00  0.00     0.091 C 
ENDROOT
BRANCH   1   7
ATOM      7  O   LIG d   1       3.312  86.780 116.243  0.00  0.00    -0.368 OA
BRANCH   7   8
ATOM      8  C   LIG d   1       3.083  87.784 117.262  0.00  0.00     0.119 C 
BRANCH   8   9
ATOM      9  C   LIG d   1       2.296  87.114 118.405  0.00  0.00     0.028 C 
ATOM     10  C   LIG d   1       0.950  87.807 118.675  0.00  0.00     0.006 C 
ENDBRANCH   8   9
BRANCH   8  11
ATOM     11  C   LIG d   1       2.175  88.905 116.746  0.00  0.00     0.028 C 
ATOM     12  C   LIG d   1       2.886  90.266 116.683  0.00  0.00     0.006 C 
ENDBRANCH   8  11
ENDBRANCH   7   8
ENDBRANCH   1   7
BRANCH   6  13
ATOM     13  N   LIG d   1       3.652  87.222 113.281  0.00  0.00    -0.311 N 
ATOM     14  C   LIG d   1       2.832  87.879 112.463  0.00  0.00     0.210 C 
ATOM     15  C   LIG d   1       2.110  87.005 111.432  0.00  0.00     0.109 C 
ATOM     16  O   LIG d   1       2.658  89.106 112.471  0.00  0.00    -0.276 OA
ATOM     17  H   LIG d   1       3.757  86.231 113.183  0.00  0.00     0.149 HD
ENDBRANCH   6  13
BRANCH   5  18
ATOM     18  N   LIG d   1       5.727  89.420 112.844  0.00  0.00     0.381 N 
ATOM     19  H   LIG d   1       4.770  89.578 112.602  0.00  0.00    -0.090 HD
ATOM     20  H   LIG d   1       6.214  89.108 112.022  0.00  0.00    -0.090 HD
ATOM     21  H   LIG d   1       6.136  90.264 113.181  0.00  0.00    -0.090 HD
ENDBRANCH   5  18
BRANCH   3  22
ATOM     22  C   LIG d   1       7.722  88.163 117.013  0.00  0.00     0.382 C 
ATOM     23  O   LIG d   1       8.183  89.279 117.352  0.00  0.00    -0.241 OA
ATOM     24  O   LIG d   1       8.286  87.123 117.403  0.00  0.00    -0.241 OA
ENDBRANCH   3  22
TORSDOF 7
ENDMDL
MODEL 5
REMARK VINA RESULT:      -4.1      2.449      5.326
REMARK  7 active torsions:
REMARK  status: ('A' for Active; 'I' for Inactive)
REMARK    1  A    between atoms: C_2  and  C_3 
REMARK    2  A    between atoms: C_3  and  O_6 
REMARK    3  A    between atoms: C_3  and  C_4 
REMARK    4  A    between atoms: C_7  and  O_6 
REMARK    5  A    between atoms: C_9  and  C_10 
REMARK    6  A    between atoms: N_15  and  C_14 
REMARK    7  A    between atoms: N_20  and  C_19 
REMARK       I    between atoms: C_22  and  N_20 
ROOT
ATOM      1  C   LIG d   1       3.334  88.488 115.819  0.00  0.00     0.161 C 
ATOM      2  C   LIG d   1       2.056  89.038 116.009  0.00  0.00     0.016 C 
ATOM      3  C   LIG d   1       1.757  89.982 117.019  0.00  0.00     0.038 C 
ATOM      4  C   LIG d   1       2.758  90.557 117.816  0.00  0.00     0.028 C 
ATOM      5  C   LIG d   1       3.978  89.660 117.997  0.00  0.00    -0.047 C 
ATOM      6  C   LIG d   1       4.462  89.186 116.607  0.00  0.00     0.091 C 
ENDROOT
BRANCH   1   7
ATOM      7  O   LIG d   1       3.649  88.459 114.413  0.00  0.00    -0.368 OA
BRANCH   7   8
ATOM      8  C   LIG d   1       3.807  87.145 113.823  0.00  0.00     0.119 C 
BRANCH   8   9
ATOM      9  C   LIG d   1       4.967  87.228 112.812  0.00  0.00     0.028 C 
ATOM     10  C   LIG d   1       5.834  88.483 113.015  0.00  0.00     0.006 C 
ENDBRANCH   8   9
BRANCH   8  11
ATOM     11  C   LIG d   1       2.578  86.754 112.998  0.00  0.00     0.028 C 
ATOM     12  C   LIG d   1       2.360  87.669 111.782  0.00  0.00     0.006 C 
ENDBRANCH   8  11
ENDBRANCH   7   8
ENDBRANCH   1   7
BRANCH   6  13
ATOM     13  N   LIG d   1       5.602  88.236 116.698  0.00  0.00    -0.311 N 
ATOM     14  C   LIG d   1       6.878  88.614 116.635  0.00  0.00     0.210 C 
ATOM     15  C   LIG d   1       7.895  87.472 116.729  0.00  0.00     0.109 C 
ATOM     16  O   LIG d   1       7.264  89.788 116.542  0.00  0.00    -0.276 OA
ATOM     17  H   LIG d   1       5.379  87.266 116.806  0.00  0.00     0.149 HD
ENDBRANCH   6  13
BRANCH   5  18
ATOM     18  N   LIG d   1       4.996  90.436 118.730  0.00  0.00     0.381 N 
ATOM     19  H   LIG d   1       5.542  90.973 118.086  0.00  0.00    -0.090 HD
ATOM     20  H   LIG d   1       5.609  89.798 119.207  0.00  0.00    -0.090 HD
ATOM     21  H   LIG d   1       4.556  91.040 119.389  0.00  0.00    -0.090 HD
ENDBRANCH   5  18
BRANCH   3  22
ATOM     22  C   LIG d   1       0.438  90.331 117.265  0.00  0.00     0.382 C 
ATOM     23  O   LIG d   1       0.153  91.046 118.256  0.00  0.00    -0.241 OA
ATOM     24  O   LIG d   1      -0.476  89.902 116.535  0.00  0.00    -0.241 OA
ENDBRANCH   3  22
TORSDOF 7
ENDMDL
MODEL 6
REMARK VINA RESULT:      -4.1      2.534      4.751
REMARK  7 active torsions:
REMARK  status: ('A' for Active; 'I' for Inactive)
REMARK    1  A    between atoms: C_2  and  C_3 
REMARK    2  A    between atoms: C_3  and  O_6 
REMARK    3  A    between atoms: C_3  and  C_4 
REMARK    4  A    between atoms: C_7  and  O_6 
REMARK    5  A    between atoms: C_9  and  C_10 
REMARK    6  A    between atoms: N_15  and  C_14 
REMARK    7  A    between atoms: N_20  and  C_19 
REMARK       I    between atoms: C_22  and  N_20 
ROOT
ATOM      1  C   LIG d   1       4.117  89.557 116.327  0.00  0.00     0.161 C 
ATOM      2  C   LIG d   1       3.966  90.837 116.886  0.00  0.00     0.016 C 
ATOM      3  C   LIG d   1       2.749  91.309 117.430  0.00  0.00     0.038 C 
ATOM      4  C   LIG d   1       1.634  90.473 117.589  0.00  0.00     0.028 C 
ATOM      5  C   LIG d   1       1.585  89.331 116.580  0.00  0.00    -0.047 C 
ATOM      6  C   LIG d   1       2.942  88.592 116.592  0.00  0.00     0.091 C 
ENDROOT
BRANCH   1   7
ATOM      7  O   LIG d   1       5.356  88.972 116.773  0.00  0.00    -0.368 OA
BRANCH   7   8
ATOM      8  C   LIG d   1       6.389  88.823 115.768  0.00  0.00     0.119 C 
BRANCH   8   9
ATOM      9  C   LIG d   1       5.927  89.587 114.512  0.00  0.00     0.028 C 
ATOM     10  C   LIG d   1       6.058  88.746 113.231  0.00  0.00     0.006 C 
ENDBRANCH   8   9
BRANCH   8  11
ATOM     11  C   LIG d   1       6.529  87.363 115.325  0.00  0.00     0.028 C 
ATOM     12  C   LIG d   1       6.354  86.370 116.485  0.00  0.00     0.006 C 
ENDBRANCH   8  11
ENDBRANCH   7   8
ENDBRANCH   1   7
BRANCH   6  13
ATOM     13  N   LIG d   1       3.009  87.513 115.573  0.00  0.00    -0.311 N 
ATOM     14  C   LIG d   1       2.790  87.715 114.275  0.00  0.00     0.210 C 
ATOM     15  C   LIG d   1       2.889  86.462 113.399  0.00  0.00     0.109 C 
ATOM     16  O   LIG d   1       2.556  88.819 113.761  0.00  0.00    -0.276 OA
ATOM     17  H   LIG d   1       3.224  86.591 115.898  0.00  0.00     0.149 HD
ENDBRANCH   6  13
BRANCH   5  18
ATOM     18  N   LIG d   1       0.450  88.462 116.947  0.00  0.00     0.381 N 
ATOM     19  H   LIG d   1       0.734  87.503 116.913  0.00  0.00    -0.090 HD
ATOM     20  H   LIG d   1      -0.290  88.595 116.280  0.00  0.00    -0.090 HD
ATOM     21  H   LIG d   1       0.129  88.688 117.862  0.00  0.00    -0.090 HD
ENDBRANCH   5  18
BRANCH   3  22
ATOM     22  C   LIG d   1       2.628  92.644 117.786  0.00  0.00     0.382 C 
ATOM     23  O   LIG d   1       3.527  93.461 117.471  0.00  0.00    -0.241 OA
ATOM     24  O   LIG d   1       1.653  93.033 118.456  0.00  0.00    -0.241 OA
ENDBRANCH   3  22
TORSDOF 7
ENDMDL
MODEL 7
REMARK VINA RESULT:      -3.9      2.819      6.342
REMARK  7 active torsions:
REMARK  status: ('A' for Active; 'I' for Inactive)
REMARK    1  A    between atoms: C_2  and  C_3 
REMARK    2  A    between atoms: C_3  and  O_6 
REMARK    3  A    between atoms: C_3  and  C_4 
REMARK    4  A    between atoms: C_7  and  O_6 
REMARK    5  A    between atoms: C_9  and  C_10 
REMARK    6  A    between atoms: N_15  and  C_14 
REMARK    7  A    between atoms: N_20  and  C_19 
REMARK       I    between atoms: C_22  and  N_20 
ROOT
ATOM      1  C   LIG d   1       2.855  88.450 116.109  0.00  0.00     0.161 C 
ATOM      2  C   LIG d   1       1.921  87.455 115.776  0.00  0.00     0.016 C 
ATOM      3  C   LIG d   1       0.621  87.392 116.329  0.00  0.00     0.038 C 
ATOM      4  C   LIG d   1       0.111  88.414 117.144  0.00  0.00     0.028 C 
ATOM      5  C   LIG d   1       1.191  89.174 117.908  0.00  0.00    -0.047 C 
ATOM      6  C   LIG d   1       2.279  89.635 116.912  0.00  0.00     0.091 C 
ENDROOT
BRANCH   1   7
ATOM      7  O   LIG d   1       3.511  88.924 114.916  0.00  0.00    -0.368 OA
BRANCH   7   8
ATOM      8  C   LIG d   1       4.262  87.937 114.167  0.00  0.00     0.119 C 
BRANCH   8   9
ATOM      9  C   LIG d   1       5.755  88.157 114.479  0.00  0.00     0.028 C 
ATOM     10  C   LIG d   1       6.059  89.604 114.901  0.00  0.00     0.006 C 
ENDBRANCH   8   9
BRANCH   8  11
ATOM     11  C   LIG d   1       4.125  88.161 112.658  0.00  0.00     0.028 C 
ATOM     12  C   LIG d   1       4.691  86.997 111.829  0.00  0.00     0.006 C 
ENDBRANCH   8  11
ENDBRANCH   7   8
ENDBRANCH   1   7
BRANCH   6  13
ATOM     13  N   LIG d   1       3.415  90.314 117.588  0.00  0.00    -0.311 N 
ATOM     14  C   LIG d   1       3.507  91.637 117.717  0.00  0.00     0.210 C 
ATOM     15  C   LIG d   1       4.770  92.130 118.431  0.00  0.00     0.109 C 
ATOM     16  O   LIG d   1       2.648  92.446 117.337  0.00  0.00    -0.276 OA
ATOM     17  H   LIG d   1       4.143  89.731 117.954  0.00  0.00     0.149 HD
ENDBRANCH   6  13
BRANCH   5  18
ATOM     18  N   LIG d   1       0.535  90.295 118.608  0.00  0.00     0.381 N 
ATOM     19  H   LIG d   1       0.746  91.155 118.142  0.00  0.00    -0.090 HD
ATOM     20  H   LIG d   1       0.895  90.348 119.545  0.00  0.00    -0.090 HD
ATOM     21  H   LIG d   1      -0.451  90.154 118.629  0.00  0.00    -0.090 HD
ENDBRANCH   5  18
BRANCH   3  22
ATOM     22  C   LIG d   1      -0.171  86.277 116.098  0.00  0.00     0.382 C 
ATOM     23  O   LIG d   1      -0.486  85.964 114.925  0.00  0.00    -0.241 OA
ATOM     24  O   LIG d   1      -0.610  85.607 117.052  0.00  0.00    -0.241 OA
ENDBRANCH   3  22
TORSDOF 7
ENDMDL
MODEL 8
REMARK VINA RESULT:      -3.8      2.679      4.914
REMARK  7 active torsions:
REMARK  status: ('A' for Active; 'I' for Inactive)
REMARK    1  A    between atoms: C_2  and  C_3 
REMARK    2  A    between atoms: C_3  and  O_6 
REMARK    3  A    between atoms: C_3  and  C_4 
REMARK    4  A    between atoms: C_7  and  O_6 
REMARK    5  A    between atoms: C_9  and  C_10 
REMARK    6  A    between atoms: N_15  and  C_14 
REMARK    7  A    between atoms: N_20  and  C_19 
REMARK       I    between atoms: C_22  and  N_20 
ROOT
ATOM      1  C   LIG d   1       2.764  89.263 115.849  0.00  0.00     0.161 C 
ATOM      2  C   LIG d   1       3.465  90.391 116.305  0.00  0.00     0.016 C 
ATOM      3  C   LIG d   1       3.193  91.032 117.536  0.00  0.00     0.038 C 
ATOM      4  C   LIG d   1       2.295  90.493 118.469  0.00  0.00     0.028 C 
ATOM      5  C   LIG d   1       1.201  89.640 117.836  0.00  0.00    -0.047 C 
ATOM      6  C   LIG d   1       1.857  88.595 116.904  0.00  0.00     0.091 C 
ENDROOT
BRANCH   1   7
ATOM      7  O   LIG d   1       3.688  88.301 115.302  0.00  0.00    -0.368 OA
BRANCH   7   8
ATOM      8  C   LIG d   1       3.663  88.141 113.862  0.00  0.00     0.119 C 
BRANCH   8   9
ATOM      9  C   LIG d   1       4.359  86.806 113.533  0.00  0.00     0.028 C 
ATOM     10  C   LIG d   1       4.388  86.516 112.023  0.00  0.00     0.006 C 
ENDBRANCH   8   9
BRANCH   8  11
ATOM     11  C   LIG d   1       4.501  89.218 113.167  0.00  0.00     0.028 C 
ATOM     12  C   LIG d   1       5.923  89.329 113.741  0.00  0.00     0.006 C 
ENDBRANCH   8  11
ENDBRANCH   7   8
ENDBRANCH   1   7
BRANCH   6  13
ATOM     13  N   LIG d   1       0.853  87.773 116.179  0.00  0.00    -0.311 N 
ATOM     14  C   LIG d   1       0.374  86.621 116.645  0.00  0.00     0.210 C 
ATOM     15  C   LIG d   1      -0.638  85.924 115.730  0.00  0.00     0.109 C 
ATOM     16  O   LIG d   1       0.666  86.127 117.745  0.00  0.00    -0.276 OA
ATOM     17  H   LIG d   1       0.538  88.116 115.293  0.00  0.00     0.149 HD
ENDBRANCH   6  13
BRANCH   5  18
ATOM     18  N   LIG d   1       0.421  89.030 118.929  0.00  0.00     0.381 N 
ATOM     19  H   LIG d   1       0.575  88.042 118.945  0.00  0.00    -0.090 HD
ATOM     20  H   LIG d   1      -0.556  89.195 118.763  0.00  0.00    -0.090 HD
ATOM     21  H   LIG d   1       0.689  89.429 119.802  0.00  0.00    -0.090 HD
ENDBRANCH   5  18
BRANCH   3  22
ATOM     22  C   LIG d   1       3.793  92.248 117.825  0.00  0.00     0.382 C 
ATOM     23  O   LIG d   1       3.262  93.317 117.440  0.00  0.00    -0.241 OA
ATOM     24  O   LIG d   1       4.882  92.287 118.428  0.00  0.00    -0.241 OA
ENDBRANCH   3  22
TORSDOF 7
ENDMDL
MODEL 9
REMARK VINA RESULT:      -3.7      3.131      4.369
REMARK  7 active torsions:
REMARK  status: ('A' for Active; 'I' for Inactive)
REMARK    1  A    between atoms: C_2  and  C_3 
REMARK    2  A    between atoms: C_3  and  O_6 
REMARK    3  A    between atoms: C_3  and  C_4 
REMARK    4  A    between atoms: C_7  and  O_6 
REMARK    5  A    between atoms: C_9  and  C_10 
REMARK    6  A    between atoms: N_15  and  C_14 
REMARK    7  A    between atoms: N_20  and  C_19 
REMARK       I    between atoms: C_22  and  N_20 
ROOT
ATOM      1  C   LIG d   1       1.153  89.957 118.694  0.00  0.00     0.161 C 
ATOM      2  C   LIG d   1       1.905  91.143 118.669  0.00  0.00     0.016 C 
ATOM      3  C   LIG d   1       2.911  91.406 117.710  0.00  0.00     0.038 C 
ATOM      4  C   LIG d   1       3.130  90.559 116.614  0.00  0.00     0.028 C 
ATOM      5  C   LIG d   1       2.741  89.109 116.882  0.00  0.00    -0.047 C 
ATOM      6  C   LIG d   1       1.301  89.070 117.441  0.00  0.00     0.091 C 
ENDROOT
BRANCH   1   7
ATOM      7  O   LIG d   1      -0.236  90.264 118.930  0.00  0.00    -0.368 OA
BRANCH   7   8
ATOM      8  C   LIG d   1      -1.077  90.352 117.754  0.00  0.00     0.119 C 
BRANCH   8   9
ATOM      9  C   LIG d   1      -1.296  91.848 117.452  0.00  0.00     0.028 C 
ATOM     10  C   LIG d   1      -1.664  92.652 118.710  0.00  0.00     0.006 C 
ENDBRANCH   8   9
BRANCH   8  11
ATOM     11  C   LIG d   1      -2.474  89.784 118.024  0.00  0.00     0.028 C 
ATOM     12  C   LIG d   1      -2.876  88.689 117.024  0.00  0.00     0.006 C 
ENDBRANCH   8  11
ENDBRANCH   7   8
ENDBRANCH   1   7
BRANCH   6  13
ATOM     13  N   LIG d   1       0.872  87.696 117.809  0.00  0.00    -0.311 N 
ATOM     14  C   LIG d   1       0.279  86.860 116.958  0.00  0.00     0.210 C 
ATOM     15  C   LIG d   1      -0.099  85.498 117.548  0.00  0.00     0.109 C 
ATOM     16  O   LIG d   1       0.058  87.106 115.763  0.00  0.00    -0.276 OA
ATOM     17  H   LIG d   1       1.041  87.402 118.751  0.00  0.00     0.149 HD
ENDBRANCH   6  13
BRANCH   5  18
ATOM     18  N   LIG d   1       2.891  88.366 115.616  0.00  0.00     0.381 N 
ATOM     19  H   LIG d   1       3.396  88.922 114.955  0.00  0.00    -0.090 HD
ATOM     20  H   LIG d   1       1.978  88.180 115.239  0.00  0.00    -0.090 HD
ATOM     21  H   LIG d   1       3.373  87.509 115.778  0.00  0.00    -0.090 HD
ENDBRANCH   5  18
BRANCH   3  22
ATOM     22  C   LIG d   1       3.738  92.508 117.866  0.00  0.00     0.382 C 
ATOM     23  O   LIG d   1       3.400  93.618 117.389  0.00  0.00    -0.241 OA
ATOM     24  O   LIG d   1       4.838  92.397 118.440  0.00  0.00    -0.241 OA
ENDBRANCH   3  22
TORSDOF 7
ENDMDL
