MODEL 1
REMARK VINA RESULT:      -4.6      0.000      0.000
REMARK  7 active torsions:
REMARK  status: ('A' for Active; 'I' for Inactive)
REMARK    1  A    between atoms: C_2  and  C_3 
REMARK    2  A    between atoms: C_3  and  O_6 
REMARK    3  A    between atoms: C_3  and  C_4 
REMARK    4  A    between atoms: C_7  and  O_6 
REMARK    5  A    between atoms: C_9  and  C_10 
REMARK    6  A    between atoms: N_15  and  C_14 
REMARK    7  A    between atoms: N_20  and  C_19 
REMARK       I    between atoms: C_22  and  N_20 
ROOT
ATOM      1  C   LIG d   1       2.971  88.371 115.156  0.00  0.00     0.161 C 
ATOM      2  C   LIG d   1       1.825  88.366 115.970  0.00  0.00     0.016 C 
ATOM      3  C   LIG d   1       1.666  89.207 117.095  0.00  0.00     0.038 C 
ATOM      4  C   LIG d   1       2.584  90.223 117.397  0.00  0.00     0.028 C 
ATOM      5  C   LIG d   1       3.996  89.931 116.902  0.00  0.00    -0.047 C 
ATOM      6  C   LIG d   1       3.934  89.551 115.405  0.00  0.00     0.091 C 
ENDROOT
BRANCH   1   7
ATOM      7  O   LIG d   1       2.585  88.323 113.769  0.00  0.00    -0.368 OA
BRANCH   7   8
ATOM      8  C   LIG d   1       2.390  87.002 113.206  0.00  0.00     0.119 C 
BRANCH   8   9
ATOM      9  C   LIG d   1       3.767  86.313 113.158  0.00  0.00     0.028 C 
ATOM     10  C   LIG d   1       4.465  86.490 111.798  0.00  0.00     0.006 C 
ENDBRANCH   8   9
BRANCH   8  11
ATOM     11  C   LIG d   1       1.924  87.080 111.750  0.00  0.00     0.028 C 
ATOM     12  C   LIG d   1       0.619  86.306 111.500  0.00  0.00     0.006 C 
ENDBRANCH   8  11
ENDBRANCH   7   8
ENDBRANCH   1   7
BRANCH   6  13
ATOM     13  N   LIG d   1       5.263  89.167 114.862  0.00  0.00    -0.311 N 
ATOM     14  C   LIG d   1       5.660  89.454 113.623  0.00  0.00     0.210 C 
ATOM     15  C   LIG d   1       7.059  88.949 113.258  0.00  0.00     0.109 C 
ATOM     16  O   LIG d   1       4.997  90.106 112.801  0.00  0.00    -0.276 OA
ATOM     17  H   LIG d   1       5.877  88.663 115.471  0.00  0.00     0.149 HD
ENDBRANCH   6  13
BRANCH   5  18
ATOM     18  N   LIG d   1       4.817  91.129 117.161  0.00  0.00     0.381 N 
ATOM     19  H   LIG d   1       5.646  91.099 116.602  0.00  0.00    -0.090 HD
ATOM     20  H   LIG d   1       5.088  91.134 118.128  0.00  0.00    -0.090 HD
ATOM     21  H   LIG d   1       4.295  91.951 116.950  0.00  0.00    -0.090 HD
ENDBRANCH   5  18
BRANCH   3  22
ATOM     22  C   LIG d   1       0.597  89.007 117.956  0.00  0.00     0.382 C 
ATOM     23  O   LIG d   1       0.424  89.779 118.929  0.00  0.00    -0.241 OA
ATOM     24  O   LIG d   1      -0.170  88.039 117.797  0.00  0.00    -0.241 OA
ENDBRANCH   3  22
TORSDOF 7
ENDMDL
MODEL 2
REMARK VINA RESULT:      -4.6      2.340      5.245
REMARK  7 active torsions:
REMARK  status: ('A' for Active; 'I' for Inactive)
REMARK    1  A    between atoms: C_2  and  C_3 
REMARK    2  A    between atoms: C_3  and  O_6 
REMARK    3  A    between atoms: C_3  and  C_4 
REMARK    4  A    between atoms: C_7  and  O_6 
REMARK    5  A    between atoms: C_9  and  C_10 
REMARK    6  A    between atoms: N_15  and  C_14 
REMARK    7  A    between atoms: N_20  and  C_19 
REMARK       I    between atoms: C_22  and  N_20 
ROOT
ATOM      1  C   LIG d   1       4.194  88.623 115.600  0.00  0.00     0.161 C 
ATOM      2  C   LIG d   1       3.324  88.197 114.583  0.00  0.00     0.016 C 
ATOM      3  C   LIG d   1       3.717  88.053 113.232  0.00  0.00     0.038 C 
ATOM      4  C   LIG d   1       5.055  88.182 112.832  0.00  0.00     0.028 C 
ATOM      5  C   LIG d   1       5.871  89.103 113.733  0.00  0.00    -0.047 C 
ATOM      6  C   LIG d   1       5.684  88.661 115.203  0.00  0.00     0.091 C 
ENDROOT
BRANCH   1   7
ATOM      7  O   LIG d   1       4.009  87.808 116.774  0.00  0.00    -0.368 OA
BRANCH   7   8
ATOM      8  C   LIG d   1       3.395  88.461 117.913  0.00  0.00     0.119 C 
BRANCH   8   9
ATOM      9  C   LIG d   1       1.986  87.860 118.087  0.00  0.00     0.028 C 
ATOM     10  C   LIG d   1       0.873  88.869 117.760  0.00  0.00     0.006 C 
ENDBRANCH   8   9
BRANCH   8  11
ATOM     11  C   LIG d   1       3.169  89.952 117.646  0.00  0.00     0.028 C 
ATOM     12  C   LIG d   1       3.975  90.855 118.593  0.00  0.00     0.006 C 
ENDBRANCH   8  11
ENDBRANCH   7   8
ENDBRANCH   1   7
BRANCH   6  13
ATOM     13  N   LIG d   1       6.382  89.561 116.158  0.00  0.00    -0.311 N 
ATOM     14  C   LIG d   1       7.621  89.347 116.595  0.00  0.00     0.210 C 
ATOM     15  C   LIG d   1       8.144  90.386 117.591  0.00  0.00     0.109 C 
ATOM     16  O   LIG d   1       8.349  88.413 116.227  0.00  0.00    -0.276 OA
ATOM     17  H   LIG d   1       5.875  90.361 116.484  0.00  0.00     0.149 HD
ENDBRANCH   6  13
BRANCH   5  18
ATOM     18  N   LIG d   1       7.274  89.037 113.284  0.00  0.00     0.381 N 
ATOM     19  H   LIG d   1       7.799  88.444 113.896  0.00  0.00    -0.090 HD
ATOM     20  H   LIG d   1       7.671  89.959 113.321  0.00  0.00    -0.090 HD
ATOM     21  H   LIG d   1       7.318  88.686 112.352  0.00  0.00    -0.090 HD
ENDBRANCH   5  18
BRANCH   3  22
ATOM     22  C   LIG d   1       2.758  87.817 112.259  0.00  0.00     0.382 C 
ATOM     23  O   LIG d   1       1.705  88.499 112.237  0.00  0.00    -0.241 OA
ATOM     24  O   LIG d   1       2.912  86.900 111.430  0.00  0.00    -0.241 OA
ENDBRANCH   3  22
TORSDOF 7
ENDMDL
MODEL 3
REMARK VINA RESULT:      -4.6      1.478      2.214
REMARK  7 active torsions:
REMARK  status: ('A' for Active; 'I' for Inactive)
REMARK    1  A    between atoms: C_2  and  C_3 
REMARK    2  A    between atoms: C_3  and  O_6 
REMARK    3  A    between atoms: C_3  and  C_4 
REMARK    4  A    between atoms: C_7  and  O_6 
REMARK    5  A    between atoms: C_9  and  C_10 
REMARK    6  A    between atoms: N_15  and  C_14 
REMARK    7  A    between atoms: N_20  and  C_19 
REMARK       I    between atoms: C_22  and  N_20 
ROOT
ATOM      1  C   LIG d   1       3.343  86.481 115.132  0.00  0.00     0.161 C 
ATOM      2  C   LIG d   1       2.275  86.152 115.983  0.00  0.00     0.016 C 
ATOM      3  C   LIG d   1       1.663  87.079 116.858  0.00  0.00     0.038 C 
ATOM      4  C   LIG d   1       1.980  88.445 116.830  0.00  0.00     0.028 C 
ATOM      5  C   LIG d   1       3.399  88.728 116.347  0.00  0.00    -0.047 C 
ATOM      6  C   LIG d   1       3.629  87.993 115.007  0.00  0.00     0.091 C 
ENDROOT
BRANCH   1   7
ATOM      7  O   LIG d   1       3.126  85.904 113.829  0.00  0.00    -0.368 OA
BRANCH   7   8
ATOM      8  C   LIG d   1       2.163  86.581 112.984  0.00  0.00     0.119 C 
BRANCH   8   9
ATOM      9  C   LIG d   1       1.012  85.594 112.711  0.00  0.00     0.028 C 
ATOM     10  C   LIG d   1      -0.024  86.160 111.724  0.00  0.00     0.006 C 
ENDBRANCH   8   9
BRANCH   8  11
ATOM     11  C   LIG d   1       2.757  86.903 111.610  0.00  0.00     0.028 C 
ATOM     12  C   LIG d   1       4.179  86.347 111.430  0.00  0.00     0.006 C 
ENDBRANCH   8  11
ENDBRANCH   7   8
ENDBRANCH   1   7
BRANCH   6  13
ATOM     13  N   LIG d   1       5.020  88.148 114.507  0.00  0.00    -0.311 N 
ATOM     14  C   LIG d   1       5.379  89.065 113.611  0.00  0.00     0.210 C 
ATOM     15  C   LIG d   1       6.859  89.041 113.217  0.00  0.00     0.109 C 
ATOM     16  O   LIG d   1       4.618  89.919 113.129  0.00  0.00    -0.276 OA
ATOM     17  H   LIG d   1       5.708  87.517 114.869  0.00  0.00     0.149 HD
ENDBRANCH   6  13
BRANCH   5  18
ATOM     18  N   LIG d   1       3.549  90.192 116.237  0.00  0.00     0.381 N 
ATOM     19  H   LIG d   1       3.533  90.604 117.148  0.00  0.00    -0.090 HD
ATOM     20  H   LIG d   1       2.775  90.559 115.711  0.00  0.00    -0.090 HD
ATOM     21  H   LIG d   1       4.405  90.413 115.779  0.00  0.00    -0.090 HD
ENDBRANCH   5  18
BRANCH   3  22
ATOM     22  C   LIG d   1       0.749  86.634 117.801  0.00  0.00     0.382 C 
ATOM     23  O   LIG d   1       1.136  85.931 118.765  0.00  0.00    -0.241 OA
ATOM     24  O   LIG d   1      -0.463  86.889 117.675  0.00  0.00    -0.241 OA
ENDBRANCH   3  22
TORSDOF 7
ENDMDL
MODEL 4
REMARK VINA RESULT:      -4.1      3.334      4.169
REMARK  7 active torsions:
REMARK  status: ('A' for Active; 'I' for Inactive)
REMARK    1  A    between atoms: C_2  and  C_3 
REMARK    2  A    between atoms: C_3  and  O_6 
REMARK    3  A    between atoms: C_3  and  C_4 
REMARK    4  A    between atoms: C_7  and  O_6 
REMARK    5  A    between atoms: C_9  and  C_10 
REMARK    6  A    between atoms: N_15  and  C_14 
REMARK    7  A    between atoms: N_20  and  C_19 
REMARK       I    between atoms: C_22  and  N_20 
ROOT
ATOM      1  C   LIG d   1       5.743  87.897 116.404  0.00  0.00     0.161 C 
ATOM      2  C   LIG d   1       4.716  88.855 116.351  0.00  0.00     0.016 C 
ATOM      3  C   LIG d   1       4.802  90.122 116.971  0.00  0.00     0.038 C 
ATOM      4  C   LIG d   1       5.989  90.580 117.562  0.00  0.00     0.028 C 
ATOM      5  C   LIG d   1       6.881  89.456 118.078  0.00  0.00    -0.047 C 
ATOM      6  C   LIG d   1       7.088  88.421 116.949  0.00  0.00     0.091 C 
ENDROOT
BRANCH   1   7
ATOM      7  O   LIG d   1       5.926  87.306 115.102  0.00  0.00    -0.368 OA
BRANCH   7   8
ATOM      8  C   LIG d   1       4.987  87.716 114.078  0.00  0.00     0.119 C 
BRANCH   8   9
ATOM      9  C   LIG d   1       4.363  86.438 113.485  0.00  0.00     0.028 C 
ATOM     10  C   LIG d   1       4.323  86.463 111.947  0.00  0.00     0.006 C 
ENDBRANCH   8   9
BRANCH   8  11
ATOM     11  C   LIG d   1       5.701  88.399 112.908  0.00  0.00     0.028 C 
ATOM     12  C   LIG d   1       6.979  89.136 113.338  0.00  0.00     0.006 C 
ENDBRANCH   8  11
ENDBRANCH   7   8
ENDBRANCH   1   7
BRANCH   6  13
ATOM     13  N   LIG d   1       7.881  87.245 117.396  0.00  0.00    -0.311 N 
ATOM     14  C   LIG d   1       9.199  87.145 117.233  0.00  0.00     0.210 C 
ATOM     15  C   LIG d   1       9.816  85.841 117.747  0.00  0.00     0.109 C 
ATOM     16  O   LIG d   1       9.920  88.026 116.741  0.00  0.00    -0.276 OA
ATOM     17  H   LIG d   1       7.380  86.497 117.833  0.00  0.00     0.149 HD
ENDBRANCH   6  13
BRANCH   5  18
ATOM     18  N   LIG d   1       8.142  90.065 118.543  0.00  0.00     0.381 N 
ATOM     19  H   LIG d   1       7.960  90.973 118.922  0.00  0.00    -0.090 HD
ATOM     20  H   LIG d   1       8.761  90.168 117.758  0.00  0.00    -0.090 HD
ATOM     21  H   LIG d   1       8.565  89.487 119.235  0.00  0.00    -0.090 HD
ENDBRANCH   5  18
BRANCH   3  22
ATOM     22  C   LIG d   1       3.679  90.932 117.039  0.00  0.00     0.382 C 
ATOM     23  O   LIG d   1       3.805  92.180 117.046  0.00  0.00    -0.241 OA
ATOM     24  O   LIG d   1       2.543  90.429 117.137  0.00  0.00    -0.241 OA
ENDBRANCH   3  22
TORSDOF 7
ENDMDL
MODEL 5
REMARK VINA RESULT:      -4.1      2.485      3.294
REMARK  7 active torsions:
REMARK  status: ('A' for Active; 'I' for Inactive)
REMARK    1  A    between atoms: C_2  and  C_3 
REMARK    2  A    between atoms: C_3  and  O_6 
REMARK    3  A    between atoms: C_3  and  C_4 
REMARK    4  A    between atoms: C_7  and  O_6 
REMARK    5  A    between atoms: C_9  and  C_10 
REMARK    6  A    between atoms: N_15  and  C_14 
REMARK    7  A    between atoms: N_20  and  C_19 
REMARK       I    between atoms: C_22  and  N_20 
ROOT
ATOM      1  C   LIG d   1       4.970  87.180 115.900  0.00  0.00     0.161 C 
ATOM      2  C   LIG d   1       3.578  87.365 115.913  0.00  0.00     0.016 C 
ATOM      3  C   LIG d   1       2.923  88.285 116.764  0.00  0.00     0.038 C 
ATOM      4  C   LIG d   1       3.634  89.196 117.559  0.00  0.00     0.028 C 
ATOM      5  C   LIG d   1       5.022  88.701 117.952  0.00  0.00    -0.047 C 
ATOM      6  C   LIG d   1       5.771  88.244 116.680  0.00  0.00     0.091 C 
ENDROOT
BRANCH   1   7
ATOM      7  O   LIG d   1       5.439  87.098 114.539  0.00  0.00    -0.368 OA
BRANCH   7   8
ATOM      8  C   LIG d   1       4.717  87.893 113.567  0.00  0.00     0.119 C 
BRANCH   8   9
ATOM      9  C   LIG d   1       4.765  87.138 112.224  0.00  0.00     0.028 C 
ATOM     10  C   LIG d   1       4.391  85.653 112.372  0.00  0.00     0.006 C 
ENDBRANCH   8   9
BRANCH   8  11
ATOM     11  C   LIG d   1       5.419  89.228 113.306  0.00  0.00     0.028 C 
ATOM     12  C   LIG d   1       6.951  89.100 113.275  0.00  0.00     0.006 C 
ENDBRANCH   8  11
ENDBRANCH   7   8
ENDBRANCH   1   7
BRANCH   6  13
ATOM     13  N   LIG d   1       7.107  87.667 116.985  0.00  0.00    -0.311 N 
ATOM     14  C   LIG d   1       8.239  88.365 116.920  0.00  0.00     0.210 C 
ATOM     15  C   LIG d   1       9.507  87.573 117.255  0.00  0.00     0.109 C 
ATOM     16  O   LIG d   1       8.310  89.573 116.649  0.00  0.00    -0.276 OA
ATOM     17  H   LIG d   1       7.138  86.700 117.244  0.00  0.00     0.149 HD
ENDBRANCH   6  13
BRANCH   5  18
ATOM     18  N   LIG d   1       5.703  89.802 118.660  0.00  0.00     0.381 N 
ATOM     19  H   LIG d   1       6.690  89.748 118.500  0.00  0.00    -0.090 HD
ATOM     20  H   LIG d   1       5.538  89.706 119.646  0.00  0.00    -0.090 HD
ATOM     21  H   LIG d   1       5.356  90.679 118.341  0.00  0.00    -0.090 HD
ENDBRANCH   5  18
BRANCH   3  22
ATOM     22  C   LIG d   1       1.539  88.271 116.856  0.00  0.00     0.382 C 
ATOM     23  O   LIG d   1       0.914  87.189 116.742  0.00  0.00    -0.241 OA
ATOM     24  O   LIG d   1       0.906  89.333 117.008  0.00  0.00    -0.241 OA
ENDBRANCH   3  22
TORSDOF 7
ENDMDL
MODEL 6
REMARK VINA RESULT:      -4.1      2.289      5.127
REMARK  7 active torsions:
REMARK  status: ('A' for Active; 'I' for Inactive)
REMARK    1  A    between atoms: C_2  and  C_3 
REMARK    2  A    between atoms: C_3  and  O_6 
REMARK    3  A    between atoms: C_3  and  C_4 
REMARK    4  A    between atoms: C_7  and  O_6 
REMARK    5  A    between atoms: C_9  and  C_10 
REMARK    6  A    between atoms: N_15  and  C_14 
REMARK    7  A    between atoms: N_20  and  C_19 
REMARK       I    between atoms: C_22  and  N_20 
ROOT
ATOM      1  C   LIG d   1       3.121  88.509 115.974  0.00  0.00     0.161 C 
ATOM      2  C   LIG d   1       3.963  89.182 116.874  0.00  0.00     0.016 C 
ATOM      3  C   LIG d   1       5.276  89.593 116.552  0.00  0.00     0.038 C 
ATOM      4  C   LIG d   1       5.787  89.492 115.249  0.00  0.00     0.028 C 
ATOM      5  C   LIG d   1       5.158  88.363 114.439  0.00  0.00    -0.047 C 
ATOM      6  C   LIG d   1       3.619  88.488 114.514  0.00  0.00     0.091 C 
ENDROOT
BRANCH   1   7
ATOM      7  O   LIG d   1       1.791  89.062 116.041  0.00  0.00    -0.368 OA
BRANCH   7   8
ATOM      8  C   LIG d   1       1.290  89.356 117.368  0.00  0.00     0.119 C 
BRANCH   8   9
ATOM      9  C   LIG d   1       0.338  88.211 117.767  0.00  0.00     0.028 C 
ATOM     10  C   LIG d   1      -0.990  88.728 118.346  0.00  0.00     0.006 C 
ENDBRANCH   8   9
BRANCH   8  11
ATOM     11  C   LIG d   1       0.426  90.621 117.370  0.00  0.00     0.028 C 
ATOM     12  C   LIG d   1       1.209  91.876 117.787  0.00  0.00     0.006 C 
ENDBRANCH   8  11
ENDBRANCH   7   8
ENDBRANCH   1   7
BRANCH   6  13
ATOM     13  N   LIG d   1       2.926  87.374 113.817  0.00  0.00    -0.311 N 
ATOM     14  C   LIG d   1       2.478  87.457 112.565  0.00  0.00     0.210 C 
ATOM     15  C   LIG d   1       1.774  86.200 112.045  0.00  0.00     0.109 C 
ATOM     16  O   LIG d   1       2.626  88.441 111.826  0.00  0.00    -0.276 OA
ATOM     17  H   LIG d   1       2.791  86.526 114.333  0.00  0.00     0.149 HD
ENDBRANCH   6  13
BRANCH   5  18
ATOM     18  N   LIG d   1       5.680  88.458 113.062  0.00  0.00     0.381 N 
ATOM     19  H   LIG d   1       6.655  88.233 113.053  0.00  0.00    -0.090 HD
ATOM     20  H   LIG d   1       5.571  89.403 112.738  0.00  0.00    -0.090 HD
ATOM     21  H   LIG d   1       5.182  87.836 112.465  0.00  0.00    -0.090 HD
ENDBRANCH   5  18
BRANCH   3  22
ATOM     22  C   LIG d   1       6.109  90.077 117.550  0.00  0.00     0.382 C 
ATOM     23  O   LIG d   1       5.617  90.562 118.597  0.00  0.00    -0.241 OA
ATOM     24  O   LIG d   1       7.345  90.075 117.397  0.00  0.00    -0.241 OA
ENDBRANCH   3  22
TORSDOF 7
ENDMDL
MODEL 7
REMARK VINA RESULT:      -4.1      2.916      5.383
REMARK  7 active torsions:
REMARK  status: ('A' for Active; 'I' for Inactive)
REMARK    1  A    between atoms: C_2  and  C_3 
REMARK    2  A    between atoms: C_3  and  O_6 
REMARK    3  A    between atoms: C_3  and  C_4 
REMARK    4  A    between atoms: C_7  and  O_6 
REMARK    5  A    between atoms: C_9  and  C_10 
REMARK    6  A    between atoms: N_15  and  C_14 
REMARK    7  A    between atoms: N_20  and  C_19 
REMARK       I    between atoms: C_22  and  N_20 
ROOT
ATOM      1  C   LIG d   1       5.114  87.075 115.269  0.00  0.00     0.161 C 
ATOM      2  C   LIG d   1       6.079  87.272 116.270  0.00  0.00     0.016 C 
ATOM      3  C   LIG d   1       7.178  88.149 116.130  0.00  0.00     0.038 C 
ATOM      4  C   LIG d   1       7.305  89.009 115.029  0.00  0.00     0.028 C 
ATOM      5  C   LIG d   1       6.629  88.481 113.767  0.00  0.00    -0.047 C 
ATOM      6  C   LIG d   1       5.174  88.087 114.105  0.00  0.00     0.091 C 
ENDROOT
BRANCH   1   7
ATOM      7  O   LIG d   1       3.797  87.063 115.855  0.00  0.00    -0.368 OA
BRANCH   7   8
ATOM      8  C   LIG d   1       3.631  87.841 117.066  0.00  0.00     0.119 C 
BRANCH   8   9
ATOM      9  C   LIG d   1       2.653  87.074 117.978  0.00  0.00     0.028 C 
ATOM     10  C   LIG d   1       1.255  86.935 117.353  0.00  0.00     0.006 C 
ENDBRANCH   8   9
BRANCH   8  11
ATOM     11  C   LIG d   1       2.950  89.182 116.777  0.00  0.00     0.028 C 
ATOM     12  C   LIG d   1       3.936  90.361 116.766  0.00  0.00     0.006 C 
ENDBRANCH   8  11
ENDBRANCH   7   8
ENDBRANCH   1   7
BRANCH   6  13
ATOM     13  N   LIG d   1       4.467  87.482 112.946  0.00  0.00    -0.311 N 
ATOM     14  C   LIG d   1       3.189  87.725 112.658  0.00  0.00     0.210 C 
ATOM     15  C   LIG d   1       2.650  86.984 111.431  0.00  0.00     0.109 C 
ATOM     16  O   LIG d   1       2.460  88.510 113.284  0.00  0.00    -0.276 OA
ATOM     17  H   LIG d   1       4.992  86.857 112.367  0.00  0.00     0.149 HD
ENDBRANCH   6  13
BRANCH   5  18
ATOM     18  N   LIG d   1       6.719  89.535 112.739  0.00  0.00     0.381 N 
ATOM     19  H   LIG d   1       7.680  89.739 112.547  0.00  0.00    -0.090 HD
ATOM     20  H   LIG d   1       6.284  90.370 113.091  0.00  0.00    -0.090 HD
ATOM     21  H   LIG d   1       6.262  89.238 111.906  0.00  0.00    -0.090 HD
ENDBRANCH   5  18
BRANCH   3  22
ATOM     22  C   LIG d   1       8.188  88.143 117.080  0.00  0.00     0.382 C 
ATOM     23  O   LIG d   1       9.381  88.313 116.729  0.00  0.00    -0.241 OA
ATOM     24  O   LIG d   1       7.927  87.926 118.278  0.00  0.00    -0.241 OA
ENDBRANCH   3  22
TORSDOF 7
ENDMDL
MODEL 8
REMARK VINA RESULT:      -4.0      1.992      4.868
REMARK  7 active torsions:
REMARK  status: ('A' for Active; 'I' for Inactive)
REMARK    1  A    between atoms: C_2  and  C_3 
REMARK    2  A    between atoms: C_3  and  O_6 
REMARK    3  A    between atoms: C_3  and  C_4 
REMARK    4  A    between atoms: C_7  and  O_6 
REMARK    5  A    between atoms: C_9  and  C_10 
REMARK    6  A    between atoms: N_15  and  C_14 
REMARK    7  A    between atoms: N_20  and  C_19 
REMARK       I    between atoms: C_22  and  N_20 
ROOT
ATOM      1  C   LIG d   1       3.411  89.221 115.161  0.00  0.00     0.161 C 
ATOM      2  C   LIG d   1       4.699  88.916 114.690  0.00  0.00     0.016 C 
ATOM      3  C   LIG d   1       5.833  88.826 115.530  0.00  0.00     0.038 C 
ATOM      4  C   LIG d   1       5.727  88.885 116.927  0.00  0.00     0.028 C 
ATOM      5  C   LIG d   1       4.528  89.693 117.410  0.00  0.00    -0.047 C 
ATOM      6  C   LIG d   1       3.257  89.180 116.696  0.00  0.00     0.091 C 
ENDROOT
BRANCH   1   7
ATOM      7  O   LIG d   1       2.444  88.353 114.537  0.00  0.00    -0.368 OA
BRANCH   7   8
ATOM      8  C   LIG d   1       2.882  86.998 114.272  0.00  0.00     0.119 C 
BRANCH   8   9
ATOM      9  C   LIG d   1       2.328  86.593 112.892  0.00  0.00     0.028 C 
ATOM     10  C   LIG d   1       2.296  87.771 111.904  0.00  0.00     0.006 C 
ENDBRANCH   8   9
BRANCH   8  11
ATOM     11  C   LIG d   1       2.263  86.008 115.264  0.00  0.00     0.028 C 
ATOM     12  C   LIG d   1       3.271  85.503 116.308  0.00  0.00     0.006 C 
ENDBRANCH   8  11
ENDBRANCH   7   8
ENDBRANCH   1   7
BRANCH   6  13
ATOM     13  N   LIG d   1       2.049  89.972 117.048  0.00  0.00    -0.311 N 
ATOM     14  C   LIG d   1       0.901  89.423 117.440  0.00  0.00     0.210 C 
ATOM     15  C   LIG d   1      -0.224  90.419 117.736  0.00  0.00     0.109 C 
ATOM     16  O   LIG d   1       0.717  88.207 117.602  0.00  0.00    -0.276 OA
ATOM     17  H   LIG d   1       2.120  90.968 116.975  0.00  0.00     0.149 HD
ENDBRANCH   6  13
BRANCH   5  18
ATOM     18  N   LIG d   1       4.461  89.558 118.878  0.00  0.00     0.381 N 
ATOM     19  H   LIG d   1       4.796  88.656 119.150  0.00  0.00    -0.090 HD
ATOM     20  H   LIG d   1       3.502  89.639 119.168  0.00  0.00    -0.090 HD
ATOM     21  H   LIG d   1       5.008  90.269 119.311  0.00  0.00    -0.090 HD
ENDBRANCH   5  18
BRANCH   3  22
ATOM     22  C   LIG d   1       7.096  88.713 114.969  0.00  0.00     0.382 C 
ATOM     23  O   LIG d   1       8.089  88.487 115.701  0.00  0.00    -0.241 OA
ATOM     24  O   LIG d   1       7.261  88.878 113.745  0.00  0.00    -0.241 OA
ENDBRANCH   3  22
TORSDOF 7
ENDMDL
MODEL 9
REMARK VINA RESULT:      -3.9      2.100      5.011
REMARK  7 active torsions:
REMARK  status: ('A' for Active; 'I' for Inactive)
REMARK    1  A    between atoms: C_2  and  C_3 
REMARK    2  A    between atoms: C_3  and  O_6 
REMARK    3  A    between atoms: C_3  and  C_4 
REMARK    4  A    between atoms: C_7  and  O_6 
REMARK    5  A    between atoms: C_9  and  C_10 
REMARK    6  A    between atoms: N_15  and  C_14 
REMARK    7  A    between atoms: N_20  and  C_19 
REMARK       I    between atoms: C_22  and  N_20 
ROOT
ATOM      1  C   LIG d   1       3.563  88.355 115.924  0.00  0.00     0.161 C 
ATOM      2  C   LIG d   1       2.945  87.989 114.717  0.00  0.00     0.016 C 
ATOM      3  C   LIG d   1       3.603  88.016 113.466  0.00  0.00     0.038 C 
ATOM      4  C   LIG d   1       4.979  88.267 113.357  0.00  0.00     0.028 C 
ATOM      5  C   LIG d   1       5.527  89.133 114.486  0.00  0.00    -0.047 C 
ATOM      6  C   LIG d   1       5.095  88.525 115.840  0.00  0.00     0.091 C 
ENDROOT
BRANCH   1   7
ATOM      7  O   LIG d   1       3.220  87.409 116.955  0.00  0.00    -0.368 OA
BRANCH   7   8
ATOM      8  C   LIG d   1       2.395  87.913 118.034  0.00  0.00     0.119 C 
BRANCH   8   9
ATOM      9  C   LIG d   1       1.245  86.909 118.245  0.00  0.00     0.028 C 
ATOM     10  C   LIG d   1       1.190  85.839 117.142  0.00  0.00     0.006 C 
ENDBRANCH   8   9
BRANCH   8  11
ATOM     11  C   LIG d   1       1.716  89.231 117.647  0.00  0.00     0.028 C 
ATOM     12  C   LIG d   1       1.778  90.283 118.765  0.00  0.00     0.006 C 
ENDBRANCH   8  11
ENDBRANCH   7   8
ENDBRANCH   1   7
BRANCH   6  13
ATOM     13  N   LIG d   1       5.518  89.358 116.996  0.00  0.00    -0.311 N 
ATOM     14  C   LIG d   1       5.156  90.629 117.156  0.00  0.00     0.210 C 
ATOM     15  C   LIG d   1       5.720  91.310 118.407  0.00  0.00     0.109 C 
ATOM     16  O   LIG d   1       4.394  91.248 116.398  0.00  0.00    -0.276 OA
ATOM     17  H   LIG d   1       6.113  88.925 117.676  0.00  0.00     0.149 HD
ENDBRANCH   6  13
BRANCH   5  18
ATOM     18  N   LIG d   1       6.992  89.201 114.324  0.00  0.00     0.381 N 
ATOM     19  H   LIG d   1       7.414  88.383 114.717  0.00  0.00    -0.090 HD
ATOM     20  H   LIG d   1       7.337  90.003 114.821  0.00  0.00    -0.090 HD
ATOM     21  H   LIG d   1       7.226  89.273 113.359  0.00  0.00    -0.090 HD
ENDBRANCH   5  18
BRANCH   3  22
ATOM     22  C   LIG d   1       2.874  87.827 112.301  0.00  0.00     0.382 C 
ATOM     23  O   LIG d   1       1.785  88.429 112.139  0.00  0.00    -0.241 OA
ATOM     24  O   LIG d   1       3.269  87.029 111.430  0.00  0.00    -0.241 OA
ENDBRANCH   3  22
TORSDOF 7
ENDMDL
