MODEL 1
REMARK VINA RESULT:      -4.5      0.000      0.000
REMARK  7 active torsions:
REMARK  status: ('A' for Active; 'I' for Inactive)
REMARK    1  A    between atoms: C_2  and  C_3 
REMARK    2  A    between atoms: C_3  and  O_6 
REMARK    3  A    between atoms: C_3  and  C_4 
REMARK    4  A    between atoms: C_7  and  O_6 
REMARK    5  A    between atoms: C_9  and  C_10 
REMARK    6  A    between atoms: N_15  and  C_14 
REMARK    7  A    between atoms: N_20  and  C_19 
REMARK       I    between atoms: C_22  and  N_20 
ROOT
ATOM      1  C   LIG d   1       4.756  87.298 116.098  0.00  0.00     0.161 C 
ATOM      2  C   LIG d   1       3.740  88.263 115.999  0.00  0.00     0.016 C 
ATOM      3  C   LIG d   1       3.948  89.640 116.246  0.00  0.00     0.038 C 
ATOM      4  C   LIG d   1       5.229  90.169 116.463  0.00  0.00     0.028 C 
ATOM      5  C   LIG d   1       6.204  89.165 117.069  0.00  0.00    -0.047 C 
ATOM      6  C   LIG d   1       6.183  87.871 116.224  0.00  0.00     0.091 C 
ENDROOT
BRANCH   1   7
ATOM      7  O   LIG d   1       4.677  86.391 114.980  0.00  0.00    -0.368 OA
BRANCH   7   8
ATOM      8  C   LIG d   1       3.804  86.790 113.895  0.00  0.00     0.119 C 
BRANCH   8   9
ATOM      9  C   LIG d   1       2.910  85.583 113.552  0.00  0.00     0.028 C 
ATOM     10  C   LIG d   1       1.497  85.712 114.145  0.00  0.00     0.006 C 
ENDBRANCH   8   9
BRANCH   8  11
ATOM     11  C   LIG d   1       4.599  87.081 112.619  0.00  0.00     0.028 C 
ATOM     12  C   LIG d   1       4.251  86.123 111.468  0.00  0.00     0.006 C 
ENDBRANCH   8  11
ENDBRANCH   7   8
ENDBRANCH   1   7
BRANCH   6  13
ATOM     13  N   LIG d   1       7.046  86.806 116.796  0.00  0.00    -0.311 N 
ATOM     14  C   LIG d   1       8.302  86.592 116.407  0.00  0.00     0.210 C 
ATOM     15  C   LIG d   1       9.009  85.430 117.112  0.00  0.00     0.109 C 
ATOM     16  O   LIG d   1       8.909  87.276 115.569  0.00  0.00    -0.276 OA
ATOM     17  H   LIG d   1       6.644  86.224 117.505  0.00  0.00     0.149 HD
ENDBRANCH   6  13
BRANCH   5  18
ATOM     18  N   LIG d   1       7.532  89.805 117.112  0.00  0.00     0.381 N 
ATOM     19  H   LIG d   1       7.447  90.779 116.897  0.00  0.00    -0.090 HD
ATOM     20  H   LIG d   1       8.121  89.379 116.419  0.00  0.00    -0.090 HD
ATOM     21  H   LIG d   1       7.936  89.692 118.016  0.00  0.00    -0.090 HD
ENDBRANCH   5  18
BRANCH   3  22
ATOM     22  C   LIG d   1       2.860  90.497 116.318  0.00  0.00     0.382 C 
ATOM     23  O   LIG d   1       1.730  90.109 115.936  0.00  0.00    -0.241 OA
ATOM     24  O   LIG d   1       3.004  91.668 116.718  0.00  0.00    -0.241 OA
ENDBRANCH   3  22
TORSDOF 7
ENDMDL
MODEL 2
REMARK VINA RESULT:      -4.4      3.102      5.138
REMARK  7 active torsions:
REMARK  status: ('A' for Active; 'I' for Inactive)
REMARK    1  A    between atoms: C_2  and  C_3 
REMARK    2  A    between atoms: C_3  and  O_6 
REMARK    3  A    between atoms: C_3  and  C_4 
REMARK    4  A    between atoms: C_7  and  O_6 
REMARK    5  A    between atoms: C_9  and  C_10 
REMARK    6  A    between atoms: N_15  and  C_14 
REMARK    7  A    between atoms: N_20  and  C_19 
REMARK       I    between atoms: C_22  and  N_20 
ROOT
ATOM      1  C   LIG d   1       3.081  88.192 116.148  0.00  0.00     0.161 C 
ATOM      2  C   LIG d   1       3.694  88.816 117.247  0.00  0.00     0.016 C 
ATOM      3  C   LIG d   1       4.765  89.731 117.125  0.00  0.00     0.038 C 
ATOM      4  C   LIG d   1       5.198  90.202 115.877  0.00  0.00     0.028 C 
ATOM      5  C   LIG d   1       4.947  89.220 114.738  0.00  0.00    -0.047 C 
ATOM      6  C   LIG d   1       3.466  88.778 114.774  0.00  0.00     0.091 C 
ENDROOT
BRANCH   1   7
ATOM      7  O   LIG d   1       1.649  88.205 116.314  0.00  0.00    -0.368 OA
BRANCH   7   8
ATOM      8  C   LIG d   1       1.159  88.709 117.582  0.00  0.00     0.119 C 
BRANCH   8   9
ATOM      9  C   LIG d   1       0.277  87.611 118.207  0.00  0.00     0.028 C 
ATOM     10  C   LIG d   1      -1.158  88.094 118.477  0.00  0.00     0.006 C 
ENDBRANCH   8   9
BRANCH   8  11
ATOM     11  C   LIG d   1       0.231  89.911 117.382  0.00  0.00     0.028 C 
ATOM     12  C   LIG d   1       0.996  91.227 117.169  0.00  0.00     0.006 C 
ENDBRANCH   8  11
ENDBRANCH   7   8
ENDBRANCH   1   7
BRANCH   6  13
ATOM     13  N   LIG d   1       3.156  87.752 113.744  0.00  0.00    -0.311 N 
ATOM     14  C   LIG d   1       2.509  88.022 112.612  0.00  0.00     0.210 C 
ATOM     15  C   LIG d   1       2.274  86.816 111.697  0.00  0.00     0.109 C 
ATOM     16  O   LIG d   1       2.136  89.152 112.263  0.00  0.00    -0.276 OA
ATOM     17  H   LIG d   1       3.450  86.814 113.932  0.00  0.00     0.149 HD
ENDBRANCH   6  13
BRANCH   5  18
ATOM     18  N   LIG d   1       5.320  89.892 113.479  0.00  0.00     0.381 N 
ATOM     19  H   LIG d   1       6.315  89.970 113.418  0.00  0.00    -0.090 HD
ATOM     20  H   LIG d   1       4.930  90.818 113.478  0.00  0.00    -0.090 HD
ATOM     21  H   LIG d   1       4.971  89.377 112.701  0.00  0.00    -0.090 HD
ENDBRANCH   5  18
BRANCH   3  22
ATOM     22  C   LIG d   1       5.440  90.153 118.260  0.00  0.00     0.382 C 
ATOM     23  O   LIG d   1       5.006  91.126 118.922  0.00  0.00    -0.241 OA
ATOM     24  O   LIG d   1       6.503  89.602 118.604  0.00  0.00    -0.241 OA
ENDBRANCH   3  22
TORSDOF 7
ENDMDL
MODEL 3
REMARK VINA RESULT:      -4.2      2.544      4.421
REMARK  7 active torsions:
REMARK  status: ('A' for Active; 'I' for Inactive)
REMARK    1  A    between atoms: C_2  and  C_3 
REMARK    2  A    between atoms: C_3  and  O_6 
REMARK    3  A    between atoms: C_3  and  C_4 
REMARK    4  A    between atoms: C_7  and  O_6 
REMARK    5  A    between atoms: C_9  and  C_10 
REMARK    6  A    between atoms: N_15  and  C_14 
REMARK    7  A    between atoms: N_20  and  C_19 
REMARK       I    between atoms: C_22  and  N_20 
ROOT
ATOM      1  C   LIG d   1       3.622  87.696 115.364  0.00  0.00     0.161 C 
ATOM      2  C   LIG d   1       2.749  87.239 114.363  0.00  0.00     0.016 C 
ATOM      3  C   LIG d   1       3.089  87.200 112.991  0.00  0.00     0.038 C 
ATOM      4  C   LIG d   1       4.389  87.476 112.542  0.00  0.00     0.028 C 
ATOM      5  C   LIG d   1       5.157  88.425 113.455  0.00  0.00    -0.047 C 
ATOM      6  C   LIG d   1       5.082  87.896 114.906  0.00  0.00     0.091 C 
ENDROOT
BRANCH   1   7
ATOM      7  O   LIG d   1       3.570  86.810 116.500  0.00  0.00    -0.368 OA
BRANCH   7   8
ATOM      8  C   LIG d   1       2.934  87.336 117.690  0.00  0.00     0.119 C 
BRANCH   8   9
ATOM      9  C   LIG d   1       1.601  86.585 117.872  0.00  0.00     0.028 C 
ATOM     10  C   LIG d   1       0.387  87.437 117.463  0.00  0.00     0.006 C 
ENDBRANCH   8   9
BRANCH   8  11
ATOM     11  C   LIG d   1       2.550  88.808 117.512  0.00  0.00     0.028 C 
ATOM     12  C   LIG d   1       3.280  89.738 118.494  0.00  0.00     0.006 C 
ENDBRANCH   8  11
ENDBRANCH   7   8
ENDBRANCH   1   7
BRANCH   6  13
ATOM     13  N   LIG d   1       5.737  88.810 115.877  0.00  0.00    -0.311 N 
ATOM     14  C   LIG d   1       6.603  88.399 116.802  0.00  0.00     0.210 C 
ATOM     15  C   LIG d   1       7.146  89.502 117.716  0.00  0.00     0.109 C 
ATOM     16  O   LIG d   1       6.997  87.230 116.932  0.00  0.00    -0.276 OA
ATOM     17  H   LIG d   1       5.498  89.781 115.823  0.00  0.00     0.149 HD
ENDBRANCH   6  13
BRANCH   5  18
ATOM     18  N   LIG d   1       6.538  88.516 112.944  0.00  0.00     0.381 N 
ATOM     19  H   LIG d   1       6.523  88.660 111.954  0.00  0.00    -0.090 HD
ATOM     20  H   LIG d   1       7.011  87.650 113.130  0.00  0.00    -0.090 HD
ATOM     21  H   LIG d   1       7.017  89.267 113.389  0.00  0.00    -0.090 HD
ENDBRANCH   5  18
BRANCH   3  22
ATOM     22  C   LIG d   1       2.111  86.921 112.048  0.00  0.00     0.382 C 
ATOM     23  O   LIG d   1       1.184  87.741 111.845  0.00  0.00    -0.241 OA
ATOM     24  O   LIG d   1       2.121  85.840 111.430  0.00  0.00    -0.241 OA
ENDBRANCH   3  22
TORSDOF 7
ENDMDL
MODEL 4
REMARK VINA RESULT:      -4.0      2.670      5.333
REMARK  7 active torsions:
REMARK  status: ('A' for Active; 'I' for Inactive)
REMARK    1  A    between atoms: C_2  and  C_3 
REMARK    2  A    between atoms: C_3  and  O_6 
REMARK    3  A    between atoms: C_3  and  C_4 
REMARK    4  A    between atoms: C_7  and  O_6 
REMARK    5  A    between atoms: C_9  and  C_10 
REMARK    6  A    between atoms: N_15  and  C_14 
REMARK    7  A    between atoms: N_20  and  C_19 
REMARK       I    between atoms: C_22  and  N_20 
ROOT
ATOM      1  C   LIG d   1       4.647  86.022 115.032  0.00  0.00     0.161 C 
ATOM      2  C   LIG d   1       5.754  86.049 115.897  0.00  0.00     0.016 C 
ATOM      3  C   LIG d   1       6.687  87.111 115.934  0.00  0.00     0.038 C 
ATOM      4  C   LIG d   1       6.490  88.296 115.210  0.00  0.00     0.028 C 
ATOM      5  C   LIG d   1       5.657  88.103 113.947  0.00  0.00    -0.047 C 
ATOM      6  C   LIG d   1       4.355  87.356 114.314  0.00  0.00     0.091 C 
ENDROOT
BRANCH   1   7
ATOM      7  O   LIG d   1       3.479  85.572 115.747  0.00  0.00    -0.368 OA
BRANCH   7   8
ATOM      8  C   LIG d   1       2.812  86.563 116.567  0.00  0.00     0.119 C 
BRANCH   8   9
ATOM      9  C   LIG d   1       2.936  86.111 118.034  0.00  0.00     0.028 C 
ATOM     10  C   LIG d   1       3.900  86.997 118.842  0.00  0.00     0.006 C 
ENDBRANCH   8   9
BRANCH   8  11
ATOM     11  C   LIG d   1       1.308  86.601 116.280  0.00  0.00     0.028 C 
ATOM     12  C   LIG d   1       0.508  87.303 117.389  0.00  0.00     0.006 C 
ENDBRANCH   8  11
ENDBRANCH   7   8
ENDBRANCH   1   7
BRANCH   6  13
ATOM     13  N   LIG d   1       3.520  87.052 113.123  0.00  0.00    -0.311 N 
ATOM     14  C   LIG d   1       2.578  87.871 112.659  0.00  0.00     0.210 C 
ATOM     15  C   LIG d   1       1.820  87.356 111.431  0.00  0.00     0.109 C 
ATOM     16  O   LIG d   1       2.319  88.989 113.129  0.00  0.00    -0.276 OA
ATOM     17  H   LIG d   1       3.685  86.179 112.661  0.00  0.00     0.149 HD
ENDBRANCH   6  13
BRANCH   5  18
ATOM     18  N   LIG d   1       5.415  89.437 113.365  0.00  0.00     0.381 N 
ATOM     19  H   LIG d   1       5.214  89.349 112.389  0.00  0.00    -0.090 HD
ATOM     20  H   LIG d   1       6.246  89.992 113.467  0.00  0.00    -0.090 HD
ATOM     21  H   LIG d   1       4.653  89.878 113.830  0.00  0.00    -0.090 HD
ENDBRANCH   5  18
BRANCH   3  22
ATOM     22  C   LIG d   1       7.852  86.976 116.673  0.00  0.00     0.382 C 
ATOM     23  O   LIG d   1       8.932  87.438 116.230  0.00  0.00    -0.241 OA
ATOM     24  O   LIG d   1       7.847  86.359 117.755  0.00  0.00    -0.241 OA
ENDBRANCH   3  22
TORSDOF 7
ENDMDL
MODEL 5
REMARK VINA RESULT:      -3.9      2.668      4.916
REMARK  7 active torsions:
REMARK  status: ('A' for Active; 'I' for Inactive)
REMARK    1  A    between atoms: C_2  and  C_3 
REMARK    2  A    between atoms: C_3  and  O_6 
REMARK    3  A    between atoms: C_3  and  C_4 
REMARK    4  A    between atoms: C_7  and  O_6 
REMARK    5  A    between atoms: C_9  and  C_10 
REMARK    6  A    between atoms: N_15  and  C_14 
REMARK    7  A    between atoms: N_20  and  C_19 
REMARK       I    between atoms: C_22  and  N_20 
ROOT
ATOM      1  C   LIG d   1       3.121  89.164 116.172  0.00  0.00     0.161 C 
ATOM      2  C   LIG d   1       2.684  88.804 114.886  0.00  0.00     0.016 C 
ATOM      3  C   LIG d   1       3.523  88.207 113.917  0.00  0.00     0.038 C 
ATOM      4  C   LIG d   1       4.827  87.789 114.223  0.00  0.00     0.028 C 
ATOM      5  C   LIG d   1       5.471  88.588 115.350  0.00  0.00    -0.047 C 
ATOM      6  C   LIG d   1       4.510  88.614 116.560  0.00  0.00     0.091 C 
ENDROOT
BRANCH   1   7
ATOM      7  O   LIG d   1       2.136  88.774 117.149  0.00  0.00    -0.368 OA
BRANCH   7   8
ATOM      8  C   LIG d   1       1.412  89.854 117.790  0.00  0.00     0.119 C 
BRANCH   8   9
ATOM      9  C   LIG d   1      -0.071  89.441 117.856  0.00  0.00     0.028 C 
ATOM     10  C   LIG d   1      -0.262  87.919 117.747  0.00  0.00     0.006 C 
ENDBRANCH   8   9
BRANCH   8  11
ATOM     11  C   LIG d   1       1.442  91.126 116.938  0.00  0.00     0.028 C 
ATOM     12  C   LIG d   1       1.727  92.390 117.765  0.00  0.00     0.006 C 
ENDBRANCH   8  11
ENDBRANCH   7   8
ENDBRANCH   1   7
BRANCH   6  13
ATOM     13  N   LIG d   1       5.026  89.446 117.678  0.00  0.00    -0.311 N 
ATOM     14  C   LIG d   1       5.204  90.763 117.589  0.00  0.00     0.210 C 
ATOM     15  C   LIG d   1       5.766  91.426 118.851  0.00  0.00     0.109 C 
ATOM     16  O   LIG d   1       4.920  91.450 116.596  0.00  0.00    -0.276 OA
ATOM     17  H   LIG d   1       5.253  88.974 118.531  0.00  0.00     0.149 HD
ENDBRANCH   6  13
BRANCH   5  18
ATOM     18  N   LIG d   1       6.770  87.959 115.657  0.00  0.00     0.381 N 
ATOM     19  H   LIG d   1       7.514  88.584 115.420  0.00  0.00    -0.090 HD
ATOM     20  H   LIG d   1       6.868  87.127 115.102  0.00  0.00    -0.090 HD
ATOM     21  H   LIG d   1       6.816  87.728 116.625  0.00  0.00    -0.090 HD
ENDBRANCH   5  18
BRANCH   3  22
ATOM     22  C   LIG d   1       3.073  88.059 112.614  0.00  0.00     0.382 C 
ATOM     23  O   LIG d   1       3.634  87.242 111.845  0.00  0.00    -0.241 OA
ATOM     24  O   LIG d   1       2.140  88.765 112.185  0.00  0.00    -0.241 OA
ENDBRANCH   3  22
TORSDOF 7
ENDMDL
MODEL 6
REMARK VINA RESULT:      -3.9      2.156      2.783
REMARK  7 active torsions:
REMARK  status: ('A' for Active; 'I' for Inactive)
REMARK    1  A    between atoms: C_2  and  C_3 
REMARK    2  A    between atoms: C_3  and  O_6 
REMARK    3  A    between atoms: C_3  and  C_4 
REMARK    4  A    between atoms: C_7  and  O_6 
REMARK    5  A    between atoms: C_9  and  C_10 
REMARK    6  A    between atoms: N_15  and  C_14 
REMARK    7  A    between atoms: N_20  and  C_19 
REMARK       I    between atoms: C_22  and  N_20 
ROOT
ATOM      1  C   LIG d   1       3.836  89.565 115.827  0.00  0.00     0.161 C 
ATOM      2  C   LIG d   1       2.499  89.934 116.052  0.00  0.00     0.016 C 
ATOM      3  C   LIG d   1       2.121  91.048 116.835  0.00  0.00     0.038 C 
ATOM      4  C   LIG d   1       3.064  91.965 117.325  0.00  0.00     0.028 C 
ATOM      5  C   LIG d   1       4.443  91.354 117.547  0.00  0.00    -0.047 C 
ATOM      6  C   LIG d   1       4.879  90.616 116.261  0.00  0.00     0.091 C 
ENDROOT
BRANCH   1   7
ATOM      7  O   LIG d   1       4.020  89.219 114.440  0.00  0.00    -0.368 OA
BRANCH   7   8
ATOM      8  C   LIG d   1       3.752  87.840 114.086  0.00  0.00     0.119 C 
BRANCH   8   9
ATOM      9  C   LIG d   1       5.018  87.024 114.412  0.00  0.00     0.028 C 
ATOM     10  C   LIG d   1       4.795  86.031 115.565  0.00  0.00     0.006 C 
ENDBRANCH   8   9
BRANCH   8  11
ATOM     11  C   LIG d   1       3.546  87.682 112.576  0.00  0.00     0.028 C 
ATOM     12  C   LIG d   1       4.589  86.759 111.926  0.00  0.00     0.006 C 
ENDBRANCH   8  11
ENDBRANCH   7   8
ENDBRANCH   1   7
BRANCH   6  13
ATOM     13  N   LIG d   1       6.181  89.919 116.420  0.00  0.00    -0.311 N 
ATOM     14  C   LIG d   1       6.393  88.959 117.319  0.00  0.00     0.210 C 
ATOM     15  C   LIG d   1       7.814  88.386 117.330  0.00  0.00     0.109 C 
ATOM     16  O   LIG d   1       5.531  88.506 118.087  0.00  0.00    -0.276 OA
ATOM     17  H   LIG d   1       6.928  90.202 115.817  0.00  0.00     0.149 HD
ENDBRANCH   6  13
BRANCH   5  18
ATOM     18  N   LIG d   1       5.359  92.447 117.925  0.00  0.00     0.381 N 
ATOM     19  H   LIG d   1       4.832  93.268 118.149  0.00  0.00    -0.090 HD
ATOM     20  H   LIG d   1       5.954  92.657 117.143  0.00  0.00    -0.090 HD
ATOM     21  H   LIG d   1       5.911  92.174 118.708  0.00  0.00    -0.090 HD
ENDBRANCH   5  18
BRANCH   3  22
ATOM     22  C   LIG d   1       0.788  91.233 117.169  0.00  0.00     0.382 C 
ATOM     23  O   LIG d   1      -0.016  90.272 117.096  0.00  0.00    -0.241 OA
ATOM     24  O   LIG d   1       0.370  92.358 117.501  0.00  0.00    -0.241 OA
ENDBRANCH   3  22
TORSDOF 7
ENDMDL
MODEL 7
REMARK VINA RESULT:      -3.8      4.687      6.861
REMARK  7 active torsions:
REMARK  status: ('A' for Active; 'I' for Inactive)
REMARK    1  A    between atoms: C_2  and  C_3 
REMARK    2  A    between atoms: C_3  and  O_6 
REMARK    3  A    between atoms: C_3  and  C_4 
REMARK    4  A    between atoms: C_7  and  O_6 
REMARK    5  A    between atoms: C_9  and  C_10 
REMARK    6  A    between atoms: N_15  and  C_14 
REMARK    7  A    between atoms: N_20  and  C_19 
REMARK       I    between atoms: C_22  and  N_20 
ROOT
ATOM      1  C   LIG d   1      -0.034  90.512 117.997  0.00  0.00     0.161 C 
ATOM      2  C   LIG d   1      -1.424  90.391 117.834  0.00  0.00     0.016 C 
ATOM      3  C   LIG d   1      -2.304  91.498 117.808  0.00  0.00     0.038 C 
ATOM      4  C   LIG d   1      -1.833  92.819 117.792  0.00  0.00     0.028 C 
ATOM      5  C   LIG d   1      -0.474  92.986 118.463  0.00  0.00    -0.047 C 
ATOM      6  C   LIG d   1       0.509  91.951 117.870  0.00  0.00     0.091 C 
ENDROOT
BRANCH   1   7
ATOM      7  O   LIG d   1       0.644  89.637 117.074  0.00  0.00    -0.368 OA
BRANCH   7   8
ATOM      8  C   LIG d   1       1.328  88.501 117.659  0.00  0.00     0.119 C 
BRANCH   8   9
ATOM      9  C   LIG d   1       2.588  88.234 116.813  0.00  0.00     0.028 C 
ATOM     10  C   LIG d   1       2.387  87.090 115.805  0.00  0.00     0.006 C 
ENDBRANCH   8   9
BRANCH   8  11
ATOM     11  C   LIG d   1       0.486  87.226 117.547  0.00  0.00     0.028 C 
ATOM     12  C   LIG d   1       0.325  86.498 118.890  0.00  0.00     0.006 C 
ENDBRANCH   8  11
ENDBRANCH   7   8
ENDBRANCH   1   7
BRANCH   6  13
ATOM     13  N   LIG d   1       1.840  91.989 118.531  0.00  0.00    -0.311 N 
ATOM     14  C   LIG d   1       2.990  91.865 117.870  0.00  0.00     0.210 C 
ATOM     15  C   LIG d   1       4.246  91.913 118.746  0.00  0.00     0.109 C 
ATOM     16  O   LIG d   1       3.091  91.753 116.639  0.00  0.00    -0.276 OA
ATOM     17  H   LIG d   1       1.852  92.108 119.525  0.00  0.00     0.149 HD
ENDBRANCH   6  13
BRANCH   5  18
ATOM     18  N   LIG d   1      -0.041  94.380 118.253  0.00  0.00     0.381 N 
ATOM     19  H   LIG d   1      -0.138  94.623 117.287  0.00  0.00    -0.090 HD
ATOM     20  H   LIG d   1       0.929  94.461 118.502  0.00  0.00    -0.090 HD
ATOM     21  H   LIG d   1      -0.588  94.995 118.814  0.00  0.00    -0.090 HD
ENDBRANCH   5  18
BRANCH   3  22
ATOM     22  C   LIG d   1      -3.674  91.287 117.837  0.00  0.00     0.382 C 
ATOM     23  O   LIG d   1      -4.457  92.265 117.909  0.00  0.00    -0.241 OA
ATOM     24  O   LIG d   1      -4.136  90.130 117.838  0.00  0.00    -0.241 OA
ENDBRANCH   3  22
TORSDOF 7
ENDMDL
MODEL 8
REMARK VINA RESULT:      -3.8      4.052      5.895
REMARK  7 active torsions:
REMARK  status: ('A' for Active; 'I' for Inactive)
REMARK    1  A    between atoms: C_2  and  C_3 
REMARK    2  A    between atoms: C_3  and  O_6 
REMARK    3  A    between atoms: C_3  and  C_4 
REMARK    4  A    between atoms: C_7  and  O_6 
REMARK    5  A    between atoms: C_9  and  C_10 
REMARK    6  A    between atoms: N_15  and  C_14 
REMARK    7  A    between atoms: N_20  and  C_19 
REMARK       I    between atoms: C_22  and  N_20 
ROOT
ATOM      1  C   LIG d   1       1.058  89.134 118.786  0.00  0.00     0.161 C 
ATOM      2  C   LIG d   1      -0.280  88.706 118.759  0.00  0.00     0.016 C 
ATOM      3  C   LIG d   1      -1.338  89.492 118.248  0.00  0.00     0.038 C 
ATOM      4  C   LIG d   1      -1.107  90.707 117.586  0.00  0.00     0.028 C 
ATOM      5  C   LIG d   1       0.168  91.410 118.040  0.00  0.00    -0.047 C 
ATOM      6  C   LIG d   1       1.345  90.410 117.968  0.00  0.00     0.091 C 
ENDROOT
BRANCH   1   7
ATOM      7  O   LIG d   1       1.923  88.062 118.363  0.00  0.00    -0.368 OA
BRANCH   7   8
ATOM      8  C   LIG d   1       1.940  87.781 116.941  0.00  0.00     0.119 C 
BRANCH   8   9
ATOM      9  C   LIG d   1       1.553  86.301 116.757  0.00  0.00     0.028 C 
ATOM     10  C   LIG d   1       1.587  85.516 118.079  0.00  0.00     0.006 C 
ENDBRANCH   8   9
BRANCH   8  11
ATOM     11  C   LIG d   1       3.355  87.905 116.366  0.00  0.00     0.028 C 
ATOM     12  C   LIG d   1       4.443  87.884 117.452  0.00  0.00     0.006 C 
ENDBRANCH   8  11
ENDBRANCH   7   8
ENDBRANCH   1   7
BRANCH   6  13
ATOM     13  N   LIG d   1       2.615  90.993 118.475  0.00  0.00    -0.311 N 
ATOM     14  C   LIG d   1       3.567  91.479 117.680  0.00  0.00     0.210 C 
ATOM     15  C   LIG d   1       4.805  92.014 118.406  0.00  0.00     0.109 C 
ATOM     16  O   LIG d   1       3.490  91.546 116.444  0.00  0.00    -0.276 OA
ATOM     17  H   LIG d   1       2.747  91.006 119.467  0.00  0.00     0.149 HD
ENDBRANCH   6  13
BRANCH   5  18
ATOM     18  N   LIG d   1       0.358  92.590 117.174  0.00  0.00     0.381 N 
ATOM     19  H   LIG d   1      -0.390  93.238 117.317  0.00  0.00    -0.090 HD
ATOM     20  H   LIG d   1       0.342  92.295 116.214  0.00  0.00    -0.090 HD
ATOM     21  H   LIG d   1       1.230  93.026 117.380  0.00  0.00    -0.090 HD
ENDBRANCH   5  18
BRANCH   3  22
ATOM     22  C   LIG d   1      -2.650  89.081 118.432  0.00  0.00     0.382 C 
ATOM     23  O   LIG d   1      -2.891  87.955 118.930  0.00  0.00    -0.241 OA
ATOM     24  O   LIG d   1      -3.595  89.805 118.065  0.00  0.00    -0.241 OA
ENDBRANCH   3  22
TORSDOF 7
ENDMDL
MODEL 9
REMARK VINA RESULT:      -3.7      2.604      4.430
REMARK  7 active torsions:
REMARK  status: ('A' for Active; 'I' for Inactive)
REMARK    1  A    between atoms: C_2  and  C_3 
REMARK    2  A    between atoms: C_3  and  O_6 
REMARK    3  A    between atoms: C_3  and  C_4 
REMARK    4  A    between atoms: C_7  and  O_6 
REMARK    5  A    between atoms: C_9  and  C_10 
REMARK    6  A    between atoms: N_15  and  C_14 
REMARK    7  A    between atoms: N_20  and  C_19 
REMARK       I    between atoms: C_22  and  N_20 
ROOT
ATOM      1  C   LIG d   1       3.448  89.195 116.394  0.00  0.00     0.161 C 
ATOM      2  C   LIG d   1       2.858  88.873 115.161  0.00  0.00     0.016 C 
ATOM      3  C   LIG d   1       3.563  88.268 114.095  0.00  0.00     0.038 C 
ATOM      4  C   LIG d   1       4.878  87.804 114.245  0.00  0.00     0.028 C 
ATOM      5  C   LIG d   1       5.671  88.562 115.304  0.00  0.00    -0.047 C 
ATOM      6  C   LIG d   1       4.853  88.596 116.615  0.00  0.00     0.091 C 
ENDROOT
BRANCH   1   7
ATOM      7  O   LIG d   1       2.567  88.819 117.471  0.00  0.00    -0.368 OA
BRANCH   7   8
ATOM      8  C   LIG d   1       1.401  88.043 117.099  0.00  0.00     0.119 C 
BRANCH   8   9
ATOM      9  C   LIG d   1       0.187  88.658 117.822  0.00  0.00     0.028 C 
ATOM     10  C   LIG d   1       0.021  90.156 117.520  0.00  0.00     0.006 C 
ENDBRANCH   8   9
BRANCH   8  11
ATOM     11  C   LIG d   1       1.499  86.606 117.619  0.00  0.00     0.028 C 
ATOM     12  C   LIG d   1       2.137  85.646 116.602  0.00  0.00     0.006 C 
ENDBRANCH   8  11
ENDBRANCH   7   8
ENDBRANCH   1   7
BRANCH   6  13
ATOM     13  N   LIG d   1       5.519  89.391 117.679  0.00  0.00    -0.311 N 
ATOM     14  C   LIG d   1       5.594  90.721 117.662  0.00  0.00     0.210 C 
ATOM     15  C   LIG d   1       6.342  91.341 118.846  0.00  0.00     0.109 C 
ATOM     16  O   LIG d   1       5.084  91.447 116.796  0.00  0.00    -0.276 OA
ATOM     17  H   LIG d   1       5.933  88.883 118.436  0.00  0.00     0.149 HD
ENDBRANCH   6  13
BRANCH   5  18
ATOM     18  N   LIG d   1       6.974  87.888 115.453  0.00  0.00     0.381 N 
ATOM     19  H   LIG d   1       7.363  87.699 114.550  0.00  0.00    -0.090 HD
ATOM     20  H   LIG d   1       6.835  87.013 115.926  0.00  0.00    -0.090 HD
ATOM     21  H   LIG d   1       7.597  88.462 115.977  0.00  0.00    -0.090 HD
ENDBRANCH   5  18
BRANCH   3  22
ATOM     22  C   LIG d   1       2.964  88.159 112.849  0.00  0.00     0.382 C 
ATOM     23  O   LIG d   1       2.131  89.020 112.476  0.00  0.00    -0.241 OA
ATOM     24  O   LIG d   1       3.212  87.186 112.112  0.00  0.00    -0.241 OA
ENDBRANCH   3  22
TORSDOF 7
ENDMDL
