MODEL 1
REMARK VINA RESULT:      -4.7      0.000      0.000
REMARK  7 active torsions:
REMARK  status: ('A' for Active; 'I' for Inactive)
REMARK    1  A    between atoms: C_2  and  C_3 
REMARK    2  A    between atoms: C_3  and  O_6 
REMARK    3  A    between atoms: C_3  and  C_4 
REMARK    4  A    between atoms: C_7  and  O_6 
REMARK    5  A    between atoms: C_9  and  C_10 
REMARK    6  A    between atoms: N_15  and  C_14 
REMARK    7  A    between atoms: N_20  and  C_19 
REMARK       I    between atoms: C_22  and  N_20 
ROOT
ATOM      1  C   LIG d   1      -5.805  91.185 118.199  0.00  0.00     0.161 C 
ATOM      2  C   LIG d   1      -6.567  92.365 118.163  0.00  0.00     0.016 C 
ATOM      3  C   LIG d   1      -6.011  93.655 118.325  0.00  0.00     0.038 C 
ATOM      4  C   LIG d   1      -4.625  93.863 118.384  0.00  0.00     0.028 C 
ATOM      5  C   LIG d   1      -3.855  92.665 118.930  0.00  0.00    -0.047 C 
ATOM      6  C   LIG d   1      -4.278  91.399 118.151  0.00  0.00     0.091 C 
ENDROOT
BRANCH   1   7
ATOM      7  O   LIG d   1      -6.221  90.302 117.138  0.00  0.00    -0.368 OA
BRANCH   7   8
ATOM      8  C   LIG d   1      -6.722  90.941 115.937  0.00  0.00     0.119 C 
BRANCH   8   9
ATOM      9  C   LIG d   1      -8.070  90.279 115.589  0.00  0.00     0.028 C 
ATOM     10  C   LIG d   1      -8.450  89.165 116.579  0.00  0.00     0.006 C 
ENDBRANCH   8   9
BRANCH   8  11
ATOM     11  C   LIG d   1      -5.812  90.663 114.737  0.00  0.00     0.028 C 
ATOM     12  C   LIG d   1      -4.917  89.431 114.941  0.00  0.00     0.006 C 
ENDBRANCH   8  11
ENDBRANCH   7   8
ENDBRANCH   1   7
BRANCH   6  13
ATOM     13  N   LIG d   1      -3.634  90.168 118.678  0.00  0.00    -0.311 N 
ATOM     14  C   LIG d   1      -2.442  89.732 118.273  0.00  0.00     0.210 C 
ATOM     15  C   LIG d   1      -1.972  88.431 118.930  0.00  0.00     0.109 C 
ATOM     16  O   LIG d   1      -1.716  90.317 117.455  0.00  0.00    -0.276 OA
ATOM     17  H   LIG d   1      -4.140  89.648 119.368  0.00  0.00     0.149 HD
ENDBRANCH   6  13
BRANCH   5  18
ATOM     18  N   LIG d   1      -2.416  92.966 118.807  0.00  0.00     0.381 N 
ATOM     19  H   LIG d   1      -2.085  92.674 117.910  0.00  0.00    -0.090 HD
ATOM     20  H   LIG d   1      -1.916  92.454 119.511  0.00  0.00    -0.090 HD
ATOM     21  H   LIG d   1      -2.261  93.944 118.924  0.00  0.00    -0.090 HD
ENDBRANCH   5  18
BRANCH   3  22
ATOM     22  C   LIG d   1      -6.848  94.750 118.470  0.00  0.00     0.382 C 
ATOM     23  O   LIG d   1      -8.073  94.641 118.219  0.00  0.00    -0.241 OA
ATOM     24  O   LIG d   1      -6.387  95.858 118.807  0.00  0.00    -0.241 OA
ENDBRANCH   3  22
TORSDOF 7
ENDMDL
MODEL 2
REMARK VINA RESULT:      -4.7      6.927     10.130
REMARK  7 active torsions:
REMARK  status: ('A' for Active; 'I' for Inactive)
REMARK    1  A    between atoms: C_2  and  C_3 
REMARK    2  A    between atoms: C_3  and  O_6 
REMARK    3  A    between atoms: C_3  and  C_4 
REMARK    4  A    between atoms: C_7  and  O_6 
REMARK    5  A    between atoms: C_9  and  C_10 
REMARK    6  A    between atoms: N_15  and  C_14 
REMARK    7  A    between atoms: N_20  and  C_19 
REMARK       I    between atoms: C_22  and  N_20 
ROOT
ATOM      1  C   LIG d   1       3.222  89.220 116.072  0.00  0.00     0.161 C 
ATOM      2  C   LIG d   1       3.031  88.746 114.763  0.00  0.00     0.016 C 
ATOM      3  C   LIG d   1       4.095  88.435 113.885  0.00  0.00     0.038 C 
ATOM      4  C   LIG d   1       5.431  88.435 114.311  0.00  0.00     0.028 C 
ATOM      5  C   LIG d   1       5.698  89.392 115.468  0.00  0.00    -0.047 C 
ATOM      6  C   LIG d   1       4.671  89.121 116.591  0.00  0.00     0.091 C 
ENDROOT
BRANCH   1   7
ATOM      7  O   LIG d   1       2.320  88.547 116.972  0.00  0.00    -0.368 OA
BRANCH   7   8
ATOM      8  C   LIG d   1       0.973  89.077 117.040  0.00  0.00     0.119 C 
BRANCH   8   9
ATOM      9  C   LIG d   1       1.006  90.307 117.968  0.00  0.00     0.028 C 
ATOM     10  C   LIG d   1       0.614  91.603 117.240  0.00  0.00     0.006 C 
ENDBRANCH   8   9
BRANCH   8  11
ATOM     11  C   LIG d   1       0.018  88.087 117.713  0.00  0.00     0.028 C 
ATOM     12  C   LIG d   1      -1.374  88.684 117.972  0.00  0.00     0.006 C 
ENDBRANCH   8  11
ENDBRANCH   7   8
ENDBRANCH   1   7
BRANCH   6  13
ATOM     13  N   LIG d   1       4.809  90.070 117.726  0.00  0.00    -0.311 N 
ATOM     14  C   LIG d   1       4.478  91.358 117.649  0.00  0.00     0.210 C 
ATOM     15  C   LIG d   1       4.718  92.164 118.929  0.00  0.00     0.109 C 
ATOM     16  O   LIG d   1       3.980  91.902 116.652  0.00  0.00    -0.276 OA
ATOM     17  H   LIG d   1       5.176  89.705 118.583  0.00  0.00     0.149 HD
ENDBRANCH   6  13
BRANCH   5  18
ATOM     18  N   LIG d   1       7.094  89.190 115.900  0.00  0.00     0.381 N 
ATOM     19  H   LIG d   1       7.673  89.915 115.527  0.00  0.00    -0.090 HD
ATOM     20  H   LIG d   1       7.421  88.310 115.542  0.00  0.00    -0.090 HD
ATOM     21  H   LIG d   1       7.147  89.192 116.895  0.00  0.00    -0.090 HD
ENDBRANCH   5  18
BRANCH   3  22
ATOM     22  C   LIG d   1       3.828  88.159 112.553  0.00  0.00     0.382 C 
ATOM     23  O   LIG d   1       4.708  87.628 111.834  0.00  0.00    -0.241 OA
ATOM     24  O   LIG d   1       2.733  88.475 112.049  0.00  0.00    -0.241 OA
ENDBRANCH   3  22
TORSDOF 7
ENDMDL
MODEL 3
REMARK VINA RESULT:      -4.6      7.255     10.330
REMARK  7 active torsions:
REMARK  status: ('A' for Active; 'I' for Inactive)
REMARK    1  A    between atoms: C_2  and  C_3 
REMARK    2  A    between atoms: C_3  and  O_6 
REMARK    3  A    between atoms: C_3  and  C_4 
REMARK    4  A    between atoms: C_7  and  O_6 
REMARK    5  A    between atoms: C_9  and  C_10 
REMARK    6  A    between atoms: N_15  and  C_14 
REMARK    7  A    between atoms: N_20  and  C_19 
REMARK       I    between atoms: C_22  and  N_20 
ROOT
ATOM      1  C   LIG d   1       3.338  88.027 115.629  0.00  0.00     0.161 C 
ATOM      2  C   LIG d   1       3.992  88.675 116.690  0.00  0.00     0.016 C 
ATOM      3  C   LIG d   1       5.232  89.338 116.550  0.00  0.00     0.038 C 
ATOM      4  C   LIG d   1       5.834  89.529 115.297  0.00  0.00     0.028 C 
ATOM      5  C   LIG d   1       5.463  88.458 114.278  0.00  0.00    -0.047 C 
ATOM      6  C   LIG d   1       3.924  88.320 114.232  0.00  0.00     0.091 C 
ENDROOT
BRANCH   1   7
ATOM      7  O   LIG d   1       1.931  88.340 115.658  0.00  0.00    -0.368 OA
BRANCH   7   8
ATOM      8  C   LIG d   1       1.428  88.902 116.895  0.00  0.00     0.119 C 
BRANCH   8   9
ATOM      9  C   LIG d   1       0.226  88.045 117.337  0.00  0.00     0.028 C 
ATOM     10  C   LIG d   1      -0.956  88.900 117.826  0.00  0.00     0.006 C 
ENDBRANCH   8   9
BRANCH   8  11
ATOM     11  C   LIG d   1       0.865  90.310 116.680  0.00  0.00     0.028 C 
ATOM     12  C   LIG d   1       1.706  91.398 117.366  0.00  0.00     0.006 C 
ENDBRANCH   8  11
ENDBRANCH   7   8
ENDBRANCH   1   7
BRANCH   6  13
ATOM     13  N   LIG d   1       3.479  87.234 113.321  0.00  0.00    -0.311 N 
ATOM     14  C   LIG d   1       2.766  87.449 112.216  0.00  0.00     0.210 C 
ATOM     15  C   LIG d   1       2.395  86.188 111.430  0.00  0.00     0.109 C 
ATOM     16  O   LIG d   1       2.433  88.568 111.797  0.00  0.00    -0.276 OA
ATOM     17  H   LIG d   1       3.732  86.297 113.569  0.00  0.00     0.149 HD
ENDBRANCH   6  13
BRANCH   5  18
ATOM     18  N   LIG d   1       6.046  88.855 112.982  0.00  0.00     0.381 N 
ATOM     19  H   LIG d   1       5.527  89.618 112.596  0.00  0.00    -0.090 HD
ATOM     20  H   LIG d   1       5.986  88.078 112.347  0.00  0.00    -0.090 HD
ATOM     21  H   LIG d   1       6.999  89.120 113.104  0.00  0.00    -0.090 HD
ENDBRANCH   5  18
BRANCH   3  22
ATOM     22  C   LIG d   1       5.904  89.785 117.678  0.00  0.00     0.382 C 
ATOM     23  O   LIG d   1       6.972  89.230 118.032  0.00  0.00    -0.241 OA
ATOM     24  O   LIG d   1       5.432  90.705 118.372  0.00  0.00    -0.241 OA
ENDBRANCH   3  22
TORSDOF 7
ENDMDL
MODEL 4
REMARK VINA RESULT:      -4.6      2.135      4.375
REMARK  7 active torsions:
REMARK  status: ('A' for Active; 'I' for Inactive)
REMARK    1  A    between atoms: C_2  and  C_3 
REMARK    2  A    between atoms: C_3  and  O_6 
REMARK    3  A    between atoms: C_3  and  C_4 
REMARK    4  A    between atoms: C_7  and  O_6 
REMARK    5  A    between atoms: C_9  and  C_10 
REMARK    6  A    between atoms: N_15  and  C_14 
REMARK    7  A    between atoms: N_20  and  C_19 
REMARK       I    between atoms: C_22  and  N_20 
ROOT
ATOM      1  C   LIG d   1      -4.722  91.796 116.899  0.00  0.00     0.161 C 
ATOM      2  C   LIG d   1      -5.902  92.145 116.220  0.00  0.00     0.016 C 
ATOM      3  C   LIG d   1      -6.501  91.329 115.233  0.00  0.00     0.038 C 
ATOM      4  C   LIG d   1      -6.041  90.031 114.964  0.00  0.00     0.028 C 
ATOM      5  C   LIG d   1      -4.558  89.840 115.264  0.00  0.00    -0.047 C 
ATOM      6  C   LIG d   1      -4.268  90.335 116.699  0.00  0.00     0.091 C 
ENDROOT
BRANCH   1   7
ATOM      7  O   LIG d   1      -4.862  92.090 118.303  0.00  0.00    -0.368 OA
BRANCH   7   8
ATOM      8  C   LIG d   1      -3.971  93.101 118.835  0.00  0.00     0.119 C 
BRANCH   8   9
ATOM      9  C   LIG d   1      -4.768  94.416 118.930  0.00  0.00     0.028 C 
ATOM     10  C   LIG d   1      -6.288  94.183 118.925  0.00  0.00     0.006 C 
ENDBRANCH   8   9
BRANCH   8  11
ATOM     11  C   LIG d   1      -2.820  93.393 117.869  0.00  0.00     0.028 C 
ATOM     12  C   LIG d   1      -1.456  93.471 118.573  0.00  0.00     0.006 C 
ENDBRANCH   8  11
ENDBRANCH   7   8
ENDBRANCH   1   7
BRANCH   6  13
ATOM     13  N   LIG d   1      -2.824  90.262 117.043  0.00  0.00    -0.311 N 
ATOM     14  C   LIG d   1      -2.349  89.546 118.061  0.00  0.00     0.210 C 
ATOM     15  C   LIG d   1      -0.831  89.625 118.253  0.00  0.00     0.109 C 
ATOM     16  O   LIG d   1      -3.036  88.829 118.803  0.00  0.00    -0.276 OA
ATOM     17  H   LIG d   1      -2.192  90.789 116.473  0.00  0.00     0.149 HD
ENDBRANCH   6  13
BRANCH   5  18
ATOM     18  N   LIG d   1      -4.246  88.411 115.071  0.00  0.00     0.381 N 
ATOM     19  H   LIG d   1      -3.319  88.220 115.397  0.00  0.00    -0.090 HD
ATOM     20  H   LIG d   1      -4.284  88.199 114.089  0.00  0.00    -0.090 HD
ATOM     21  H   LIG d   1      -4.902  87.848 115.565  0.00  0.00    -0.090 HD
ENDBRANCH   5  18
BRANCH   3  22
ATOM     22  C   LIG d   1      -7.550  91.826 114.474  0.00  0.00     0.382 C 
ATOM     23  O   LIG d   1      -8.700  91.343 114.601  0.00  0.00    -0.241 OA
ATOM     24  O   LIG d   1      -7.351  92.722 113.632  0.00  0.00    -0.241 OA
ENDBRANCH   3  22
TORSDOF 7
ENDMDL
MODEL 5
REMARK VINA RESULT:      -4.5      8.700     11.015
REMARK  7 active torsions:
REMARK  status: ('A' for Active; 'I' for Inactive)
REMARK    1  A    between atoms: C_2  and  C_3 
REMARK    2  A    between atoms: C_3  and  O_6 
REMARK    3  A    between atoms: C_3  and  C_4 
REMARK    4  A    between atoms: C_7  and  O_6 
REMARK    5  A    between atoms: C_9  and  C_10 
REMARK    6  A    between atoms: N_15  and  C_14 
REMARK    7  A    between atoms: N_20  and  C_19 
REMARK       I    between atoms: C_22  and  N_20 
ROOT
ATOM      1  C   LIG d   1       4.478  87.500 116.089  0.00  0.00     0.161 C 
ATOM      2  C   LIG d   1       3.432  88.437 116.082  0.00  0.00     0.016 C 
ATOM      3  C   LIG d   1       3.578  89.770 116.530  0.00  0.00     0.038 C 
ATOM      4  C   LIG d   1       4.829  90.303 116.876  0.00  0.00     0.028 C 
ATOM      5  C   LIG d   1       5.816  89.254 117.378  0.00  0.00    -0.047 C 
ATOM      6  C   LIG d   1       5.876  88.094 116.359  0.00  0.00     0.091 C 
ENDROOT
BRANCH   1   7
ATOM      7  O   LIG d   1       4.479  86.759 114.853  0.00  0.00    -0.368 OA
BRANCH   7   8
ATOM      8  C   LIG d   1       3.925  87.441 113.700  0.00  0.00     0.119 C 
BRANCH   8   9
ATOM      9  C   LIG d   1       3.265  86.376 112.805  0.00  0.00     0.028 C 
ATOM     10  C   LIG d   1       3.947  86.259 111.431  0.00  0.00     0.006 C 
ENDBRANCH   8   9
BRANCH   8  11
ATOM     11  C   LIG d   1       5.027  88.067 112.841  0.00  0.00     0.028 C 
ATOM     12  C   LIG d   1       5.170  89.581 113.065  0.00  0.00     0.006 C 
ENDBRANCH   8  11
ENDBRANCH   7   8
ENDBRANCH   1   7
BRANCH   6  13
ATOM     13  N   LIG d   1       6.756  86.985 116.814  0.00  0.00    -0.311 N 
ATOM     14  C   LIG d   1       8.049  86.902 116.507  0.00  0.00     0.210 C 
ATOM     15  C   LIG d   1       8.767  85.668 117.061  0.00  0.00     0.109 C 
ATOM     16  O   LIG d   1       8.677  87.751 115.856  0.00  0.00    -0.276 OA
ATOM     17  H   LIG d   1       6.335  86.270 117.373  0.00  0.00     0.149 HD
ENDBRANCH   6  13
BRANCH   5  18
ATOM     18  N   LIG d   1       7.116  89.923 117.572  0.00  0.00     0.381 N 
ATOM     19  H   LIG d   1       7.859  89.268 117.426  0.00  0.00    -0.090 HD
ATOM     20  H   LIG d   1       7.172  90.258 118.517  0.00  0.00    -0.090 HD
ATOM     21  H   LIG d   1       7.206  90.684 116.936  0.00  0.00    -0.090 HD
ENDBRANCH   5  18
BRANCH   3  22
ATOM     22  C   LIG d   1       2.457  90.574 116.672  0.00  0.00     0.382 C 
ATOM     23  O   LIG d   1       1.337  90.162 116.287  0.00  0.00    -0.241 OA
ATOM     24  O   LIG d   1       2.560  91.724 117.141  0.00  0.00    -0.241 OA
ENDBRANCH   3  22
TORSDOF 7
ENDMDL
MODEL 6
REMARK VINA RESULT:      -4.1      8.501     11.402
REMARK  7 active torsions:
REMARK  status: ('A' for Active; 'I' for Inactive)
REMARK    1  A    between atoms: C_2  and  C_3 
REMARK    2  A    between atoms: C_3  and  O_6 
REMARK    3  A    between atoms: C_3  and  C_4 
REMARK    4  A    between atoms: C_7  and  O_6 
REMARK    5  A    between atoms: C_9  and  C_10 
REMARK    6  A    between atoms: N_15  and  C_14 
REMARK    7  A    between atoms: N_20  and  C_19 
REMARK       I    between atoms: C_22  and  N_20 
ROOT
ATOM      1  C   LIG d   1       4.601  87.058 115.763  0.00  0.00     0.161 C 
ATOM      2  C   LIG d   1       5.514  87.498 116.737  0.00  0.00     0.016 C 
ATOM      3  C   LIG d   1       6.437  88.547 116.521  0.00  0.00     0.038 C 
ATOM      4  C   LIG d   1       6.407  89.333 115.359  0.00  0.00     0.028 C 
ATOM      5  C   LIG d   1       5.839  88.602 114.147  0.00  0.00    -0.047 C 
ATOM      6  C   LIG d   1       4.478  87.978 114.530  0.00  0.00     0.091 C 
ENDROOT
BRANCH   1   7
ATOM      7  O   LIG d   1       3.307  86.851 116.365  0.00  0.00    -0.368 OA
BRANCH   7   8
ATOM      8  C   LIG d   1       2.397  87.978 116.322  0.00  0.00     0.119 C 
BRANCH   8   9
ATOM      9  C   LIG d   1       2.599  88.786 117.618  0.00  0.00     0.028 C 
ATOM     10  C   LIG d   1       3.084  90.220 117.346  0.00  0.00     0.006 C 
ENDBRANCH   8   9
BRANCH   8  11
ATOM     11  C   LIG d   1       0.937  87.516 116.355  0.00  0.00     0.028 C 
ATOM     12  C   LIG d   1       0.235  87.854 117.680  0.00  0.00     0.006 C 
ENDBRANCH   8  11
ENDBRANCH   7   8
ENDBRANCH   1   7
BRANCH   6  13
ATOM     13  N   LIG d   1       3.893  87.173 113.426  0.00  0.00    -0.311 N 
ATOM     14  C   LIG d   1       3.116  87.688 112.475  0.00  0.00     0.210 C 
ATOM     15  C   LIG d   1       2.602  86.680 111.443  0.00  0.00     0.109 C 
ATOM     16  O   LIG d   1       2.830  88.890 112.370  0.00  0.00    -0.276 OA
ATOM     17  H   LIG d   1       4.100  86.193 113.416  0.00  0.00     0.149 HD
ENDBRANCH   6  13
BRANCH   5  18
ATOM     18  N   LIG d   1       5.738  89.578 113.045  0.00  0.00     0.381 N 
ATOM     19  H   LIG d   1       5.618  90.499 113.418  0.00  0.00    -0.090 HD
ATOM     20  H   LIG d   1       4.933  89.356 112.487  0.00  0.00    -0.090 HD
ATOM     21  H   LIG d   1       6.560  89.544 112.484  0.00  0.00    -0.090 HD
ENDBRANCH   5  18
BRANCH   3  22
ATOM     22  C   LIG d   1       7.430  88.792 117.457  0.00  0.00     0.382 C 
ATOM     23  O   LIG d   1       7.138  88.873 118.674  0.00  0.00    -0.241 OA
ATOM     24  O   LIG d   1       8.607  88.978 117.095  0.00  0.00    -0.241 OA
ENDBRANCH   3  22
TORSDOF 7
ENDMDL
MODEL 7
REMARK VINA RESULT:      -3.8      3.513      6.276
REMARK  7 active torsions:
REMARK  status: ('A' for Active; 'I' for Inactive)
REMARK    1  A    between atoms: C_2  and  C_3 
REMARK    2  A    between atoms: C_3  and  O_6 
REMARK    3  A    between atoms: C_3  and  C_4 
REMARK    4  A    between atoms: C_7  and  O_6 
REMARK    5  A    between atoms: C_9  and  C_10 
REMARK    6  A    between atoms: N_15  and  C_14 
REMARK    7  A    between atoms: N_20  and  C_19 
REMARK       I    between atoms: C_22  and  N_20 
ROOT
ATOM      1  C   LIG d   1      -0.309  89.891 117.772  0.00  0.00     0.161 C 
ATOM      2  C   LIG d   1      -1.665  89.614 117.530  0.00  0.00     0.016 C 
ATOM      3  C   LIG d   1      -2.677  90.601 117.555  0.00  0.00     0.038 C 
ATOM      4  C   LIG d   1      -2.379  91.966 117.677  0.00  0.00     0.028 C 
ATOM      5  C   LIG d   1      -1.079  92.238 118.427  0.00  0.00    -0.047 C 
ATOM      6  C   LIG d   1       0.050  91.391 117.796  0.00  0.00     0.091 C 
ENDROOT
BRANCH   1   7
ATOM      7  O   LIG d   1       0.511  89.195 116.812  0.00  0.00    -0.368 OA
BRANCH   7   8
ATOM      8  C   LIG d   1       0.544  87.751 116.930  0.00  0.00     0.119 C 
BRANCH   8   9
ATOM      9  C   LIG d   1       1.029  87.415 118.354  0.00  0.00     0.028 C 
ATOM     10  C   LIG d   1       0.550  86.031 118.825  0.00  0.00     0.006 C 
ENDBRANCH   8   9
BRANCH   8  11
ATOM     11  C   LIG d   1       1.588  87.139 115.991  0.00  0.00     0.028 C 
ATOM     12  C   LIG d   1       2.875  87.974 115.906  0.00  0.00     0.006 C 
ENDBRANCH   8  11
ENDBRANCH   7   8
ENDBRANCH   1   7
BRANCH   6  13
ATOM     13  N   LIG d   1       1.339  91.533 118.523  0.00  0.00    -0.311 N 
ATOM     14  C   LIG d   1       2.523  91.581 117.914  0.00  0.00     0.210 C 
ATOM     15  C   LIG d   1       3.727  91.710 118.852  0.00  0.00     0.109 C 
ATOM     16  O   LIG d   1       2.687  91.560 116.685  0.00  0.00    -0.276 OA
ATOM     17  H   LIG d   1       1.295  91.589 119.522  0.00  0.00     0.149 HD
ENDBRANCH   6  13
BRANCH   5  18
ATOM     18  N   LIG d   1      -0.821  93.688 118.359  0.00  0.00     0.381 N 
ATOM     19  H   LIG d   1      -0.779  93.981 117.404  0.00  0.00    -0.090 HD
ATOM     20  H   LIG d   1       0.068  93.880 118.787  0.00  0.00    -0.090 HD
ATOM     21  H   LIG d   1      -1.541  94.185 118.836  0.00  0.00    -0.090 HD
ENDBRANCH   5  18
BRANCH   3  22
ATOM     22  C   LIG d   1      -4.009  90.220 117.499  0.00  0.00     0.382 C 
ATOM     23  O   LIG d   1      -4.770  90.454 118.469  0.00  0.00    -0.241 OA
ATOM     24  O   LIG d   1      -4.450  89.607 116.508  0.00  0.00    -0.241 OA
ENDBRANCH   3  22
TORSDOF 7
ENDMDL
MODEL 8
REMARK VINA RESULT:      -3.8      7.809     10.320
REMARK  7 active torsions:
REMARK  status: ('A' for Active; 'I' for Inactive)
REMARK    1  A    between atoms: C_2  and  C_3 
REMARK    2  A    between atoms: C_3  and  O_6 
REMARK    3  A    between atoms: C_3  and  C_4 
REMARK    4  A    between atoms: C_7  and  O_6 
REMARK    5  A    between atoms: C_9  and  C_10 
REMARK    6  A    between atoms: N_15  and  C_14 
REMARK    7  A    between atoms: N_20  and  C_19 
REMARK       I    between atoms: C_22  and  N_20 
ROOT
ATOM      1  C   LIG d   1       4.429  88.658 117.367  0.00  0.00     0.161 C 
ATOM      2  C   LIG d   1       3.177  89.221 117.067  0.00  0.00     0.016 C 
ATOM      3  C   LIG d   1       2.902  90.604 117.167  0.00  0.00     0.038 C 
ATOM      4  C   LIG d   1       3.909  91.544 117.430  0.00  0.00     0.028 C 
ATOM      5  C   LIG d   1       5.074  90.974 118.233  0.00  0.00    -0.047 C 
ATOM      6  C   LIG d   1       5.571  89.681 117.549  0.00  0.00     0.091 C 
ENDROOT
BRANCH   1   7
ATOM      7  O   LIG d   1       4.782  87.687 116.363  0.00  0.00    -0.368 OA
BRANCH   7   8
ATOM      8  C   LIG d   1       4.365  87.990 115.009  0.00  0.00     0.119 C 
BRANCH   8   9
ATOM      9  C   LIG d   1       3.978  86.659 114.335  0.00  0.00     0.028 C 
ATOM     10  C   LIG d   1       2.474  86.359 114.448  0.00  0.00     0.006 C 
ENDBRANCH   8   9
BRANCH   8  11
ATOM     11  C   LIG d   1       5.527  88.542 114.179  0.00  0.00     0.028 C 
ATOM     12  C   LIG d   1       5.074  89.568 113.128  0.00  0.00     0.006 C 
ENDBRANCH   8  11
ENDBRANCH   7   8
ENDBRANCH   1   7
BRANCH   6  13
ATOM     13  N   LIG d   1       6.654  89.013 118.316  0.00  0.00    -0.311 N 
ATOM     14  C   LIG d   1       7.947  89.144 118.024  0.00  0.00     0.210 C 
ATOM     15  C   LIG d   1       8.898  88.354 118.930  0.00  0.00     0.109 C 
ATOM     16  O   LIG d   1       8.399  89.863 117.121  0.00  0.00    -0.276 OA
ATOM     17  H   LIG d   1       6.379  88.435 119.086  0.00  0.00     0.149 HD
ENDBRANCH   6  13
BRANCH   5  18
ATOM     18  N   LIG d   1       6.111  92.020 118.316  0.00  0.00     0.381 N 
ATOM     19  H   LIG d   1       7.009  91.597 118.441  0.00  0.00    -0.090 HD
ATOM     20  H   LIG d   1       5.923  92.602 119.113  0.00  0.00    -0.090 HD
ATOM     21  H   LIG d   1       6.108  92.570 117.486  0.00  0.00    -0.090 HD
ENDBRANCH   5  18
BRANCH   3  22
ATOM     22  C   LIG d   1       1.597  91.055 117.041  0.00  0.00     0.382 C 
ATOM     23  O   LIG d   1       0.762  90.386 116.385  0.00  0.00    -0.241 OA
ATOM     24  O   LIG d   1       1.255  92.145 117.538  0.00  0.00    -0.241 OA
ENDBRANCH   3  22
TORSDOF 7
ENDMDL
MODEL 9
REMARK VINA RESULT:      -3.6      4.985      7.821
REMARK  7 active torsions:
REMARK  status: ('A' for Active; 'I' for Inactive)
REMARK    1  A    between atoms: C_2  and  C_3 
REMARK    2  A    between atoms: C_3  and  O_6 
REMARK    3  A    between atoms: C_3  and  C_4 
REMARK    4  A    between atoms: C_7  and  O_6 
REMARK    5  A    between atoms: C_9  and  C_10 
REMARK    6  A    between atoms: N_15  and  C_14 
REMARK    7  A    between atoms: N_20  and  C_19 
REMARK       I    between atoms: C_22  and  N_20 
ROOT
ATOM      1  C   LIG d   1       1.186  88.637 117.077  0.00  0.00     0.161 C 
ATOM      2  C   LIG d   1      -0.210  88.609 117.233  0.00  0.00     0.016 C 
ATOM      3  C   LIG d   1      -0.956  89.687 117.763  0.00  0.00     0.038 C 
ATOM      4  C   LIG d   1      -0.369  90.931 118.035  0.00  0.00     0.028 C 
ATOM      5  C   LIG d   1       1.117  90.841 118.368  0.00  0.00    -0.047 C 
ATOM      6  C   LIG d   1       1.830  90.027 117.265  0.00  0.00     0.091 C 
ENDROOT
BRANCH   1   7
ATOM      7  O   LIG d   1       1.546  88.087 115.794  0.00  0.00    -0.368 OA
BRANCH   7   8
ATOM      8  C   LIG d   1       1.838  86.669 115.768  0.00  0.00     0.119 C 
BRANCH   8   9
ATOM      9  C   LIG d   1       2.958  86.408 116.794  0.00  0.00     0.028 C 
ATOM     10  C   LIG d   1       4.359  86.635 116.203  0.00  0.00     0.006 C 
ENDBRANCH   8   9
BRANCH   8  11
ATOM     11  C   LIG d   1       2.419  86.244 114.416  0.00  0.00     0.028 C 
ATOM     12  C   LIG d   1       1.334  85.912 113.379  0.00  0.00     0.006 C 
ENDBRANCH   8  11
ENDBRANCH   7   8
ENDBRANCH   1   7
BRANCH   6  13
ATOM     13  N   LIG d   1       3.272  89.819 117.556  0.00  0.00    -0.311 N 
ATOM     14  C   LIG d   1       4.220  90.696 117.230  0.00  0.00     0.210 C 
ATOM     15  C   LIG d   1       5.645  90.277 117.604  0.00  0.00     0.109 C 
ATOM     16  O   LIG d   1       4.012  91.796 116.695  0.00  0.00    -0.276 OA
ATOM     17  H   LIG d   1       3.526  88.967 118.016  0.00  0.00     0.149 HD
ENDBRANCH   6  13
BRANCH   5  18
ATOM     18  N   LIG d   1       1.630  92.218 118.494  0.00  0.00     0.381 N 
ATOM     19  H   LIG d   1       2.410  92.233 119.120  0.00  0.00    -0.090 HD
ATOM     20  H   LIG d   1       0.907  92.801 118.878  0.00  0.00    -0.090 HD
ATOM     21  H   LIG d   1       1.904  92.563 117.600  0.00  0.00    -0.090 HD
ENDBRANCH   5  18
BRANCH   3  22
ATOM     22  C   LIG d   1      -2.298  89.511 118.064  0.00  0.00     0.382 C 
ATOM     23  O   LIG d   1      -2.974  88.658 117.441  0.00  0.00    -0.241 OA
ATOM     24  O   LIG d   1      -2.852  90.227 118.920  0.00  0.00    -0.241 OA
ENDBRANCH   3  22
TORSDOF 7
ENDMDL
