MODEL 1
REMARK VINA RESULT:      -5.7      0.000      0.000
REMARK  7 active torsions:
REMARK  status: ('A' for Active; 'I' for Inactive)
REMARK    1  A    between atoms: C_2  and  C_3 
REMARK    2  A    between atoms: C_3  and  O_6 
REMARK    3  A    between atoms: C_3  and  C_4 
REMARK    4  A    between atoms: C_7  and  O_6 
REMARK    5  A    between atoms: C_9  and  C_10 
REMARK    6  A    between atoms: N_15  and  C_14 
REMARK    7  A    between atoms: N_20  and  C_19 
REMARK       I    between atoms: C_22  and  N_20 
ROOT
ATOM      1  C   LIG d   1      -4.830  90.498 117.253  0.00  0.00     0.161 C 
ATOM      2  C   LIG d   1      -4.414  89.351 116.557  0.00  0.00     0.016 C 
ATOM      3  C   LIG d   1      -4.640  89.155 115.175  0.00  0.00     0.038 C 
ATOM      4  C   LIG d   1      -5.167  90.166 114.359  0.00  0.00     0.028 C 
ATOM      5  C   LIG d   1      -6.063  91.146 115.111  0.00  0.00    -0.047 C 
ATOM      6  C   LIG d   1      -5.308  91.660 116.358  0.00  0.00     0.091 C 
ENDROOT
BRANCH   1   7
ATOM      7  O   LIG d   1      -3.779  90.943 118.133  0.00  0.00    -0.368 OA
BRANCH   7   8
ATOM      8  C   LIG d   1      -2.424  90.704 117.680  0.00  0.00     0.119 C 
BRANCH   8   9
ATOM      9  C   LIG d   1      -1.686  89.950 118.802  0.00  0.00     0.028 C 
ATOM     10  C   LIG d   1      -1.318  88.512 118.399  0.00  0.00     0.006 C 
ENDBRANCH   8   9
BRANCH   8  11
ATOM     11  C   LIG d   1      -1.657  92.018 117.502  0.00  0.00     0.028 C 
ATOM     12  C   LIG d   1      -0.133  91.818 117.473  0.00  0.00     0.006 C 
ENDBRANCH   8  11
ENDBRANCH   7   8
ENDBRANCH   1   7
BRANCH   6  13
ATOM     13  N   LIG d   1      -6.144  92.559 117.195  0.00  0.00    -0.311 N 
ATOM     14  C   LIG d   1      -5.640  93.522 117.965  0.00  0.00     0.210 C 
ATOM     15  C   LIG d   1      -6.675  94.321 118.763  0.00  0.00     0.109 C 
ATOM     16  O   LIG d   1      -4.436  93.812 118.039  0.00  0.00    -0.276 OA
ATOM     17  H   LIG d   1      -7.134  92.414 117.172  0.00  0.00     0.149 HD
ENDBRANCH   6  13
BRANCH   5  18
ATOM     18  N   LIG d   1      -6.431  92.223 114.173  0.00  0.00     0.381 N 
ATOM     19  H   LIG d   1      -7.427  92.309 114.130  0.00  0.00    -0.090 HD
ATOM     20  H   LIG d   1      -6.095  91.985 113.256  0.00  0.00    -0.090 HD
ATOM     21  H   LIG d   1      -6.029  93.085 114.468  0.00  0.00    -0.090 HD
ENDBRANCH   5  18
BRANCH   3  22
ATOM     22  C   LIG d   1      -4.374  87.920 114.603  0.00  0.00     0.382 C 
ATOM     23  O   LIG d   1      -4.443  87.777 113.359  0.00  0.00    -0.241 OA
ATOM     24  O   LIG d   1      -4.108  86.936 115.320  0.00  0.00    -0.241 OA
ENDBRANCH   3  22
TORSDOF 7
ENDMDL
MODEL 2
REMARK VINA RESULT:      -5.6      2.571      4.745
REMARK  7 active torsions:
REMARK  status: ('A' for Active; 'I' for Inactive)
REMARK    1  A    between atoms: C_2  and  C_3 
REMARK    2  A    between atoms: C_3  and  O_6 
REMARK    3  A    between atoms: C_3  and  C_4 
REMARK    4  A    between atoms: C_7  and  O_6 
REMARK    5  A    between atoms: C_9  and  C_10 
REMARK    6  A    between atoms: N_15  and  C_14 
REMARK    7  A    between atoms: N_20  and  C_19 
REMARK       I    between atoms: C_22  and  N_20 
ROOT
ATOM      1  C   LIG d   1      -2.847  90.803 117.065  0.00  0.00     0.161 C 
ATOM      2  C   LIG d   1      -3.887  91.709 116.799  0.00  0.00     0.016 C 
ATOM      3  C   LIG d   1      -5.044  91.371 116.060  0.00  0.00     0.038 C 
ATOM      4  C   LIG d   1      -5.311  90.052 115.664  0.00  0.00     0.028 C 
ATOM      5  C   LIG d   1      -4.054  89.210 115.472  0.00  0.00    -0.047 C 
ATOM      6  C   LIG d   1      -3.172  89.330 116.737  0.00  0.00     0.091 C 
ENDROOT
BRANCH   1   7
ATOM      7  O   LIG d   1      -2.429  90.929 118.439  0.00  0.00    -0.368 OA
BRANCH   7   8
ATOM      8  C   LIG d   1      -1.180  91.627 118.663  0.00  0.00     0.119 C 
BRANCH   8   9
ATOM      9  C   LIG d   1      -1.518  93.107 118.930  0.00  0.00     0.028 C 
ATOM     10  C   LIG d   1      -0.991  94.038 117.825  0.00  0.00     0.006 C 
ENDBRANCH   8   9
BRANCH   8  11
ATOM     11  C   LIG d   1      -0.309  91.631 117.403  0.00  0.00     0.028 C 
ATOM     12  C   LIG d   1       0.919  90.715 117.525  0.00  0.00     0.006 C 
ENDBRANCH   8  11
ENDBRANCH   7   8
ENDBRANCH   1   7
BRANCH   6  13
ATOM     13  N   LIG d   1      -1.882  88.605 116.600  0.00  0.00    -0.311 N 
ATOM     14  C   LIG d   1      -1.689  87.363 117.042  0.00  0.00     0.210 C 
ATOM     15  C   LIG d   1      -0.279  86.809 116.817  0.00  0.00     0.109 C 
ATOM     16  O   LIG d   1      -2.561  86.657 117.570  0.00  0.00    -0.276 OA
ATOM     17  H   LIG d   1      -1.130  89.092 116.155  0.00  0.00     0.149 HD
ENDBRANCH   6  13
BRANCH   5  18
ATOM     18  N   LIG d   1      -4.482  87.826 115.196  0.00  0.00     0.381 N 
ATOM     19  H   LIG d   1      -5.475  87.795 115.079  0.00  0.00    -0.090 HD
ATOM     20  H   LIG d   1      -4.238  87.247 115.980  0.00  0.00    -0.090 HD
ATOM     21  H   LIG d   1      -4.033  87.488 114.373  0.00  0.00    -0.090 HD
ENDBRANCH   5  18
BRANCH   3  22
ATOM     22  C   LIG d   1      -5.929  92.366 115.676  0.00  0.00     0.382 C 
ATOM     23  O   LIG d   1      -6.100  92.617 114.458  0.00  0.00    -0.241 OA
ATOM     24  O   LIG d   1      -6.526  93.046 116.532  0.00  0.00    -0.241 OA
ENDBRANCH   3  22
TORSDOF 7
ENDMDL
MODEL 3
REMARK VINA RESULT:      -5.5      1.849      2.626
REMARK  7 active torsions:
REMARK  status: ('A' for Active; 'I' for Inactive)
REMARK    1  A    between atoms: C_2  and  C_3 
REMARK    2  A    between atoms: C_3  and  O_6 
REMARK    3  A    between atoms: C_3  and  C_4 
REMARK    4  A    between atoms: C_7  and  O_6 
REMARK    5  A    between atoms: C_9  and  C_10 
REMARK    6  A    between atoms: N_15  and  C_14 
REMARK    7  A    between atoms: N_20  and  C_19 
REMARK       I    between atoms: C_22  and  N_20 
ROOT
ATOM      1  C   LIG d   1      -3.005  89.733 117.171  0.00  0.00     0.161 C 
ATOM      2  C   LIG d   1      -2.480  88.469 116.855  0.00  0.00     0.016 C 
ATOM      3  C   LIG d   1      -3.117  87.558 115.982  0.00  0.00     0.038 C 
ATOM      4  C   LIG d   1      -4.255  87.912 115.242  0.00  0.00     0.028 C 
ATOM      5  C   LIG d   1      -5.100  88.991 115.911  0.00  0.00    -0.047 C 
ATOM      6  C   LIG d   1      -4.188  90.181 116.288  0.00  0.00     0.091 C 
ENDROOT
BRANCH   1   7
ATOM      7  O   LIG d   1      -1.955  90.720 117.140  0.00  0.00    -0.368 OA
BRANCH   7   8
ATOM      8  C   LIG d   1      -1.173  90.856 118.352  0.00  0.00     0.119 C 
BRANCH   8   9
ATOM      9  C   LIG d   1      -1.418  92.274 118.905  0.00  0.00     0.028 C 
ATOM     10  C   LIG d   1      -1.926  93.245 117.825  0.00  0.00     0.006 C 
ENDBRANCH   8   9
BRANCH   8  11
ATOM     11  C   LIG d   1       0.329  90.791 118.056  0.00  0.00     0.028 C 
ATOM     12  C   LIG d   1       0.633  90.545 116.570  0.00  0.00     0.006 C 
ENDBRANCH   8  11
ENDBRANCH   7   8
ENDBRANCH   1   7
BRANCH   6  13
ATOM     13  N   LIG d   1      -4.921  91.245 117.023  0.00  0.00    -0.311 N 
ATOM     14  C   LIG d   1      -5.477  92.298 116.426  0.00  0.00     0.210 C 
ATOM     15  C   LIG d   1      -6.167  93.287 117.371  0.00  0.00     0.109 C 
ATOM     16  O   LIG d   1      -5.494  92.490 115.201  0.00  0.00    -0.276 OA
ATOM     17  H   LIG d   1      -4.983  91.153 118.018  0.00  0.00     0.149 HD
ENDBRANCH   6  13
BRANCH   5  18
ATOM     18  N   LIG d   1      -6.175  89.361 114.971  0.00  0.00     0.381 N 
ATOM     19  H   LIG d   1      -6.136  90.343 114.781  0.00  0.00    -0.090 HD
ATOM     20  H   LIG d   1      -7.063  89.158 115.395  0.00  0.00    -0.090 HD
ATOM     21  H   LIG d   1      -6.078  88.848 114.123  0.00  0.00    -0.090 HD
ENDBRANCH   5  18
BRANCH   3  22
ATOM     22  C   LIG d   1      -2.637  86.262 115.872  0.00  0.00     0.382 C 
ATOM     23  O   LIG d   1      -2.490  85.558 116.900  0.00  0.00    -0.241 OA
ATOM     24  O   LIG d   1      -2.307  85.802 114.762  0.00  0.00    -0.241 OA
ENDBRANCH   3  22
TORSDOF 7
ENDMDL
MODEL 4
REMARK VINA RESULT:      -5.0      2.461      5.863
REMARK  7 active torsions:
REMARK  status: ('A' for Active; 'I' for Inactive)
REMARK    1  A    between atoms: C_2  and  C_3 
REMARK    2  A    between atoms: C_3  and  O_6 
REMARK    3  A    between atoms: C_3  and  C_4 
REMARK    4  A    between atoms: C_7  and  O_6 
REMARK    5  A    between atoms: C_9  and  C_10 
REMARK    6  A    between atoms: N_15  and  C_14 
REMARK    7  A    between atoms: N_20  and  C_19 
REMARK       I    between atoms: C_22  and  N_20 
ROOT
ATOM      1  C   LIG d   1      -4.221  90.740 117.170  0.00  0.00     0.161 C 
ATOM      2  C   LIG d   1      -5.094  91.821 117.381  0.00  0.00     0.016 C 
ATOM      3  C   LIG d   1      -4.705  93.021 118.018  0.00  0.00     0.038 C 
ATOM      4  C   LIG d   1      -3.368  93.283 118.355  0.00  0.00     0.028 C 
ATOM      5  C   LIG d   1      -2.552  92.022 118.618  0.00  0.00    -0.047 C 
ATOM      6  C   LIG d   1      -2.732  91.050 117.430  0.00  0.00     0.091 C 
ENDROOT
BRANCH   1   7
ATOM      7  O   LIG d   1      -4.400  90.222 115.837  0.00  0.00    -0.368 OA
BRANCH   7   8
ATOM      8  C   LIG d   1      -5.169  88.999 115.726  0.00  0.00     0.119 C 
BRANCH   8   9
ATOM      9  C   LIG d   1      -4.411  88.061 114.765  0.00  0.00     0.028 C 
ATOM     10  C   LIG d   1      -3.423  87.141 115.501  0.00  0.00     0.006 C 
ENDBRANCH   8   9
BRANCH   8  11
ATOM     11  C   LIG d   1      -6.525  89.252 115.060  0.00  0.00     0.028 C 
ATOM     12  C   LIG d   1      -7.705  89.081 116.029  0.00  0.00     0.006 C 
ENDBRANCH   8  11
ENDBRANCH   7   8
ENDBRANCH   1   7
BRANCH   6  13
ATOM     13  N   LIG d   1      -2.034  89.756 117.645  0.00  0.00    -0.311 N 
ATOM     14  C   LIG d   1      -0.821  89.489 117.165  0.00  0.00     0.210 C 
ATOM     15  C   LIG d   1      -0.293  88.087 117.485  0.00  0.00     0.109 C 
ATOM     16  O   LIG d   1      -0.119  90.291 116.531  0.00  0.00    -0.276 OA
ATOM     17  H   LIG d   1      -2.519  89.059 118.175  0.00  0.00     0.149 HD
ENDBRANCH   6  13
BRANCH   5  18
ATOM     18  N   LIG d   1      -1.150  92.433 118.821  0.00  0.00     0.381 N 
ATOM     19  H   LIG d   1      -1.119  93.287 119.341  0.00  0.00    -0.090 HD
ATOM     20  H   LIG d   1      -0.725  92.594 117.925  0.00  0.00    -0.090 HD
ATOM     21  H   LIG d   1      -0.653  91.721 119.309  0.00  0.00    -0.090 HD
ENDBRANCH   5  18
BRANCH   3  22
ATOM     22  C   LIG d   1      -5.666  93.960 118.362  0.00  0.00     0.382 C 
ATOM     23  O   LIG d   1      -5.324  95.038 118.905  0.00  0.00    -0.241 OA
ATOM     24  O   LIG d   1      -6.875  93.723 118.176  0.00  0.00    -0.241 OA
ENDBRANCH   3  22
TORSDOF 7
ENDMDL
MODEL 5
REMARK VINA RESULT:      -4.9      7.817      9.816
REMARK  7 active torsions:
REMARK  status: ('A' for Active; 'I' for Inactive)
REMARK    1  A    between atoms: C_2  and  C_3 
REMARK    2  A    between atoms: C_3  and  O_6 
REMARK    3  A    between atoms: C_3  and  C_4 
REMARK    4  A    between atoms: C_7  and  O_6 
REMARK    5  A    between atoms: C_9  and  C_10 
REMARK    6  A    between atoms: N_15  and  C_14 
REMARK    7  A    between atoms: N_20  and  C_19 
REMARK       I    between atoms: C_22  and  N_20 
ROOT
ATOM      1  C   LIG d   1       4.686  89.613 114.469  0.00  0.00     0.161 C 
ATOM      2  C   LIG d   1       3.701  88.923 113.743  0.00  0.00     0.016 C 
ATOM      3  C   LIG d   1       3.559  87.517 113.765  0.00  0.00     0.038 C 
ATOM      4  C   LIG d   1       4.302  86.711 114.641  0.00  0.00     0.028 C 
ATOM      5  C   LIG d   1       5.651  87.312 115.020  0.00  0.00    -0.047 C 
ATOM      6  C   LIG d   1       5.434  88.760 115.515  0.00  0.00     0.091 C 
ENDROOT
BRANCH   1   7
ATOM      7  O   LIG d   1       4.108  90.777 115.093  0.00  0.00    -0.368 OA
BRANCH   7   8
ATOM      8  C   LIG d   1       3.810  90.661 116.506  0.00  0.00     0.119 C 
BRANCH   8   9
ATOM      9  C   LIG d   1       2.279  90.560 116.649  0.00  0.00     0.028 C 
ATOM     10  C   LIG d   1       1.808  89.117 116.896  0.00  0.00     0.006 C 
ENDBRANCH   8   9
BRANCH   8  11
ATOM     11  C   LIG d   1       4.205  91.932 117.264  0.00  0.00     0.028 C 
ATOM     12  C   LIG d   1       2.990  92.750 117.730  0.00  0.00     0.006 C 
ENDBRANCH   8  11
ENDBRANCH   7   8
ENDBRANCH   1   7
BRANCH   6  13
ATOM     13  N   LIG d   1       6.712  89.450 115.828  0.00  0.00    -0.311 N 
ATOM     14  C   LIG d   1       7.231  89.513 117.053  0.00  0.00     0.210 C 
ATOM     15  C   LIG d   1       8.547  90.290 117.158  0.00  0.00     0.109 C 
ATOM     16  O   LIG d   1       6.743  88.971 118.056  0.00  0.00    -0.276 OA
ATOM     17  H   LIG d   1       7.191  89.890 115.066  0.00  0.00     0.149 HD
ENDBRANCH   6  13
BRANCH   5  18
ATOM     18  N   LIG d   1       6.258  86.436 116.040  0.00  0.00     0.381 N 
ATOM     19  H   LIG d   1       6.125  86.833 116.949  0.00  0.00    -0.090 HD
ATOM     20  H   LIG d   1       7.245  86.371 115.867  0.00  0.00    -0.090 HD
ATOM     21  H   LIG d   1       5.845  85.530 116.001  0.00  0.00    -0.090 HD
ENDBRANCH   5  18
BRANCH   3  22
ATOM     22  C   LIG d   1       2.693  86.899 112.876  0.00  0.00     0.382 C 
ATOM     23  O   LIG d   1       2.300  85.728 113.095  0.00  0.00    -0.241 OA
ATOM     24  O   LIG d   1       2.333  87.482 111.836  0.00  0.00    -0.241 OA
ENDBRANCH   3  22
TORSDOF 7
ENDMDL
MODEL 6
REMARK VINA RESULT:      -4.9      2.062      4.769
REMARK  7 active torsions:
REMARK  status: ('A' for Active; 'I' for Inactive)
REMARK    1  A    between atoms: C_2  and  C_3 
REMARK    2  A    between atoms: C_3  and  O_6 
REMARK    3  A    between atoms: C_3  and  C_4 
REMARK    4  A    between atoms: C_7  and  O_6 
REMARK    5  A    between atoms: C_9  and  C_10 
REMARK    6  A    between atoms: N_15  and  C_14 
REMARK    7  A    between atoms: N_20  and  C_19 
REMARK       I    between atoms: C_22  and  N_20 
ROOT
ATOM      1  C   LIG d   1      -3.538  90.937 116.980  0.00  0.00     0.161 C 
ATOM      2  C   LIG d   1      -2.475  91.704 117.484  0.00  0.00     0.016 C 
ATOM      3  C   LIG d   1      -2.652  92.947 118.134  0.00  0.00     0.038 C 
ATOM      4  C   LIG d   1      -3.924  93.438 118.461  0.00  0.00     0.028 C 
ATOM      5  C   LIG d   1      -5.023  92.944 117.527  0.00  0.00    -0.047 C 
ATOM      6  C   LIG d   1      -4.940  91.403 117.426  0.00  0.00     0.091 C 
ENDROOT
BRANCH   1   7
ATOM      7  O   LIG d   1      -3.342  89.549 117.315  0.00  0.00    -0.368 OA
BRANCH   7   8
ATOM      8  C   LIG d   1      -2.942  88.681 116.227  0.00  0.00     0.119 C 
BRANCH   8   9
ATOM      9  C   LIG d   1      -4.206  87.959 115.722  0.00  0.00     0.028 C 
ATOM     10  C   LIG d   1      -4.489  88.240 114.237  0.00  0.00     0.006 C 
ENDBRANCH   8   9
BRANCH   8  11
ATOM     11  C   LIG d   1      -2.007  87.570 116.715  0.00  0.00     0.028 C 
ATOM     12  C   LIG d   1      -0.618  88.092 117.115  0.00  0.00     0.006 C 
ENDBRANCH   8  11
ENDBRANCH   7   8
ENDBRANCH   1   7
BRANCH   6  13
ATOM     13  N   LIG d   1      -5.927  90.844 116.465  0.00  0.00    -0.311 N 
ATOM     14  C   LIG d   1      -6.211  91.410 115.293  0.00  0.00     0.210 C 
ATOM     15  C   LIG d   1      -7.272  90.681 114.463  0.00  0.00     0.109 C 
ATOM     16  O   LIG d   1      -5.661  92.429 114.848  0.00  0.00    -0.276 OA
ATOM     17  H   LIG d   1      -6.397  90.002 116.732  0.00  0.00     0.149 HD
ENDBRANCH   6  13
BRANCH   5  18
ATOM     18  N   LIG d   1      -6.312  93.419 118.063  0.00  0.00     0.381 N 
ATOM     19  H   LIG d   1      -7.010  92.712 117.945  0.00  0.00    -0.090 HD
ATOM     20  H   LIG d   1      -6.598  94.233 117.549  0.00  0.00    -0.090 HD
ATOM     21  H   LIG d   1      -6.217  93.644 119.029  0.00  0.00    -0.090 HD
ENDBRANCH   5  18
BRANCH   3  22
ATOM     22  C   LIG d   1      -1.547  93.732 118.429  0.00  0.00     0.382 C 
ATOM     23  O   LIG d   1      -1.671  94.976 118.534  0.00  0.00    -0.241 OA
ATOM     24  O   LIG d   1      -0.419  93.216 118.548  0.00  0.00    -0.241 OA
ENDBRANCH   3  22
TORSDOF 7
ENDMDL
MODEL 7
REMARK VINA RESULT:      -4.9      5.740      8.154
REMARK  7 active torsions:
REMARK  status: ('A' for Active; 'I' for Inactive)
REMARK    1  A    between atoms: C_2  and  C_3 
REMARK    2  A    between atoms: C_3  and  O_6 
REMARK    3  A    between atoms: C_3  and  C_4 
REMARK    4  A    between atoms: C_7  and  O_6 
REMARK    5  A    between atoms: C_9  and  C_10 
REMARK    6  A    between atoms: N_15  and  C_14 
REMARK    7  A    between atoms: N_20  and  C_19 
REMARK       I    between atoms: C_22  and  N_20 
ROOT
ATOM      1  C   LIG d   1       1.355  86.369 115.329  0.00  0.00     0.161 C 
ATOM      2  C   LIG d   1       0.141  86.178 116.011  0.00  0.00     0.016 C 
ATOM      3  C   LIG d   1      -0.562  87.223 116.654  0.00  0.00     0.038 C 
ATOM      4  C   LIG d   1      -0.174  88.565 116.529  0.00  0.00     0.028 C 
ATOM      5  C   LIG d   1       1.319  88.743 116.274  0.00  0.00    -0.047 C 
ATOM      6  C   LIG d   1       1.736  87.844 115.087  0.00  0.00     0.091 C 
ENDROOT
BRANCH   1   7
ATOM      7  O   LIG d   1       1.333  85.646 114.082  0.00  0.00    -0.368 OA
BRANCH   7   8
ATOM      8  C   LIG d   1       0.773  86.351 112.947  0.00  0.00     0.119 C 
BRANCH   8   9
ATOM      9  C   LIG d   1      -0.501  85.599 112.517  0.00  0.00     0.028 C 
ATOM     10  C   LIG d   1      -1.288  86.351 111.431  0.00  0.00     0.006 C 
ENDBRANCH   8   9
BRANCH   8  11
ATOM     11  C   LIG d   1       1.709  86.288 111.736  0.00  0.00     0.028 C 
ATOM     12  C   LIG d   1       3.006  85.514 112.024  0.00  0.00     0.006 C 
ENDBRANCH   8  11
ENDBRANCH   7   8
ENDBRANCH   1   7
BRANCH   6  13
ATOM     13  N   LIG d   1       3.198  87.894 114.825  0.00  0.00    -0.311 N 
ATOM     14  C   LIG d   1       3.752  88.688 113.910  0.00  0.00     0.210 C 
ATOM     15  C   LIG d   1       5.274  88.568 113.787  0.00  0.00     0.109 C 
ATOM     16  O   LIG d   1       3.131  89.503 113.211  0.00  0.00    -0.276 OA
ATOM     17  H   LIG d   1       3.780  87.287 115.369  0.00  0.00     0.149 HD
ENDBRANCH   6  13
BRANCH   5  18
ATOM     18  N   LIG d   1       1.562  90.176 116.027  0.00  0.00     0.381 N 
ATOM     19  H   LIG d   1       2.538  90.375 116.114  0.00  0.00    -0.090 HD
ATOM     20  H   LIG d   1       1.068  90.713 116.718  0.00  0.00    -0.090 HD
ATOM     21  H   LIG d   1       1.245  90.424 115.115  0.00  0.00    -0.090 HD
ENDBRANCH   5  18
BRANCH   3  22
ATOM     22  C   LIG d   1      -1.645  86.924 117.466  0.00  0.00     0.382 C 
ATOM     23  O   LIG d   1      -2.778  87.391 117.198  0.00  0.00    -0.241 OA
ATOM     24  O   LIG d   1      -1.495  86.228 118.489  0.00  0.00    -0.241 OA
ENDBRANCH   3  22
TORSDOF 7
ENDMDL
MODEL 8
REMARK VINA RESULT:      -4.7      2.911      4.730
REMARK  7 active torsions:
REMARK  status: ('A' for Active; 'I' for Inactive)
REMARK    1  A    between atoms: C_2  and  C_3 
REMARK    2  A    between atoms: C_3  and  O_6 
REMARK    3  A    between atoms: C_3  and  C_4 
REMARK    4  A    between atoms: C_7  and  O_6 
REMARK    5  A    between atoms: C_9  and  C_10 
REMARK    6  A    between atoms: N_15  and  C_14 
REMARK    7  A    between atoms: N_20  and  C_19 
REMARK       I    between atoms: C_22  and  N_20 
ROOT
ATOM      1  C   LIG d   1      -3.083  88.536 116.700  0.00  0.00     0.161 C 
ATOM      2  C   LIG d   1      -4.360  88.555 116.115  0.00  0.00     0.016 C 
ATOM      3  C   LIG d   1      -5.090  89.743 115.878  0.00  0.00     0.038 C 
ATOM      4  C   LIG d   1      -4.524  91.012 116.073  0.00  0.00     0.028 C 
ATOM      5  C   LIG d   1      -3.428  91.030 117.134  0.00  0.00    -0.047 C 
ATOM      6  C   LIG d   1      -2.404  89.916 116.817  0.00  0.00     0.091 C 
ENDROOT
BRANCH   1   7
ATOM      7  O   LIG d   1      -2.233  87.618 115.984  0.00  0.00    -0.368 OA
BRANCH   7   8
ATOM      8  C   LIG d   1      -2.200  86.258 116.483  0.00  0.00     0.119 C 
BRANCH   8   9
ATOM      9  C   LIG d   1      -1.762  86.317 117.960  0.00  0.00     0.028 C 
ATOM     10  C   LIG d   1      -0.235  86.234 118.123  0.00  0.00     0.006 C 
ENDBRANCH   8   9
BRANCH   8  11
ATOM     11  C   LIG d   1      -1.124  85.430 115.774  0.00  0.00     0.028 C 
ATOM     12  C   LIG d   1      -1.035  85.732 114.270  0.00  0.00     0.006 C 
ENDBRANCH   8  11
ENDBRANCH   7   8
ENDBRANCH   1   7
BRANCH   6  13
ATOM     13  N   LIG d   1      -1.344  89.810 117.853  0.00  0.00    -0.311 N 
ATOM     14  C   LIG d   1      -0.046  89.949 117.590  0.00  0.00     0.210 C 
ATOM     15  C   LIG d   1       0.881  89.781 118.798  0.00  0.00     0.109 C 
ATOM     16  O   LIG d   1       0.425  90.227 116.476  0.00  0.00    -0.276 OA
ATOM     17  H   LIG d   1      -1.639  89.616 118.790  0.00  0.00     0.149 HD
ENDBRANCH   6  13
BRANCH   5  18
ATOM     18  N   LIG d   1      -2.833  92.380 117.137  0.00  0.00     0.381 N 
ATOM     19  H   LIG d   1      -1.846  92.314 117.286  0.00  0.00    -0.090 HD
ATOM     20  H   LIG d   1      -3.231  92.909 117.892  0.00  0.00    -0.090 HD
ATOM     21  H   LIG d   1      -3.016  92.835 116.270  0.00  0.00    -0.090 HD
ENDBRANCH   5  18
BRANCH   3  22
ATOM     22  C   LIG d   1      -6.415  89.668 115.478  0.00  0.00     0.382 C 
ATOM     23  O   LIG d   1      -7.163  88.778 115.950  0.00  0.00    -0.241 OA
ATOM     24  O   LIG d   1      -6.861  90.451 114.619  0.00  0.00    -0.241 OA
ENDBRANCH   3  22
TORSDOF 7
ENDMDL
MODEL 9
REMARK VINA RESULT:      -4.7      5.902      8.395
REMARK  7 active torsions:
REMARK  status: ('A' for Active; 'I' for Inactive)
REMARK    1  A    between atoms: C_2  and  C_3 
REMARK    2  A    between atoms: C_3  and  O_6 
REMARK    3  A    between atoms: C_3  and  C_4 
REMARK    4  A    between atoms: C_7  and  O_6 
REMARK    5  A    between atoms: C_9  and  C_10 
REMARK    6  A    between atoms: N_15  and  C_14 
REMARK    7  A    between atoms: N_20  and  C_19 
REMARK       I    between atoms: C_22  and  N_20 
ROOT
ATOM      1  C   LIG d   1       1.492  87.709 115.197  0.00  0.00     0.161 C 
ATOM      2  C   LIG d   1       0.323  87.848 115.964  0.00  0.00     0.016 C 
ATOM      3  C   LIG d   1       0.102  88.920 116.858  0.00  0.00     0.038 C 
ATOM      4  C   LIG d   1       0.977  90.015 116.934  0.00  0.00     0.028 C 
ATOM      5  C   LIG d   1       2.412  89.670 116.552  0.00  0.00    -0.047 C 
ATOM      6  C   LIG d   1       2.408  88.950 115.184  0.00  0.00     0.091 C 
ENDROOT
BRANCH   1   7
ATOM      7  O   LIG d   1       1.150  87.324 113.851  0.00  0.00    -0.368 OA
BRANCH   7   8
ATOM      8  C   LIG d   1       0.818  85.928 113.652  0.00  0.00     0.119 C 
BRANCH   8   9
ATOM      9  C   LIG d   1       1.600  85.437 112.418  0.00  0.00     0.028 C 
ATOM     10  C   LIG d   1       2.806  86.334 112.093  0.00  0.00     0.006 C 
ENDBRANCH   8   9
BRANCH   8  11
ATOM     11  C   LIG d   1      -0.660  85.753 113.291  0.00  0.00     0.028 C 
ATOM     12  C   LIG d   1      -0.965  86.124 111.831  0.00  0.00     0.006 C 
ENDBRANCH   8  11
ENDBRANCH   7   8
ENDBRANCH   1   7
BRANCH   6  13
ATOM     13  N   LIG d   1       3.765  88.503 114.775  0.00  0.00    -0.311 N 
ATOM     14  C   LIG d   1       4.564  89.217 113.983  0.00  0.00     0.210 C 
ATOM     15  C   LIG d   1       5.914  88.563 113.669  0.00  0.00     0.109 C 
ATOM     16  O   LIG d   1       4.297  90.343 113.538  0.00  0.00    -0.276 OA
ATOM     17  H   LIG d   1       4.075  87.615 115.117  0.00  0.00     0.149 HD
ENDBRANCH   6  13
BRANCH   5  18
ATOM     18  N   LIG d   1       3.184  90.927 116.542  0.00  0.00     0.381 N 
ATOM     19  H   LIG d   1       3.982  90.839 117.139  0.00  0.00    -0.090 HD
ATOM     20  H   LIG d   1       2.605  91.668 116.896  0.00  0.00    -0.090 HD
ATOM     21  H   LIG d   1       3.477  91.140 115.614  0.00  0.00    -0.090 HD
ENDBRANCH   5  18
BRANCH   3  22
ATOM     22  C   LIG d   1      -0.985  88.885 117.718  0.00  0.00     0.382 C 
ATOM     23  O   LIG d   1      -1.970  89.635 117.514  0.00  0.00    -0.241 OA
ATOM     24  O   LIG d   1      -0.974  88.146 118.720  0.00  0.00    -0.241 OA
ENDBRANCH   3  22
TORSDOF 7
ENDMDL
