MODEL 1
REMARK VINA RESULT:      -5.4      0.000      0.000
REMARK  7 active torsions:
REMARK  status: ('A' for Active; 'I' for Inactive)
REMARK    1  A    between atoms: C_2  and  C_3 
REMARK    2  A    between atoms: C_3  and  O_6 
REMARK    3  A    between atoms: C_3  and  C_4 
REMARK    4  A    between atoms: C_7  and  O_6 
REMARK    5  A    between atoms: C_9  and  C_10 
REMARK    6  A    between atoms: N_15  and  C_14 
REMARK    7  A    between atoms: N_20  and  C_19 
REMARK       I    between atoms: C_22  and  N_20 
ROOT
ATOM      1  C   LIG d   1      -5.998  92.321 117.571  0.00  0.00     0.161 C 
ATOM      2  C   LIG d   1      -7.068  91.542 117.101  0.00  0.00     0.016 C 
ATOM      3  C   LIG d   1      -6.898  90.295 116.456  0.00  0.00     0.038 C 
ATOM      4  C   LIG d   1      -5.646  89.668 116.372  0.00  0.00     0.028 C 
ATOM      5  C   LIG d   1      -4.476  90.647 116.383  0.00  0.00    -0.047 C 
ATOM      6  C   LIG d   1      -4.633  91.602 117.588  0.00  0.00     0.091 C 
ENDROOT
BRANCH   1   7
ATOM      7  O   LIG d   1      -6.308  92.838 118.880  0.00  0.00    -0.368 OA
BRANCH   7   8
ATOM      8  C   LIG d   1      -6.786  94.205 118.929  0.00  0.00     0.119 C 
BRANCH   8   9
ATOM      9  C   LIG d   1      -8.122  94.256 118.162  0.00  0.00     0.028 C 
ATOM     10  C   LIG d   1      -8.967  95.485 118.537  0.00  0.00     0.006 C 
ENDBRANCH   8   9
BRANCH   8  11
ATOM     11  C   LIG d   1      -5.848  95.151 118.173  0.00  0.00     0.028 C 
ATOM     12  C   LIG d   1      -5.590  96.464 118.929  0.00  0.00     0.006 C 
ENDBRANCH   8  11
ENDBRANCH   7   8
ENDBRANCH   1   7
BRANCH   6  13
ATOM     13  N   LIG d   1      -3.575  92.646 117.625  0.00  0.00    -0.311 N 
ATOM     14  C   LIG d   1      -2.432  92.508 118.295  0.00  0.00     0.210 C 
ATOM     15  C   LIG d   1      -1.488  93.712 118.218  0.00  0.00     0.109 C 
ATOM     16  O   LIG d   1      -2.097  91.490 118.919  0.00  0.00    -0.276 OA
ATOM     17  H   LIG d   1      -3.751  93.492 117.120  0.00  0.00     0.149 HD
ENDBRANCH   6  13
BRANCH   5  18
ATOM     18  N   LIG d   1      -3.233  89.855 116.430  0.00  0.00     0.381 N 
ATOM     19  H   LIG d   1      -3.413  88.967 116.855  0.00  0.00    -0.090 HD
ATOM     20  H   LIG d   1      -2.558  90.343 116.993  0.00  0.00    -0.090 HD
ATOM     21  H   LIG d   1      -2.876  89.725 115.509  0.00  0.00    -0.090 HD
ENDBRANCH   5  18
BRANCH   3  22
ATOM     22  C   LIG d   1      -7.984  89.681 115.851  0.00  0.00     0.382 C 
ATOM     23  O   LIG d   1      -8.366  90.058 114.717  0.00  0.00    -0.241 OA
ATOM     24  O   LIG d   1      -8.614  88.785 116.443  0.00  0.00    -0.241 OA
ENDBRANCH   3  22
TORSDOF 7
ENDMDL
MODEL 2
REMARK VINA RESULT:      -5.0      7.618     10.145
REMARK  7 active torsions:
REMARK  status: ('A' for Active; 'I' for Inactive)
REMARK    1  A    between atoms: C_2  and  C_3 
REMARK    2  A    between atoms: C_3  and  O_6 
REMARK    3  A    between atoms: C_3  and  C_4 
REMARK    4  A    between atoms: C_7  and  O_6 
REMARK    5  A    between atoms: C_9  and  C_10 
REMARK    6  A    between atoms: N_15  and  C_14 
REMARK    7  A    between atoms: N_20  and  C_19 
REMARK       I    between atoms: C_22  and  N_20 
ROOT
ATOM      1  C   LIG d   1       3.001  89.078 115.839  0.00  0.00     0.161 C 
ATOM      2  C   LIG d   1       3.040  88.650 114.501  0.00  0.00     0.016 C 
ATOM      3  C   LIG d   1       4.228  88.594 113.737  0.00  0.00     0.038 C 
ATOM      4  C   LIG d   1       5.489  88.821 114.309  0.00  0.00     0.028 C 
ATOM      5  C   LIG d   1       5.447  89.744 115.522  0.00  0.00    -0.047 C 
ATOM      6  C   LIG d   1       4.381  89.223 116.513  0.00  0.00     0.091 C 
ENDROOT
BRANCH   1   7
ATOM      7  O   LIG d   1       2.157  88.198 116.609  0.00  0.00    -0.368 OA
BRANCH   7   8
ATOM      8  C   LIG d   1       1.062  88.826 117.320  0.00  0.00     0.119 C 
BRANCH   8   9
ATOM      9  C   LIG d   1      -0.117  87.834 117.322  0.00  0.00     0.028 C 
ATOM     10  C   LIG d   1       0.239  86.497 116.650  0.00  0.00     0.006 C 
ENDBRANCH   8   9
BRANCH   8  11
ATOM     11  C   LIG d   1       0.550  90.062 116.575  0.00  0.00     0.028 C 
ATOM     12  C   LIG d   1       0.195  91.222 117.519  0.00  0.00     0.006 C 
ENDBRANCH   8  11
ENDBRANCH   7   8
ENDBRANCH   1   7
BRANCH   6  13
ATOM     13  N   LIG d   1       4.216  90.115 117.689  0.00  0.00    -0.311 N 
ATOM     14  C   LIG d   1       3.891  91.403 117.592  0.00  0.00     0.210 C 
ATOM     15  C   LIG d   1       3.791  92.148 118.928  0.00  0.00     0.109 C 
ATOM     16  O   LIG d   1       3.644  91.992 116.529  0.00  0.00    -0.276 OA
ATOM     17  H   LIG d   1       4.367  89.712 118.593  0.00  0.00     0.149 HD
ENDBRANCH   6  13
BRANCH   5  18
ATOM     18  N   LIG d   1       6.804  89.783 116.100  0.00  0.00     0.381 N 
ATOM     19  H   LIG d   1       7.392  89.127 115.627  0.00  0.00    -0.090 HD
ATOM     20  H   LIG d   1       6.752  89.519 117.068  0.00  0.00    -0.090 HD
ATOM     21  H   LIG d   1       7.183  90.700 116.018  0.00  0.00    -0.090 HD
ENDBRANCH   5  18
BRANCH   3  22
ATOM     22  C   LIG d   1       4.158  88.348 112.374  0.00  0.00     0.382 C 
ATOM     23  O   LIG d   1       5.167  87.925 111.761  0.00  0.00    -0.241 OA
ATOM     24  O   LIG d   1       3.111  88.586 111.743  0.00  0.00    -0.241 OA
ENDBRANCH   3  22
TORSDOF 7
ENDMDL
MODEL 3
REMARK VINA RESULT:      -4.9      8.092     11.164
REMARK  7 active torsions:
REMARK  status: ('A' for Active; 'I' for Inactive)
REMARK    1  A    between atoms: C_2  and  C_3 
REMARK    2  A    between atoms: C_3  and  O_6 
REMARK    3  A    between atoms: C_3  and  C_4 
REMARK    4  A    between atoms: C_7  and  O_6 
REMARK    5  A    between atoms: C_9  and  C_10 
REMARK    6  A    between atoms: N_15  and  C_14 
REMARK    7  A    between atoms: N_20  and  C_19 
REMARK       I    between atoms: C_22  and  N_20 
ROOT
ATOM      1  C   LIG d   1       3.513  88.077 115.551  0.00  0.00     0.161 C 
ATOM      2  C   LIG d   1       4.049  88.838 116.604  0.00  0.00     0.016 C 
ATOM      3  C   LIG d   1       5.192  89.658 116.467  0.00  0.00     0.038 C 
ATOM      4  C   LIG d   1       5.793  89.892 115.222  0.00  0.00     0.028 C 
ATOM      5  C   LIG d   1       5.594  88.751 114.230  0.00  0.00    -0.047 C 
ATOM      6  C   LIG d   1       4.089  88.406 114.158  0.00  0.00     0.091 C 
ENDROOT
BRANCH   1   7
ATOM      7  O   LIG d   1       2.077  88.199 115.541  0.00  0.00    -0.368 OA
BRANCH   7   8
ATOM      8  C   LIG d   1       1.442  88.349 116.835  0.00  0.00     0.119 C 
BRANCH   8   9
ATOM      9  C   LIG d   1       0.665  87.049 117.122  0.00  0.00     0.028 C 
ATOM     10  C   LIG d   1      -0.812  87.311 117.462  0.00  0.00     0.006 C 
ENDBRANCH   8   9
BRANCH   8  11
ATOM     11  C   LIG d   1       0.384  89.456 116.811  0.00  0.00     0.028 C 
ATOM     12  C   LIG d   1       0.983  90.857 117.017  0.00  0.00     0.006 C 
ENDBRANCH   8  11
ENDBRANCH   7   8
ENDBRANCH   1   7
BRANCH   6  13
ATOM     13  N   LIG d   1       3.816  87.243 113.273  0.00  0.00    -0.311 N 
ATOM     14  C   LIG d   1       3.043  87.311 112.190  0.00  0.00     0.210 C 
ATOM     15  C   LIG d   1       2.877  85.992 111.430  0.00  0.00     0.109 C 
ATOM     16  O   LIG d   1       2.505  88.347 111.769  0.00  0.00    -0.276 OA
ATOM     17  H   LIG d   1       4.238  86.370 113.523  0.00  0.00     0.149 HD
ENDBRANCH   6  13
BRANCH   5  18
ATOM     18  N   LIG d   1       6.151  89.184 112.934  0.00  0.00     0.381 N 
ATOM     19  H   LIG d   1       6.846  88.533 112.629  0.00  0.00    -0.090 HD
ATOM     20  H   LIG d   1       6.589  90.081 113.052  0.00  0.00    -0.090 HD
ATOM     21  H   LIG d   1       5.424  89.249 112.255  0.00  0.00    -0.090 HD
ENDBRANCH   5  18
BRANCH   3  22
ATOM     22  C   LIG d   1       5.771  90.224 117.594  0.00  0.00     0.382 C 
ATOM     23  O   LIG d   1       7.001  90.467 117.612  0.00  0.00    -0.241 OA
ATOM     24  O   LIG d   1       5.085  90.453 118.608  0.00  0.00    -0.241 OA
ENDBRANCH   3  22
TORSDOF 7
ENDMDL
MODEL 4
REMARK VINA RESULT:      -4.8      7.696     10.241
REMARK  7 active torsions:
REMARK  status: ('A' for Active; 'I' for Inactive)
REMARK    1  A    between atoms: C_2  and  C_3 
REMARK    2  A    between atoms: C_3  and  O_6 
REMARK    3  A    between atoms: C_3  and  C_4 
REMARK    4  A    between atoms: C_7  and  O_6 
REMARK    5  A    between atoms: C_9  and  C_10 
REMARK    6  A    between atoms: N_15  and  C_14 
REMARK    7  A    between atoms: N_20  and  C_19 
REMARK       I    between atoms: C_22  and  N_20 
ROOT
ATOM      1  C   LIG d   1       3.044  88.738 115.743  0.00  0.00     0.161 C 
ATOM      2  C   LIG d   1       3.006  88.373 114.387  0.00  0.00     0.016 C 
ATOM      3  C   LIG d   1       4.158  88.295 113.570  0.00  0.00     0.038 C 
ATOM      4  C   LIG d   1       5.451  88.432 114.096  0.00  0.00     0.028 C 
ATOM      5  C   LIG d   1       5.506  89.297 115.351  0.00  0.00    -0.047 C 
ATOM      6  C   LIG d   1       4.456  88.782 116.362  0.00  0.00     0.091 C 
ENDROOT
BRANCH   1   7
ATOM      7  O   LIG d   1       2.189  87.865 116.508  0.00  0.00    -0.368 OA
BRANCH   7   8
ATOM      8  C   LIG d   1       0.826  88.317 116.702  0.00  0.00     0.119 C 
BRANCH   8   9
ATOM      9  C   LIG d   1       0.852  89.411 117.787  0.00  0.00     0.028 C 
ATOM     10  C   LIG d   1       0.499  90.800 117.228  0.00  0.00     0.006 C 
ENDBRANCH   8   9
BRANCH   8  11
ATOM     11  C   LIG d   1      -0.055  87.202 117.272  0.00  0.00     0.028 C 
ATOM     12  C   LIG d   1      -1.391  87.722 117.826  0.00  0.00     0.006 C 
ENDBRANCH   8  11
ENDBRANCH   7   8
ENDBRANCH   1   7
BRANCH   6  13
ATOM     13  N   LIG d   1       4.386  89.625 117.584  0.00  0.00    -0.311 N 
ATOM     14  C   LIG d   1       4.152  90.936 117.558  0.00  0.00     0.210 C 
ATOM     15  C   LIG d   1       4.140  91.618 118.930  0.00  0.00     0.109 C 
ATOM     16  O   LIG d   1       3.922  91.593 116.532  0.00  0.00    -0.276 OA
ATOM     17  H   LIG d   1       4.530  89.167 118.463  0.00  0.00     0.149 HD
ENDBRANCH   6  13
BRANCH   5  18
ATOM     18  N   LIG d   1       6.885  89.242 115.870  0.00  0.00     0.381 N 
ATOM     19  H   LIG d   1       7.503  89.714 115.241  0.00  0.00    -0.090 HD
ATOM     20  H   LIG d   1       7.171  88.280 115.931  0.00  0.00    -0.090 HD
ATOM     21  H   LIG d   1       6.928  89.666 116.771  0.00  0.00    -0.090 HD
ENDBRANCH   5  18
BRANCH   3  22
ATOM     22  C   LIG d   1       4.019  88.118 112.202  0.00  0.00     0.382 C 
ATOM     23  O   LIG d   1       4.987  87.700 111.522  0.00  0.00    -0.241 OA
ATOM     24  O   LIG d   1       2.951  88.412 111.632  0.00  0.00    -0.241 OA
ENDBRANCH   3  22
TORSDOF 7
ENDMDL
MODEL 5
REMARK VINA RESULT:      -4.7      8.873     11.650
REMARK  7 active torsions:
REMARK  status: ('A' for Active; 'I' for Inactive)
REMARK    1  A    between atoms: C_2  and  C_3 
REMARK    2  A    between atoms: C_3  and  O_6 
REMARK    3  A    between atoms: C_3  and  C_4 
REMARK    4  A    between atoms: C_7  and  O_6 
REMARK    5  A    between atoms: C_9  and  C_10 
REMARK    6  A    between atoms: N_15  and  C_14 
REMARK    7  A    between atoms: N_20  and  C_19 
REMARK       I    between atoms: C_22  and  N_20 
ROOT
ATOM      1  C   LIG d   1       3.995  86.973 115.382  0.00  0.00     0.161 C 
ATOM      2  C   LIG d   1       2.641  87.335 115.488  0.00  0.00     0.016 C 
ATOM      3  C   LIG d   1       2.128  88.132 116.538  0.00  0.00     0.038 C 
ATOM      4  C   LIG d   1       2.967  88.750 117.477  0.00  0.00     0.028 C 
ATOM      5  C   LIG d   1       4.277  88.002 117.704  0.00  0.00    -0.047 C 
ATOM      6  C   LIG d   1       4.943  87.730 116.336  0.00  0.00     0.091 C 
ENDROOT
BRANCH   1   7
ATOM      7  O   LIG d   1       4.435  87.120 114.018  0.00  0.00    -0.368 OA
BRANCH   7   8
ATOM      8  C   LIG d   1       3.740  88.116 113.228  0.00  0.00     0.119 C 
BRANCH   8   9
ATOM      9  C   LIG d   1       3.475  87.503 111.839  0.00  0.00     0.028 C 
ATOM     10  C   LIG d   1       4.176  86.147 111.653  0.00  0.00     0.006 C 
ENDBRANCH   8   9
BRANCH   8  11
ATOM     11  C   LIG d   1       4.625  89.339 112.969  0.00  0.00     0.028 C 
ATOM     12  C   LIG d   1       6.125  89.012 113.033  0.00  0.00     0.006 C 
ENDBRANCH   8  11
ENDBRANCH   7   8
ENDBRANCH   1   7
BRANCH   6  13
ATOM     13  N   LIG d   1       6.188  86.928 116.462  0.00  0.00    -0.311 N 
ATOM     14  C   LIG d   1       7.402  87.469 116.553  0.00  0.00     0.210 C 
ATOM     15  C   LIG d   1       8.552  86.463 116.654  0.00  0.00     0.109 C 
ATOM     16  O   LIG d   1       7.632  88.687 116.591  0.00  0.00    -0.276 OA
ATOM     17  H   LIG d   1       6.090  85.932 116.470  0.00  0.00     0.149 HD
ENDBRANCH   6  13
BRANCH   5  18
ATOM     18  N   LIG d   1       5.111  88.826 118.600  0.00  0.00     0.381 N 
ATOM     19  H   LIG d   1       4.526  89.392 119.182  0.00  0.00    -0.090 HD
ATOM     20  H   LIG d   1       5.683  89.435 118.042  0.00  0.00    -0.090 HD
ATOM     21  H   LIG d   1       5.687  88.241 119.163  0.00  0.00    -0.090 HD
ENDBRANCH   5  18
BRANCH   3  22
ATOM     22  C   LIG d   1       0.757  88.284 116.678  0.00  0.00     0.382 C 
ATOM     23  O   LIG d   1       0.003  87.285 116.585  0.00  0.00    -0.241 OA
ATOM     24  O   LIG d   1       0.261  89.413 116.851  0.00  0.00    -0.241 OA
ENDBRANCH   3  22
TORSDOF 7
ENDMDL
MODEL 6
REMARK VINA RESULT:      -4.6      9.151     12.122
REMARK  7 active torsions:
REMARK  status: ('A' for Active; 'I' for Inactive)
REMARK    1  A    between atoms: C_2  and  C_3 
REMARK    2  A    between atoms: C_3  and  O_6 
REMARK    3  A    between atoms: C_3  and  C_4 
REMARK    4  A    between atoms: C_7  and  O_6 
REMARK    5  A    between atoms: C_9  and  C_10 
REMARK    6  A    between atoms: N_15  and  C_14 
REMARK    7  A    between atoms: N_20  and  C_19 
REMARK       I    between atoms: C_22  and  N_20 
ROOT
ATOM      1  C   LIG d   1       4.327  87.221 115.838  0.00  0.00     0.161 C 
ATOM      2  C   LIG d   1       3.239  88.102 115.718  0.00  0.00     0.016 C 
ATOM      3  C   LIG d   1       3.199  89.377 116.328  0.00  0.00     0.038 C 
ATOM      4  C   LIG d   1       4.316  89.922 116.980  0.00  0.00     0.028 C 
ATOM      5  C   LIG d   1       5.254  88.868 117.557  0.00  0.00    -0.047 C 
ATOM      6  C   LIG d   1       5.598  87.843 116.452  0.00  0.00     0.091 C 
ENDROOT
BRANCH   1   7
ATOM      7  O   LIG d   1       4.625  86.636 114.555  0.00  0.00    -0.368 OA
BRANCH   7   8
ATOM      8  C   LIG d   1       3.969  87.237 113.412  0.00  0.00     0.119 C 
BRANCH   8   9
ATOM      9  C   LIG d   1       3.180  86.125 112.693  0.00  0.00     0.028 C 
ATOM     10  C   LIG d   1       2.461  86.636 111.433  0.00  0.00     0.006 C 
ENDBRANCH   8   9
BRANCH   8  11
ATOM     11  C   LIG d   1       4.988  87.740 112.385  0.00  0.00     0.028 C 
ATOM     12  C   LIG d   1       5.803  88.940 112.894  0.00  0.00     0.006 C 
ENDBRANCH   8  11
ENDBRANCH   7   8
ENDBRANCH   1   7
BRANCH   6  13
ATOM     13  N   LIG d   1       6.445  86.730 116.955  0.00  0.00    -0.311 N 
ATOM     14  C   LIG d   1       7.773  86.717 116.856  0.00  0.00     0.210 C 
ATOM     15  C   LIG d   1       8.452  85.465 117.421  0.00  0.00     0.109 C 
ATOM     16  O   LIG d   1       8.456  87.638 116.383  0.00  0.00    -0.276 OA
ATOM     17  H   LIG d   1       5.975  85.956 117.382  0.00  0.00     0.149 HD
ENDBRANCH   6  13
BRANCH   5  18
ATOM     18  N   LIG d   1       6.440  89.569 118.085  0.00  0.00     0.381 N 
ATOM     19  H   LIG d   1       6.183  90.484 118.395  0.00  0.00    -0.090 HD
ATOM     20  H   LIG d   1       7.117  89.664 117.348  0.00  0.00    -0.090 HD
ATOM     21  H   LIG d   1       6.833  89.052 118.841  0.00  0.00    -0.090 HD
ENDBRANCH   5  18
BRANCH   3  22
ATOM     22  C   LIG d   1       2.019  90.105 116.324  0.00  0.00     0.382 C 
ATOM     23  O   LIG d   1       1.990  91.255 116.823  0.00  0.00    -0.241 OA
ATOM     24  O   LIG d   1       0.972  89.607 115.867  0.00  0.00    -0.241 OA
ENDBRANCH   3  22
TORSDOF 7
ENDMDL
MODEL 7
REMARK VINA RESULT:      -4.6      7.867     10.283
REMARK  7 active torsions:
REMARK  status: ('A' for Active; 'I' for Inactive)
REMARK    1  A    between atoms: C_2  and  C_3 
REMARK    2  A    between atoms: C_3  and  O_6 
REMARK    3  A    between atoms: C_3  and  C_4 
REMARK    4  A    between atoms: C_7  and  O_6 
REMARK    5  A    between atoms: C_9  and  C_10 
REMARK    6  A    between atoms: N_15  and  C_14 
REMARK    7  A    between atoms: N_20  and  C_19 
REMARK       I    between atoms: C_22  and  N_20 
ROOT
ATOM      1  C   LIG d   1       3.649  89.918 115.808  0.00  0.00     0.161 C 
ATOM      2  C   LIG d   1       3.049  89.253 114.726  0.00  0.00     0.016 C 
ATOM      3  C   LIG d   1       3.721  88.297 113.930  0.00  0.00     0.038 C 
ATOM      4  C   LIG d   1       5.001  87.827 114.259  0.00  0.00     0.028 C 
ATOM      5  C   LIG d   1       5.834  88.835 115.043  0.00  0.00    -0.047 C 
ATOM      6  C   LIG d   1       5.009  89.337 116.250  0.00  0.00     0.091 C 
ENDROOT
BRANCH   1   7
ATOM      7  O   LIG d   1       2.737  89.961 116.923  0.00  0.00    -0.368 OA
BRANCH   7   8
ATOM      8  C   LIG d   1       1.879  91.126 117.000  0.00  0.00     0.119 C 
BRANCH   8   9
ATOM      9  C   LIG d   1       2.647  92.214 117.776  0.00  0.00     0.028 C 
ATOM     10  C   LIG d   1       1.742  92.993 118.746  0.00  0.00     0.006 C 
ENDBRANCH   8   9
BRANCH   8  11
ATOM     11  C   LIG d   1       0.626  90.842 117.834  0.00  0.00     0.028 C 
ATOM     12  C   LIG d   1      -0.224  89.697 117.260  0.00  0.00     0.006 C 
ENDBRANCH   8  11
ENDBRANCH   7   8
ENDBRANCH   1   7
BRANCH   6  13
ATOM     13  N   LIG d   1       5.718  90.390 117.023  0.00  0.00    -0.311 N 
ATOM     14  C   LIG d   1       6.468  90.133 118.094  0.00  0.00     0.210 C 
ATOM     15  C   LIG d   1       7.094  91.365 118.755  0.00  0.00     0.109 C 
ATOM     16  O   LIG d   1       6.700  89.000 118.540  0.00  0.00    -0.276 OA
ATOM     17  H   LIG d   1       5.610  91.335 116.712  0.00  0.00     0.149 HD
ENDBRANCH   6  13
BRANCH   5  18
ATOM     18  N   LIG d   1       7.088  88.167 115.437  0.00  0.00     0.381 N 
ATOM     19  H   LIG d   1       7.797  88.345 114.754  0.00  0.00    -0.090 HD
ATOM     20  H   LIG d   1       6.930  87.175 115.475  0.00  0.00    -0.090 HD
ATOM     21  H   LIG d   1       7.385  88.497 116.329  0.00  0.00    -0.090 HD
ENDBRANCH   5  18
BRANCH   3  22
ATOM     22  C   LIG d   1       3.126  87.831 112.768  0.00  0.00     0.382 C 
ATOM     23  O   LIG d   1       2.612  86.686 112.742  0.00  0.00    -0.241 OA
ATOM     24  O   LIG d   1       3.136  88.522 111.732  0.00  0.00    -0.241 OA
ENDBRANCH   3  22
TORSDOF 7
ENDMDL
MODEL 8
REMARK VINA RESULT:      -4.4      7.770     10.485
REMARK  7 active torsions:
REMARK  status: ('A' for Active; 'I' for Inactive)
REMARK    1  A    between atoms: C_2  and  C_3 
REMARK    2  A    between atoms: C_3  and  O_6 
REMARK    3  A    between atoms: C_3  and  C_4 
REMARK    4  A    between atoms: C_7  and  O_6 
REMARK    5  A    between atoms: C_9  and  C_10 
REMARK    6  A    between atoms: N_15  and  C_14 
REMARK    7  A    between atoms: N_20  and  C_19 
REMARK       I    between atoms: C_22  and  N_20 
ROOT
ATOM      1  C   LIG d   1       3.663  88.358 116.040  0.00  0.00     0.161 C 
ATOM      2  C   LIG d   1       2.434  87.699 116.211  0.00  0.00     0.016 C 
ATOM      3  C   LIG d   1       1.247  88.357 116.610  0.00  0.00     0.038 C 
ATOM      4  C   LIG d   1       1.175  89.753 116.719  0.00  0.00     0.028 C 
ATOM      5  C   LIG d   1       2.513  90.406 117.046  0.00  0.00    -0.047 C 
ATOM      6  C   LIG d   1       3.577  89.898 116.046  0.00  0.00     0.091 C 
ENDROOT
BRANCH   1   7
ATOM      7  O   LIG d   1       4.300  87.896 114.832  0.00  0.00    -0.368 OA
BRANCH   7   8
ATOM      8  C   LIG d   1       3.671  88.291 113.588  0.00  0.00     0.119 C 
BRANCH   8   9
ATOM      9  C   LIG d   1       3.470  87.017 112.746  0.00  0.00     0.028 C 
ATOM     10  C   LIG d   1       2.721  87.294 111.432  0.00  0.00     0.006 C 
ENDBRANCH   8   9
BRANCH   8  11
ATOM     11  C   LIG d   1       4.595  89.186 112.757  0.00  0.00     0.028 C 
ATOM     12  C   LIG d   1       6.083  88.862 112.964  0.00  0.00     0.006 C 
ENDBRANCH   8  11
ENDBRANCH   7   8
ENDBRANCH   1   7
BRANCH   6  13
ATOM     13  N   LIG d   1       4.934  90.423 116.347  0.00  0.00    -0.311 N 
ATOM     14  C   LIG d   1       5.563  90.211 117.503  0.00  0.00     0.210 C 
ATOM     15  C   LIG d   1       6.947  90.858 117.614  0.00  0.00     0.109 C 
ATOM     16  O   LIG d   1       5.118  89.522 118.433  0.00  0.00    -0.276 OA
ATOM     17  H   LIG d   1       5.382  90.967 115.636  0.00  0.00     0.149 HD
ENDBRANCH   6  13
BRANCH   5  18
ATOM     18  N   LIG d   1       2.321  91.868 116.994  0.00  0.00     0.381 N 
ATOM     19  H   LIG d   1       1.622  92.093 116.314  0.00  0.00    -0.090 HD
ATOM     20  H   LIG d   1       3.184  92.299 116.714  0.00  0.00    -0.090 HD
ATOM     21  H   LIG d   1       2.047  92.208 117.889  0.00  0.00    -0.090 HD
ENDBRANCH   5  18
BRANCH   3  22
ATOM     22  C   LIG d   1       0.127  87.611 116.943  0.00  0.00     0.382 C 
ATOM     23  O   LIG d   1      -0.588  87.953 117.916  0.00  0.00    -0.241 OA
ATOM     24  O   LIG d   1      -0.153  86.575 116.311  0.00  0.00    -0.241 OA
ENDBRANCH   3  22
TORSDOF 7
ENDMDL
MODEL 9
REMARK VINA RESULT:      -4.3      7.073     10.006
REMARK  7 active torsions:
REMARK  status: ('A' for Active; 'I' for Inactive)
REMARK    1  A    between atoms: C_2  and  C_3 
REMARK    2  A    between atoms: C_3  and  O_6 
REMARK    3  A    between atoms: C_3  and  C_4 
REMARK    4  A    between atoms: C_7  and  O_6 
REMARK    5  A    between atoms: C_9  and  C_10 
REMARK    6  A    between atoms: N_15  and  C_14 
REMARK    7  A    between atoms: N_20  and  C_19 
REMARK       I    between atoms: C_22  and  N_20 
ROOT
ATOM      1  C   LIG d   1       3.025  89.913 116.424  0.00  0.00     0.161 C 
ATOM      2  C   LIG d   1       2.160  88.806 116.389  0.00  0.00     0.016 C 
ATOM      3  C   LIG d   1       0.821  88.850 116.841  0.00  0.00     0.038 C 
ATOM      4  C   LIG d   1       0.206  90.052 117.222  0.00  0.00     0.028 C 
ATOM      5  C   LIG d   1       1.187  91.093 117.751  0.00  0.00    -0.047 C 
ATOM      6  C   LIG d   1       2.339  91.260 116.733  0.00  0.00     0.091 C 
ENDROOT
BRANCH   1   7
ATOM      7  O   LIG d   1       3.762  89.997 115.188  0.00  0.00    -0.368 OA
BRANCH   7   8
ATOM      8  C   LIG d   1       4.953  89.177 115.099  0.00  0.00     0.119 C 
BRANCH   8   9
ATOM      9  C   LIG d   1       6.019  89.808 116.016  0.00  0.00     0.028 C 
ATOM     10  C   LIG d   1       6.876  88.750 116.732  0.00  0.00     0.006 C 
ENDBRANCH   8   9
BRANCH   8  11
ATOM     11  C   LIG d   1       5.553  89.219 113.691  0.00  0.00     0.028 C 
ATOM     12  C   LIG d   1       4.564  88.761 112.607  0.00  0.00     0.006 C 
ENDBRANCH   8  11
ENDBRANCH   7   8
ENDBRANCH   1   7
BRANCH   6  13
ATOM     13  N   LIG d   1       3.386  92.199 117.212  0.00  0.00    -0.311 N 
ATOM     14  C   LIG d   1       4.169  91.951 118.261  0.00  0.00     0.210 C 
ATOM     15  C   LIG d   1       5.170  93.061 118.597  0.00  0.00     0.109 C 
ATOM     16  O   LIG d   1       4.152  90.904 118.925  0.00  0.00    -0.276 OA
ATOM     17  H   LIG d   1       3.490  93.060 116.712  0.00  0.00     0.149 HD
ENDBRANCH   6  13
BRANCH   5  18
ATOM     18  N   LIG d   1       0.433  92.340 117.980  0.00  0.00     0.381 N 
ATOM     19  H   LIG d   1       0.570  92.650 118.921  0.00  0.00    -0.090 HD
ATOM     20  H   LIG d   1      -0.546  92.156 117.848  0.00  0.00    -0.090 HD
ATOM     21  H   LIG d   1       0.735  93.043 117.343  0.00  0.00    -0.090 HD
ENDBRANCH   5  18
BRANCH   3  22
ATOM     22  C   LIG d   1       0.095  87.674 116.952  0.00  0.00     0.382 C 
ATOM     23  O   LIG d   1      -0.743  87.540 117.877  0.00  0.00    -0.241 OA
ATOM     24  O   LIG d   1       0.298  86.729 116.167  0.00  0.00    -0.241 OA
ENDBRANCH   3  22
TORSDOF 7
ENDMDL
