MODEL 1
REMARK VINA RESULT:      -5.1      0.000      0.000
REMARK  7 active torsions:
REMARK  status: ('A' for Active; 'I' for Inactive)
REMARK    1  A    between atoms: C_2  and  C_3 
REMARK    2  A    between atoms: C_3  and  O_6 
REMARK    3  A    between atoms: C_3  and  C_4 
REMARK    4  A    between atoms: C_7  and  O_6 
REMARK    5  A    between atoms: C_9  and  C_10 
REMARK    6  A    between atoms: N_15  and  C_14 
REMARK    7  A    between atoms: N_20  and  C_19 
REMARK       I    between atoms: C_22  and  N_20 
ROOT
ATOM      1  C   LIG d   1       2.687  88.881 115.064  0.00  0.00     0.161 C 
ATOM      2  C   LIG d   1       2.437  87.931 114.059  0.00  0.00     0.016 C 
ATOM      3  C   LIG d   1       3.334  87.664 113.000  0.00  0.00     0.038 C 
ATOM      4  C   LIG d   1       4.620  88.225 112.959  0.00  0.00     0.028 C 
ATOM      5  C   LIG d   1       4.718  89.568 113.675  0.00  0.00    -0.047 C 
ATOM      6  C   LIG d   1       4.131  89.422 115.097  0.00  0.00     0.091 C 
ENDROOT
BRANCH   1   7
ATOM      7  O   LIG d   1       2.325  88.339 116.350  0.00  0.00    -0.368 OA
BRANCH   7   8
ATOM      8  C   LIG d   1       1.119  88.871 116.950  0.00  0.00     0.119 C 
BRANCH   8   9
ATOM      9  C   LIG d   1       0.008  87.818 116.769  0.00  0.00     0.028 C 
ATOM     10  C   LIG d   1      -1.336  88.275 117.361  0.00  0.00     0.006 C 
ENDBRANCH   8   9
BRANCH   8  11
ATOM     11  C   LIG d   1       0.626  90.113 116.201  0.00  0.00     0.028 C 
ATOM     12  C   LIG d   1       0.729  91.396 117.042  0.00  0.00     0.006 C 
ENDBRANCH   8  11
ENDBRANCH   7   8
ENDBRANCH   1   7
BRANCH   6  13
ATOM     13  N   LIG d   1       4.112  90.711 115.837  0.00  0.00    -0.311 N 
ATOM     14  C   LIG d   1       4.510  90.836 117.102  0.00  0.00     0.210 C 
ATOM     15  C   LIG d   1       4.389  92.249 117.681  0.00  0.00     0.109 C 
ATOM     16  O   LIG d   1       4.983  89.918 117.789  0.00  0.00    -0.276 OA
ATOM     17  H   LIG d   1       3.773  91.514 115.345  0.00  0.00     0.149 HD
ENDBRANCH   6  13
BRANCH   5  18
ATOM     18  N   LIG d   1       6.137  89.970 113.673  0.00  0.00     0.381 N 
ATOM     19  H   LIG d   1       6.710  89.195 113.941  0.00  0.00    -0.090 HD
ATOM     20  H   LIG d   1       6.267  90.706 114.345  0.00  0.00    -0.090 HD
ATOM     21  H   LIG d   1       6.400  90.288 112.766  0.00  0.00    -0.090 HD
ENDBRANCH   5  18
BRANCH   3  22
ATOM     22  C   LIG d   1       2.933  86.857 111.946  0.00  0.00     0.382 C 
ATOM     23  O   LIG d   1       3.723  86.004 111.474  0.00  0.00    -0.241 OA
ATOM     24  O   LIG d   1       1.807  87.002 111.433  0.00  0.00    -0.241 OA
ENDBRANCH   3  22
TORSDOF 7
ENDMDL
MODEL 2
REMARK VINA RESULT:      -5.1      2.264      5.364
REMARK  7 active torsions:
REMARK  status: ('A' for Active; 'I' for Inactive)
REMARK    1  A    between atoms: C_2  and  C_3 
REMARK    2  A    between atoms: C_3  and  O_6 
REMARK    3  A    between atoms: C_3  and  C_4 
REMARK    4  A    between atoms: C_7  and  O_6 
REMARK    5  A    between atoms: C_9  and  C_10 
REMARK    6  A    between atoms: N_15  and  C_14 
REMARK    7  A    between atoms: N_20  and  C_19 
REMARK       I    between atoms: C_22  and  N_20 
ROOT
ATOM      1  C   LIG d   1       1.650  87.500 115.178  0.00  0.00     0.161 C 
ATOM      2  C   LIG d   1       0.395  87.368 115.795  0.00  0.00     0.016 C 
ATOM      3  C   LIG d   1      -0.116  88.300 116.728  0.00  0.00     0.038 C 
ATOM      4  C   LIG d   1       0.534  89.514 116.994  0.00  0.00     0.028 C 
ATOM      5  C   LIG d   1       2.042  89.455 116.776  0.00  0.00    -0.047 C 
ATOM      6  C   LIG d   1       2.324  88.875 115.371  0.00  0.00     0.091 C 
ENDROOT
BRANCH   1   7
ATOM      7  O   LIG d   1       1.539  87.190 113.775  0.00  0.00    -0.368 OA
BRANCH   7   8
ATOM      8  C   LIG d   1       1.816  85.817 113.402  0.00  0.00     0.119 C 
BRANCH   8   9
ATOM      9  C   LIG d   1       3.316  85.723 113.061  0.00  0.00     0.028 C 
ATOM     10  C   LIG d   1       3.684  86.533 111.807  0.00  0.00     0.006 C 
ENDBRANCH   8   9
BRANCH   8  11
ATOM     11  C   LIG d   1       1.082  85.431 112.114  0.00  0.00     0.028 C 
ATOM     12  C   LIG d   1      -0.366  85.943 112.077  0.00  0.00     0.006 C 
ENDBRANCH   8  11
ENDBRANCH   7   8
ENDBRANCH   1   7
BRANCH   6  13
ATOM     13  N   LIG d   1       3.777  88.704 115.110  0.00  0.00    -0.311 N 
ATOM     14  C   LIG d   1       4.418  89.309 114.112  0.00  0.00     0.210 C 
ATOM     15  C   LIG d   1       5.911  88.980 114.008  0.00  0.00     0.109 C 
ATOM     16  O   LIG d   1       3.900  90.113 113.322  0.00  0.00    -0.276 OA
ATOM     17  H   LIG d   1       4.282  88.094 115.722  0.00  0.00     0.149 HD
ENDBRANCH   6  13
BRANCH   5  18
ATOM     18  N   LIG d   1       2.572  90.820 116.955  0.00  0.00     0.381 N 
ATOM     19  H   LIG d   1       3.369  90.797 117.560  0.00  0.00    -0.090 HD
ATOM     20  H   LIG d   1       1.865  91.389 117.386  0.00  0.00    -0.090 HD
ATOM     21  H   LIG d   1       2.827  91.205 116.072  0.00  0.00    -0.090 HD
ENDBRANCH   5  18
BRANCH   3  22
ATOM     22  C   LIG d   1      -1.270  88.002 117.436  0.00  0.00     0.382 C 
ATOM     23  O   LIG d   1      -2.379  88.434 117.038  0.00  0.00    -0.241 OA
ATOM     24  O   LIG d   1      -1.212  87.342 118.491  0.00  0.00    -0.241 OA
ENDBRANCH   3  22
TORSDOF 7
ENDMDL
MODEL 3
REMARK VINA RESULT:      -4.9      1.638      4.955
REMARK  7 active torsions:
REMARK  status: ('A' for Active; 'I' for Inactive)
REMARK    1  A    between atoms: C_2  and  C_3 
REMARK    2  A    between atoms: C_3  and  O_6 
REMARK    3  A    between atoms: C_3  and  C_4 
REMARK    4  A    between atoms: C_7  and  O_6 
REMARK    5  A    between atoms: C_9  and  C_10 
REMARK    6  A    between atoms: N_15  and  C_14 
REMARK    7  A    between atoms: N_20  and  C_19 
REMARK       I    between atoms: C_22  and  N_20 
ROOT
ATOM      1  C   LIG d   1       3.052  88.201 115.295  0.00  0.00     0.161 C 
ATOM      2  C   LIG d   1       3.356  89.058 116.366  0.00  0.00     0.016 C 
ATOM      3  C   LIG d   1       4.513  89.869 116.410  0.00  0.00     0.038 C 
ATOM      4  C   LIG d   1       5.375  89.992 115.310  0.00  0.00     0.028 C 
ATOM      5  C   LIG d   1       5.381  88.764 114.405  0.00  0.00    -0.047 C 
ATOM      6  C   LIG d   1       3.923  88.405 114.038  0.00  0.00     0.091 C 
ENDROOT
BRANCH   1   7
ATOM      7  O   LIG d   1       1.655  88.313 114.961  0.00  0.00    -0.368 OA
BRANCH   7   8
ATOM      8  C   LIG d   1       0.814  87.200 115.354  0.00  0.00     0.119 C 
BRANCH   8   9
ATOM      9  C   LIG d   1       0.152  87.571 116.695  0.00  0.00     0.028 C 
ATOM     10  C   LIG d   1      -0.295  89.041 116.742  0.00  0.00     0.006 C 
ENDBRANCH   8   9
BRANCH   8  11
ATOM     11  C   LIG d   1       1.647  85.949 115.645  0.00  0.00     0.028 C 
ATOM     12  C   LIG d   1       1.465  85.432 117.081  0.00  0.00     0.006 C 
ENDBRANCH   8  11
ENDBRANCH   7   8
ENDBRANCH   1   7
BRANCH   6  13
ATOM     13  N   LIG d   1       3.833  87.165 113.223  0.00  0.00    -0.311 N 
ATOM     14  C   LIG d   1       3.059  87.051 112.145  0.00  0.00     0.210 C 
ATOM     15  C   LIG d   1       3.099  85.680 111.463  0.00  0.00     0.109 C 
ATOM     16  O   LIG d   1       2.369  87.965 111.670  0.00  0.00    -0.276 OA
ATOM     17  H   LIG d   1       4.384  86.384 113.519  0.00  0.00     0.149 HD
ENDBRANCH   6  13
BRANCH   5  18
ATOM     18  N   LIG d   1       6.212  89.081 113.229  0.00  0.00     0.381 N 
ATOM     19  H   LIG d   1       6.561  88.236 112.823  0.00  0.00    -0.090 HD
ATOM     20  H   LIG d   1       6.996  89.636 113.525  0.00  0.00    -0.090 HD
ATOM     21  H   LIG d   1       5.675  89.584 112.557  0.00  0.00    -0.090 HD
ENDBRANCH   5  18
BRANCH   3  22
ATOM     22  C   LIG d   1       4.840  90.538 117.580  0.00  0.00     0.382 C 
ATOM     23  O   LIG d   1       4.207  91.570 117.910  0.00  0.00    -0.241 OA
ATOM     24  O   LIG d   1       5.788  90.148 118.287  0.00  0.00    -0.241 OA
ENDBRANCH   3  22
TORSDOF 7
ENDMDL
MODEL 4
REMARK VINA RESULT:      -4.7      1.515      2.285
REMARK  7 active torsions:
REMARK  status: ('A' for Active; 'I' for Inactive)
REMARK    1  A    between atoms: C_2  and  C_3 
REMARK    2  A    between atoms: C_3  and  O_6 
REMARK    3  A    between atoms: C_3  and  C_4 
REMARK    4  A    between atoms: C_7  and  O_6 
REMARK    5  A    between atoms: C_9  and  C_10 
REMARK    6  A    between atoms: N_15  and  C_14 
REMARK    7  A    between atoms: N_20  and  C_19 
REMARK       I    between atoms: C_22  and  N_20 
ROOT
ATOM      1  C   LIG d   1       2.813  88.775 115.195  0.00  0.00     0.161 C 
ATOM      2  C   LIG d   1       2.492  87.882 114.159  0.00  0.00     0.016 C 
ATOM      3  C   LIG d   1       3.310  87.681 113.023  0.00  0.00     0.038 C 
ATOM      4  C   LIG d   1       4.587  88.251 112.919  0.00  0.00     0.028 C 
ATOM      5  C   LIG d   1       4.736  89.552 113.701  0.00  0.00    -0.047 C 
ATOM      6  C   LIG d   1       4.256  89.323 115.152  0.00  0.00     0.091 C 
ENDROOT
BRANCH   1   7
ATOM      7  O   LIG d   1       2.549  88.159 116.471  0.00  0.00    -0.368 OA
BRANCH   7   8
ATOM      8  C   LIG d   1       2.330  86.727 116.454  0.00  0.00     0.119 C 
BRANCH   8   9
ATOM      9  C   LIG d   1       1.033  86.448 117.238  0.00  0.00     0.028 C 
ATOM     10  C   LIG d   1       1.177  86.754 118.739  0.00  0.00     0.006 C 
ENDBRANCH   8   9
BRANCH   8  11
ATOM     11  C   LIG d   1       3.432  85.986 117.216  0.00  0.00     0.028 C 
ATOM     12  C   LIG d   1       4.696  85.765 116.370  0.00  0.00     0.006 C 
ENDBRANCH   8  11
ENDBRANCH   7   8
ENDBRANCH   1   7
BRANCH   6  13
ATOM     13  N   LIG d   1       4.288  90.568 115.963  0.00  0.00    -0.311 N 
ATOM     14  C   LIG d   1       4.955  90.678 117.111  0.00  0.00     0.210 C 
ATOM     15  C   LIG d   1       4.840  92.043 117.797  0.00  0.00     0.109 C 
ATOM     16  O   LIG d   1       5.657  89.785 117.610  0.00  0.00    -0.276 OA
ATOM     17  H   LIG d   1       3.771  91.352 115.616  0.00  0.00     0.149 HD
ENDBRANCH   6  13
BRANCH   5  18
ATOM     18  N   LIG d   1       6.150  89.963 113.618  0.00  0.00     0.381 N 
ATOM     19  H   LIG d   1       6.602  89.474 112.871  0.00  0.00    -0.090 HD
ATOM     20  H   LIG d   1       6.610  89.720 114.478  0.00  0.00    -0.090 HD
ATOM     21  H   LIG d   1       6.211  90.946 113.466  0.00  0.00    -0.090 HD
ENDBRANCH   5  18
BRANCH   3  22
ATOM     22  C   LIG d   1       2.834  86.932 111.958  0.00  0.00     0.382 C 
ATOM     23  O   LIG d   1       1.733  87.222 111.430  0.00  0.00    -0.241 OA
ATOM     24  O   LIG d   1       3.470  85.943 111.546  0.00  0.00    -0.241 OA
ENDBRANCH   3  22
TORSDOF 7
ENDMDL
MODEL 5
REMARK VINA RESULT:      -4.5      1.526      2.214
REMARK  7 active torsions:
REMARK  status: ('A' for Active; 'I' for Inactive)
REMARK    1  A    between atoms: C_2  and  C_3 
REMARK    2  A    between atoms: C_3  and  O_6 
REMARK    3  A    between atoms: C_3  and  C_4 
REMARK    4  A    between atoms: C_7  and  O_6 
REMARK    5  A    between atoms: C_9  and  C_10 
REMARK    6  A    between atoms: N_15  and  C_14 
REMARK    7  A    between atoms: N_20  and  C_19 
REMARK       I    between atoms: C_22  and  N_20 
ROOT
ATOM      1  C   LIG d   1       2.620  89.519 116.099  0.00  0.00     0.161 C 
ATOM      2  C   LIG d   1       2.623  88.850 114.863  0.00  0.00     0.016 C 
ATOM      3  C   LIG d   1       3.802  88.556 114.140  0.00  0.00     0.038 C 
ATOM      4  C   LIG d   1       5.077  88.779 114.680  0.00  0.00     0.028 C 
ATOM      5  C   LIG d   1       5.114  89.910 115.702  0.00  0.00    -0.047 C 
ATOM      6  C   LIG d   1       4.008  89.670 116.755  0.00  0.00     0.091 C 
ENDROOT
BRANCH   1   7
ATOM      7  O   LIG d   1       1.705  88.869 117.003  0.00  0.00    -0.368 OA
BRANCH   7   8
ATOM      8  C   LIG d   1       0.311  89.240 116.876  0.00  0.00     0.119 C 
BRANCH   8   9
ATOM      9  C   LIG d   1       0.007  90.284 117.968  0.00  0.00     0.028 C 
ATOM     10  C   LIG d   1      -0.190  91.696 117.391  0.00  0.00     0.006 C 
ENDBRANCH   8   9
BRANCH   8  11
ATOM     11  C   LIG d   1      -0.611  88.055 117.180  0.00  0.00     0.028 C 
ATOM     12  C   LIG d   1      -2.066  88.482 117.430  0.00  0.00     0.006 C 
ENDBRANCH   8  11
ENDBRANCH   7   8
ENDBRANCH   1   7
BRANCH   6  13
ATOM     13  N   LIG d   1       3.919  90.775 117.746  0.00  0.00    -0.311 N 
ATOM     14  C   LIG d   1       3.534  92.011 117.432  0.00  0.00     0.210 C 
ATOM     15  C   LIG d   1       3.532  93.003 118.600  0.00  0.00     0.109 C 
ATOM     16  O   LIG d   1       3.165  92.372 116.305  0.00  0.00    -0.276 OA
ATOM     17  H   LIG d   1       4.171  90.562 118.691  0.00  0.00     0.149 HD
ENDBRANCH   6  13
BRANCH   5  18
ATOM     18  N   LIG d   1       6.469  89.942 116.284  0.00  0.00     0.381 N 
ATOM     19  H   LIG d   1       6.567  90.746 116.871  0.00  0.00    -0.090 HD
ATOM     20  H   LIG d   1       7.140  90.011 115.540  0.00  0.00    -0.090 HD
ATOM     21  H   LIG d   1       6.632  89.114 116.813  0.00  0.00    -0.090 HD
ENDBRANCH   5  18
BRANCH   3  22
ATOM     22  C   LIG d   1       3.711  88.070 112.845  0.00  0.00     0.382 C 
ATOM     23  O   LIG d   1       4.736  87.642 112.262  0.00  0.00    -0.241 OA
ATOM     24  O   LIG d   1       2.625  88.095 112.236  0.00  0.00    -0.241 OA
ENDBRANCH   3  22
TORSDOF 7
ENDMDL
MODEL 6
REMARK VINA RESULT:      -4.4      6.294      9.583
REMARK  7 active torsions:
REMARK  status: ('A' for Active; 'I' for Inactive)
REMARK    1  A    between atoms: C_2  and  C_3 
REMARK    2  A    between atoms: C_3  and  O_6 
REMARK    3  A    between atoms: C_3  and  C_4 
REMARK    4  A    between atoms: C_7  and  O_6 
REMARK    5  A    between atoms: C_9  and  C_10 
REMARK    6  A    between atoms: N_15  and  C_14 
REMARK    7  A    between atoms: N_20  and  C_19 
REMARK       I    between atoms: C_22  and  N_20 
ROOT
ATOM      1  C   LIG d   1      -3.921  91.332 117.010  0.00  0.00     0.161 C 
ATOM      2  C   LIG d   1      -2.945  92.231 117.472  0.00  0.00     0.016 C 
ATOM      3  C   LIG d   1      -3.241  93.353 118.280  0.00  0.00     0.038 C 
ATOM      4  C   LIG d   1      -4.522  93.568 118.810  0.00  0.00     0.028 C 
ATOM      5  C   LIG d   1      -5.638  92.969 117.959  0.00  0.00    -0.047 C 
ATOM      6  C   LIG d   1      -5.308  91.487 117.670  0.00  0.00     0.091 C 
ENDROOT
BRANCH   1   7
ATOM      7  O   LIG d   1      -3.446  89.978 117.156  0.00  0.00    -0.368 OA
BRANCH   7   8
ATOM      8  C   LIG d   1      -2.219  89.811 117.907  0.00  0.00     0.119 C 
BRANCH   8   9
ATOM      9  C   LIG d   1      -1.130  89.352 116.918  0.00  0.00     0.028 C 
ATOM     10  C   LIG d   1      -0.037  90.415 116.713  0.00  0.00     0.006 C 
ENDBRANCH   8   9
BRANCH   8  11
ATOM     11  C   LIG d   1      -2.342  88.678 118.930  0.00  0.00     0.028 C 
ATOM     12  C   LIG d   1      -1.463  87.465 118.584  0.00  0.00     0.006 C 
ENDBRANCH   8  11
ENDBRANCH   7   8
ENDBRANCH   1   7
BRANCH   6  13
ATOM     13  N   LIG d   1      -6.306  90.849 116.773  0.00  0.00    -0.311 N 
ATOM     14  C   LIG d   1      -6.562  91.277 115.538  0.00  0.00     0.210 C 
ATOM     15  C   LIG d   1      -7.643  90.489 114.791  0.00  0.00     0.109 C 
ATOM     16  O   LIG d   1      -5.975  92.215 114.979  0.00  0.00    -0.276 OA
ATOM     17  H   LIG d   1      -6.807  90.061 117.135  0.00  0.00     0.149 HD
ENDBRANCH   6  13
BRANCH   5  18
ATOM     18  N   LIG d   1      -6.904  93.146 118.696  0.00  0.00     0.381 N 
ATOM     19  H   LIG d   1      -6.724  93.154 119.680  0.00  0.00    -0.090 HD
ATOM     20  H   LIG d   1      -7.509  92.371 118.492  0.00  0.00    -0.090 HD
ATOM     21  H   LIG d   1      -7.340  93.999 118.424  0.00  0.00    -0.090 HD
ENDBRANCH   5  18
BRANCH   3  22
ATOM     22  C   LIG d   1      -2.257  94.296 118.533  0.00  0.00     0.382 C 
ATOM     23  O   LIG d   1      -1.047  93.966 118.493  0.00  0.00    -0.241 OA
ATOM     24  O   LIG d   1      -2.565  95.462 118.844  0.00  0.00    -0.241 OA
ENDBRANCH   3  22
TORSDOF 7
ENDMDL
MODEL 7
REMARK VINA RESULT:      -4.4      2.562      5.569
REMARK  7 active torsions:
REMARK  status: ('A' for Active; 'I' for Inactive)
REMARK    1  A    between atoms: C_2  and  C_3 
REMARK    2  A    between atoms: C_3  and  O_6 
REMARK    3  A    between atoms: C_3  and  C_4 
REMARK    4  A    between atoms: C_7  and  O_6 
REMARK    5  A    between atoms: C_9  and  C_10 
REMARK    6  A    between atoms: N_15  and  C_14 
REMARK    7  A    between atoms: N_20  and  C_19 
REMARK       I    between atoms: C_22  and  N_20 
ROOT
ATOM      1  C   LIG d   1       1.048  89.261 116.529  0.00  0.00     0.161 C 
ATOM      2  C   LIG d   1      -0.313  88.924 116.612  0.00  0.00     0.016 C 
ATOM      3  C   LIG d   1      -1.267  89.705 117.304  0.00  0.00     0.038 C 
ATOM      4  C   LIG d   1      -0.951  90.964 117.834  0.00  0.00     0.028 C 
ATOM      5  C   LIG d   1       0.520  91.110 118.211  0.00  0.00    -0.047 C 
ATOM      6  C   LIG d   1       1.391  90.688 117.006  0.00  0.00     0.091 C 
ENDROOT
BRANCH   1   7
ATOM      7  O   LIG d   1       1.520  89.057 115.182  0.00  0.00    -0.368 OA
BRANCH   7   8
ATOM      8  C   LIG d   1       2.564  88.065 115.016  0.00  0.00     0.119 C 
BRANCH   8   9
ATOM      9  C   LIG d   1       3.118  88.212 113.586  0.00  0.00     0.028 C 
ATOM     10  C   LIG d   1       4.655  88.217 113.550  0.00  0.00     0.006 C 
ENDBRANCH   8   9
BRANCH   8  11
ATOM     11  C   LIG d   1       1.999  86.644 115.089  0.00  0.00     0.028 C 
ATOM     12  C   LIG d   1       1.000  86.341 113.960  0.00  0.00     0.006 C 
ENDBRANCH   8  11
ENDBRANCH   7   8
ENDBRANCH   1   7
BRANCH   6  13
ATOM     13  N   LIG d   1       2.844  90.721 117.318  0.00  0.00    -0.311 N 
ATOM     14  C   LIG d   1       3.624  91.771 117.069  0.00  0.00     0.210 C 
ATOM     15  C   LIG d   1       5.096  91.588 117.450  0.00  0.00     0.109 C 
ATOM     16  O   LIG d   1       3.229  92.849 116.599  0.00  0.00    -0.276 OA
ATOM     17  H   LIG d   1       3.240  89.899 117.730  0.00  0.00     0.149 HD
ENDBRANCH   6  13
BRANCH   5  18
ATOM     18  N   LIG d   1       0.738  92.511 118.620  0.00  0.00     0.381 N 
ATOM     19  H   LIG d   1       0.078  92.764 119.327  0.00  0.00    -0.090 HD
ATOM     20  H   LIG d   1       0.593  93.108 117.825  0.00  0.00    -0.090 HD
ATOM     21  H   LIG d   1       1.666  92.625 118.965  0.00  0.00    -0.090 HD
ENDBRANCH   5  18
BRANCH   3  22
ATOM     22  C   LIG d   1      -2.546  89.208 117.504  0.00  0.00     0.382 C 
ATOM     23  O   LIG d   1      -3.496  89.615 116.792  0.00  0.00    -0.241 OA
ATOM     24  O   LIG d   1      -2.771  88.392 118.418  0.00  0.00    -0.241 OA
ENDBRANCH   3  22
TORSDOF 7
ENDMDL
MODEL 8
REMARK VINA RESULT:      -4.3      3.303      5.376
REMARK  7 active torsions:
REMARK  status: ('A' for Active; 'I' for Inactive)
REMARK    1  A    between atoms: C_2  and  C_3 
REMARK    2  A    between atoms: C_3  and  O_6 
REMARK    3  A    between atoms: C_3  and  C_4 
REMARK    4  A    between atoms: C_7  and  O_6 
REMARK    5  A    between atoms: C_9  and  C_10 
REMARK    6  A    between atoms: N_15  and  C_14 
REMARK    7  A    between atoms: N_20  and  C_19 
REMARK       I    between atoms: C_22  and  N_20 
ROOT
ATOM      1  C   LIG d   1       1.163  89.706 118.408  0.00  0.00     0.161 C 
ATOM      2  C   LIG d   1      -0.067  89.052 118.228  0.00  0.00     0.016 C 
ATOM      3  C   LIG d   1      -1.205  89.675 117.666  0.00  0.00     0.038 C 
ATOM      4  C   LIG d   1      -1.145  90.958 117.103  0.00  0.00     0.028 C 
ATOM      5  C   LIG d   1      -0.062  91.839 117.717  0.00  0.00    -0.047 C 
ATOM      6  C   LIG d   1       1.279  91.071 117.699  0.00  0.00     0.091 C 
ENDROOT
BRANCH   1   7
ATOM      7  O   LIG d   1       2.242  88.839 118.006  0.00  0.00    -0.368 OA
BRANCH   7   8
ATOM      8  C   LIG d   1       2.543  88.812 116.589  0.00  0.00     0.119 C 
BRANCH   8   9
ATOM      9  C   LIG d   1       2.338  87.365 116.099  0.00  0.00     0.028 C 
ATOM     10  C   LIG d   1       1.078  87.212 115.231  0.00  0.00     0.006 C 
ENDBRANCH   8   9
BRANCH   8  11
ATOM     11  C   LIG d   1       4.019  89.124 116.327  0.00  0.00     0.028 C 
ATOM     12  C   LIG d   1       4.247  89.852 114.993  0.00  0.00     0.006 C 
ENDBRANCH   8  11
ENDBRANCH   7   8
ENDBRANCH   1   7
BRANCH   6  13
ATOM     13  N   LIG d   1       2.375  91.829 118.357  0.00  0.00    -0.311 N 
ATOM     14  C   LIG d   1       3.217  92.623 117.698  0.00  0.00     0.210 C 
ATOM     15  C   LIG d   1       4.286  93.295 118.565  0.00  0.00     0.109 C 
ATOM     16  O   LIG d   1       3.160  92.860 116.482  0.00  0.00    -0.276 OA
ATOM     17  H   LIG d   1       2.474  91.719 119.348  0.00  0.00     0.149 HD
ENDBRANCH   6  13
BRANCH   5  18
ATOM     18  N   LIG d   1      -0.020  93.096 116.945  0.00  0.00     0.381 N 
ATOM     19  H   LIG d   1       0.895  93.228 116.563  0.00  0.00    -0.090 HD
ATOM     20  H   LIG d   1      -0.217  93.863 117.563  0.00  0.00    -0.090 HD
ATOM     21  H   LIG d   1      -0.693  93.068 116.212  0.00  0.00    -0.090 HD
ENDBRANCH   5  18
BRANCH   3  22
ATOM     22  C   LIG d   1      -2.430  89.026 117.700  0.00  0.00     0.382 C 
ATOM     23  O   LIG d   1      -3.300  89.285 116.834  0.00  0.00    -0.241 OA
ATOM     24  O   LIG d   1      -2.693  88.219 118.611  0.00  0.00    -0.241 OA
ENDBRANCH   3  22
TORSDOF 7
ENDMDL
MODEL 9
REMARK VINA RESULT:      -4.3      2.695      5.905
REMARK  7 active torsions:
REMARK  status: ('A' for Active; 'I' for Inactive)
REMARK    1  A    between atoms: C_2  and  C_3 
REMARK    2  A    between atoms: C_3  and  O_6 
REMARK    3  A    between atoms: C_3  and  C_4 
REMARK    4  A    between atoms: C_7  and  O_6 
REMARK    5  A    between atoms: C_9  and  C_10 
REMARK    6  A    between atoms: N_15  and  C_14 
REMARK    7  A    between atoms: N_20  and  C_19 
REMARK       I    between atoms: C_22  and  N_20 
ROOT
ATOM      1  C   LIG d   1       4.426  89.473 115.281  0.00  0.00     0.161 C 
ATOM      2  C   LIG d   1       4.046  90.655 115.939  0.00  0.00     0.016 C 
ATOM      3  C   LIG d   1       2.722  90.921 116.358  0.00  0.00     0.038 C 
ATOM      4  C   LIG d   1       1.712  89.951 116.282  0.00  0.00     0.028 C 
ATOM      5  C   LIG d   1       1.931  88.933 115.168  0.00  0.00    -0.047 C 
ATOM      6  C   LIG d   1       3.361  88.357 115.289  0.00  0.00     0.091 C 
ENDROOT
BRANCH   1   7
ATOM      7  O   LIG d   1       5.666  88.986 115.831  0.00  0.00    -0.368 OA
BRANCH   7   8
ATOM      8  C   LIG d   1       5.829  89.129 117.263  0.00  0.00     0.119 C 
BRANCH   8   9
ATOM      9  C   LIG d   1       7.254  89.656 117.517  0.00  0.00     0.028 C 
ATOM     10  C   LIG d   1       8.267  88.521 117.745  0.00  0.00     0.006 C 
ENDBRANCH   8   9
BRANCH   8  11
ATOM     11  C   LIG d   1       5.766  87.771 117.970  0.00  0.00     0.028 C 
ATOM     12  C   LIG d   1       4.480  87.585 118.790  0.00  0.00     0.006 C 
ENDBRANCH   8  11
ENDBRANCH   7   8
ENDBRANCH   1   7
BRANCH   6  13
ATOM     13  N   LIG d   1       3.688  87.415 114.187  0.00  0.00    -0.311 N 
ATOM     14  C   LIG d   1       3.339  87.622 112.918  0.00  0.00     0.210 C 
ATOM     15  C   LIG d   1       3.758  86.516 111.944  0.00  0.00     0.109 C 
ATOM     16  O   LIG d   1       2.751  88.631 112.502  0.00  0.00    -0.276 OA
ATOM     17  H   LIG d   1       4.191  86.585 114.431  0.00  0.00     0.149 HD
ENDBRANCH   6  13
BRANCH   5  18
ATOM     18  N   LIG d   1       0.881  87.905 115.290  0.00  0.00     0.381 N 
ATOM     19  H   LIG d   1       0.647  87.551 114.384  0.00  0.00    -0.090 HD
ATOM     20  H   LIG d   1       0.059  88.325 115.687  0.00  0.00    -0.090 HD
ATOM     21  H   LIG d   1       1.198  87.162 115.873  0.00  0.00    -0.090 HD
ENDBRANCH   5  18
BRANCH   3  22
ATOM     22  C   LIG d   1       2.389  92.184 116.823  0.00  0.00     0.382 C 
ATOM     23  O   LIG d   1       3.228  93.115 116.764  0.00  0.00    -0.241 OA
ATOM     24  O   LIG d   1       1.277  92.393 117.343  0.00  0.00    -0.241 OA
ENDBRANCH   3  22
TORSDOF 7
ENDMDL
