MODEL 1
REMARK VINA RESULT:      -4.6      0.000      0.000
REMARK  7 active torsions:
REMARK  status: ('A' for Active; 'I' for Inactive)
REMARK    1  A    between atoms: C_2  and  C_3 
REMARK    2  A    between atoms: C_3  and  O_6 
REMARK    3  A    between atoms: C_3  and  C_4 
REMARK    4  A    between atoms: C_7  and  O_6 
REMARK    5  A    between atoms: C_9  and  C_10 
REMARK    6  A    between atoms: N_15  and  C_14 
REMARK    7  A    between atoms: N_20  and  C_19 
REMARK       I    between atoms: C_22  and  N_20 
ROOT
ATOM      1  C   LIG d   1       2.533  88.388 116.397  0.00  0.00     0.161 C 
ATOM      2  C   LIG d   1       3.149  89.178 117.382  0.00  0.00     0.016 C 
ATOM      3  C   LIG d   1       4.326  89.929 117.154  0.00  0.00     0.038 C 
ATOM      4  C   LIG d   1       4.885  90.060 115.875  0.00  0.00     0.028 C 
ATOM      5  C   LIG d   1       4.588  88.878 114.959  0.00  0.00    -0.047 C 
ATOM      6  C   LIG d   1       3.066  88.608 114.965  0.00  0.00     0.091 C 
ENDROOT
BRANCH   1   7
ATOM      7  O   LIG d   1       1.106  88.584 116.436  0.00  0.00    -0.368 OA
BRANCH   7   8
ATOM      8  C   LIG d   1       0.577  89.184 117.644  0.00  0.00     0.119 C 
BRANCH   8   9
ATOM      9  C   LIG d   1      -0.465  88.210 118.226  0.00  0.00     0.028 C 
ATOM     10  C   LIG d   1      -1.896  88.769 118.151  0.00  0.00     0.006 C 
ENDBRANCH   8   9
BRANCH   8  11
ATOM     11  C   LIG d   1      -0.196  90.470 117.335  0.00  0.00     0.028 C 
ATOM     12  C   LIG d   1       0.591  91.740 117.694  0.00  0.00     0.006 C 
ENDBRANCH   8  11
ENDBRANCH   7   8
ENDBRANCH   1   7
BRANCH   6  13
ATOM     13  N   LIG d   1       2.699  87.413 114.161  0.00  0.00    -0.311 N 
ATOM     14  C   LIG d   1       2.208  87.485 112.925  0.00  0.00     0.210 C 
ATOM     15  C   LIG d   1       1.877  86.134 112.282  0.00  0.00     0.109 C 
ATOM     16  O   LIG d   1       2.045  88.536 112.288  0.00  0.00    -0.276 OA
ATOM     17  H   LIG d   1       2.828  86.518 114.589  0.00  0.00     0.149 HD
ENDBRANCH   6  13
BRANCH   5  18
ATOM     18  N   LIG d   1       5.111  89.208 113.620  0.00  0.00     0.381 N 
ATOM     19  H   LIG d   1       4.423  89.719 113.104  0.00  0.00    -0.090 HD
ATOM     20  H   LIG d   1       5.306  88.354 113.127  0.00  0.00    -0.090 HD
ATOM     21  H   LIG d   1       5.943  89.749 113.703  0.00  0.00    -0.090 HD
ENDBRANCH   5  18
BRANCH   3  22
ATOM     22  C   LIG d   1       4.978  90.526 118.223  0.00  0.00     0.382 C 
ATOM     23  O   LIG d   1       6.150  90.184 118.511  0.00  0.00    -0.241 OA
ATOM     24  O   LIG d   1       4.393  91.369 118.929  0.00  0.00    -0.241 OA
ENDBRANCH   3  22
TORSDOF 7
ENDMDL
MODEL 2
REMARK VINA RESULT:      -4.6      2.747      6.031
REMARK  7 active torsions:
REMARK  status: ('A' for Active; 'I' for Inactive)
REMARK    1  A    between atoms: C_2  and  C_3 
REMARK    2  A    between atoms: C_3  and  O_6 
REMARK    3  A    between atoms: C_3  and  C_4 
REMARK    4  A    between atoms: C_7  and  O_6 
REMARK    5  A    between atoms: C_9  and  C_10 
REMARK    6  A    between atoms: N_15  and  C_14 
REMARK    7  A    between atoms: N_20  and  C_19 
REMARK       I    between atoms: C_22  and  N_20 
ROOT
ATOM      1  C   LIG d   1       1.088  88.930 117.390  0.00  0.00     0.161 C 
ATOM      2  C   LIG d   1      -0.300  88.719 117.388  0.00  0.00     0.016 C 
ATOM      3  C   LIG d   1      -1.235  89.685 117.826  0.00  0.00     0.038 C 
ATOM      4  C   LIG d   1      -0.850  90.993 118.156  0.00  0.00     0.028 C 
ATOM      5  C   LIG d   1       0.588  91.093 118.654  0.00  0.00    -0.047 C 
ATOM      6  C   LIG d   1       1.520  90.390 117.642  0.00  0.00     0.091 C 
ENDROOT
BRANCH   1   7
ATOM      7  O   LIG d   1       1.658  88.445 116.158  0.00  0.00    -0.368 OA
BRANCH   7   8
ATOM      8  C   LIG d   1       2.483  87.258 116.262  0.00  0.00     0.119 C 
BRANCH   8   9
ATOM      9  C   LIG d   1       3.789  87.533 115.491  0.00  0.00     0.028 C 
ATOM     10  C   LIG d   1       3.837  88.955 114.907  0.00  0.00     0.006 C 
ENDBRANCH   8   9
BRANCH   8  11
ATOM     11  C   LIG d   1       1.836  86.066 115.551  0.00  0.00     0.028 C 
ATOM     12  C   LIG d   1       1.256  86.435 114.176  0.00  0.00     0.006 C 
ENDBRANCH   8  11
ENDBRANCH   7   8
ENDBRANCH   1   7
BRANCH   6  13
ATOM     13  N   LIG d   1       2.935  90.369 118.094  0.00  0.00    -0.311 N 
ATOM     14  C   LIG d   1       3.820  91.314 117.780  0.00  0.00     0.210 C 
ATOM     15  C   LIG d   1       5.230  91.089 118.333  0.00  0.00     0.109 C 
ATOM     16  O   LIG d   1       3.562  92.334 117.123  0.00  0.00    -0.276 OA
ATOM     17  H   LIG d   1       3.223  89.593 118.658  0.00  0.00     0.149 HD
ENDBRANCH   6  13
BRANCH   5  18
ATOM     18  N   LIG d   1       0.899  92.524 118.830  0.00  0.00     0.381 N 
ATOM     19  H   LIG d   1       0.059  93.033 119.022  0.00  0.00    -0.090 HD
ATOM     20  H   LIG d   1       1.294  92.878 117.976  0.00  0.00    -0.090 HD
ATOM     21  H   LIG d   1       1.546  92.643 119.578  0.00  0.00    -0.090 HD
ENDBRANCH   5  18
BRANCH   3  22
ATOM     22  C   LIG d   1      -2.568  89.333 117.975  0.00  0.00     0.382 C 
ATOM     23  O   LIG d   1      -3.457  89.968 117.358  0.00  0.00    -0.241 OA
ATOM     24  O   LIG d   1      -2.897  88.417 118.753  0.00  0.00    -0.241 OA
ENDBRANCH   3  22
TORSDOF 7
ENDMDL
MODEL 3
REMARK VINA RESULT:      -4.3      2.457      5.037
REMARK  7 active torsions:
REMARK  status: ('A' for Active; 'I' for Inactive)
REMARK    1  A    between atoms: C_2  and  C_3 
REMARK    2  A    between atoms: C_3  and  O_6 
REMARK    3  A    between atoms: C_3  and  C_4 
REMARK    4  A    between atoms: C_7  and  O_6 
REMARK    5  A    between atoms: C_9  and  C_10 
REMARK    6  A    between atoms: N_15  and  C_14 
REMARK    7  A    between atoms: N_20  and  C_19 
REMARK       I    between atoms: C_22  and  N_20 
ROOT
ATOM      1  C   LIG d   1       3.631  89.264 115.949  0.00  0.00     0.161 C 
ATOM      2  C   LIG d   1       2.479  89.933 116.396  0.00  0.00     0.016 C 
ATOM      3  C   LIG d   1       2.512  91.022 117.297  0.00  0.00     0.038 C 
ATOM      4  C   LIG d   1       3.718  91.617 117.698  0.00  0.00     0.028 C 
ATOM      5  C   LIG d   1       4.905  90.659 117.670  0.00  0.00    -0.047 C 
ATOM      6  C   LIG d   1       4.961  89.970 116.287  0.00  0.00     0.091 C 
ENDROOT
BRANCH   1   7
ATOM      7  O   LIG d   1       3.537  89.026 114.530  0.00  0.00    -0.368 OA
BRANCH   7   8
ATOM      8  C   LIG d   1       3.428  87.640 114.123  0.00  0.00     0.119 C 
BRANCH   8   9
ATOM      9  C   LIG d   1       4.321  87.450 112.881  0.00  0.00     0.028 C 
ATOM     10  C   LIG d   1       5.542  88.386 112.888  0.00  0.00     0.006 C 
ENDBRANCH   8   9
BRANCH   8  11
ATOM     11  C   LIG d   1       2.008  87.307 113.655  0.00  0.00     0.028 C 
ATOM     12  C   LIG d   1       1.821  87.492 112.141  0.00  0.00     0.006 C 
ENDBRANCH   8  11
ENDBRANCH   7   8
ENDBRANCH   1   7
BRANCH   6  13
ATOM     13  N   LIG d   1       6.043  88.954 116.204  0.00  0.00    -0.311 N 
ATOM     14  C   LIG d   1       6.070  87.849 116.948  0.00  0.00     0.210 C 
ATOM     15  C   LIG d   1       7.286  86.946 116.718  0.00  0.00     0.109 C 
ATOM     16  O   LIG d   1       5.187  87.516 117.752  0.00  0.00    -0.276 OA
ATOM     17  H   LIG d   1       6.784  89.129 115.554  0.00  0.00     0.149 HD
ENDBRANCH   6  13
BRANCH   5  18
ATOM     18  N   LIG d   1       6.117  91.442 117.975  0.00  0.00     0.381 N 
ATOM     19  H   LIG d   1       6.849  91.194 117.341  0.00  0.00    -0.090 HD
ATOM     20  H   LIG d   1       6.419  91.222 118.908  0.00  0.00    -0.090 HD
ATOM     21  H   LIG d   1       5.921  92.416 117.903  0.00  0.00    -0.090 HD
ENDBRANCH   5  18
BRANCH   3  22
ATOM     22  C   LIG d   1       1.330  91.501 117.839  0.00  0.00     0.382 C 
ATOM     23  O   LIG d   1       0.909  92.639 117.519  0.00  0.00    -0.241 OA
ATOM     24  O   LIG d   1       0.701  90.829 118.678  0.00  0.00    -0.241 OA
ENDBRANCH   3  22
TORSDOF 7
ENDMDL
MODEL 4
REMARK VINA RESULT:      -4.1      1.655      4.635
REMARK  7 active torsions:
REMARK  status: ('A' for Active; 'I' for Inactive)
REMARK    1  A    between atoms: C_2  and  C_3 
REMARK    2  A    between atoms: C_3  and  O_6 
REMARK    3  A    between atoms: C_3  and  C_4 
REMARK    4  A    between atoms: C_7  and  O_6 
REMARK    5  A    between atoms: C_9  and  C_10 
REMARK    6  A    between atoms: N_15  and  C_14 
REMARK    7  A    between atoms: N_20  and  C_19 
REMARK       I    between atoms: C_22  and  N_20 
ROOT
ATOM      1  C   LIG d   1       2.846  88.845 116.461  0.00  0.00     0.161 C 
ATOM      2  C   LIG d   1       2.384  88.395 115.213  0.00  0.00     0.016 C 
ATOM      3  C   LIG d   1       3.216  87.774 114.254  0.00  0.00     0.038 C 
ATOM      4  C   LIG d   1       4.544  87.422 114.540  0.00  0.00     0.028 C 
ATOM      5  C   LIG d   1       5.191  88.309 115.598  0.00  0.00    -0.047 C 
ATOM      6  C   LIG d   1       4.266  88.370 116.835  0.00  0.00     0.091 C 
ENDROOT
BRANCH   1   7
ATOM      7  O   LIG d   1       1.907  88.478 117.491  0.00  0.00    -0.368 OA
BRANCH   7   8
ATOM      8  C   LIG d   1       0.746  89.334 117.630  0.00  0.00     0.119 C 
BRANCH   8   9
ATOM      9  C   LIG d   1       1.150  90.519 118.528  0.00  0.00     0.028 C 
ATOM     10  C   LIG d   1       1.135  91.859 117.772  0.00  0.00     0.006 C 
ENDBRANCH   8   9
BRANCH   8  11
ATOM     11  C   LIG d   1      -0.383  88.623 118.381  0.00  0.00     0.028 C 
ATOM     12  C   LIG d   1      -1.779  89.026 117.879  0.00  0.00     0.006 C 
ENDBRANCH   8  11
ENDBRANCH   7   8
ENDBRANCH   1   7
BRANCH   6  13
ATOM     13  N   LIG d   1       4.784  89.285 117.886  0.00  0.00    -0.311 N 
ATOM     14  C   LIG d   1       4.871  90.605 117.730  0.00  0.00     0.210 C 
ATOM     15  C   LIG d   1       5.452  91.360 118.930  0.00  0.00     0.109 C 
ATOM     16  O   LIG d   1       4.492  91.225 116.726  0.00  0.00    -0.276 OA
ATOM     17  H   LIG d   1       5.084  88.869 118.746  0.00  0.00     0.149 HD
ENDBRANCH   6  13
BRANCH   5  18
ATOM     18  N   LIG d   1       6.521  87.747 115.899  0.00  0.00     0.381 N 
ATOM     19  H   LIG d   1       7.173  88.488 116.059  0.00  0.00    -0.090 HD
ATOM     20  H   LIG d   1       6.836  87.216 115.106  0.00  0.00    -0.090 HD
ATOM     21  H   LIG d   1       6.470  87.160 116.702  0.00  0.00    -0.090 HD
ENDBRANCH   5  18
BRANCH   3  22
ATOM     22  C   LIG d   1       2.732  87.534 112.977  0.00  0.00     0.382 C 
ATOM     23  O   LIG d   1       3.024  86.466 112.386  0.00  0.00    -0.241 OA
ATOM     24  O   LIG d   1       2.044  88.391 112.390  0.00  0.00    -0.241 OA
ENDBRANCH   3  22
TORSDOF 7
ENDMDL
MODEL 5
REMARK VINA RESULT:      -4.1      1.740      2.131
REMARK  7 active torsions:
REMARK  status: ('A' for Active; 'I' for Inactive)
REMARK    1  A    between atoms: C_2  and  C_3 
REMARK    2  A    between atoms: C_3  and  O_6 
REMARK    3  A    between atoms: C_3  and  C_4 
REMARK    4  A    between atoms: C_7  and  O_6 
REMARK    5  A    between atoms: C_9  and  C_10 
REMARK    6  A    between atoms: N_15  and  C_14 
REMARK    7  A    between atoms: N_20  and  C_19 
REMARK       I    between atoms: C_22  and  N_20 
ROOT
ATOM      1  C   LIG d   1       2.527  87.378 115.876  0.00  0.00     0.161 C 
ATOM      2  C   LIG d   1       3.638  87.540 116.720  0.00  0.00     0.016 C 
ATOM      3  C   LIG d   1       4.966  87.649 116.247  0.00  0.00     0.038 C 
ATOM      4  C   LIG d   1       5.259  87.754 114.879  0.00  0.00     0.028 C 
ATOM      5  C   LIG d   1       4.220  87.088 113.984  0.00  0.00    -0.047 C 
ATOM      6  C   LIG d   1       2.816  87.602 114.377  0.00  0.00     0.091 C 
ENDROOT
BRANCH   1   7
ATOM      7  O   LIG d   1       1.452  88.233 116.313  0.00  0.00    -0.368 OA
BRANCH   7   8
ATOM      8  C   LIG d   1       1.751  89.116 117.422  0.00  0.00     0.119 C 
BRANCH   8   9
ATOM      9  C   LIG d   1       0.475  89.232 118.278  0.00  0.00     0.028 C 
ATOM     10  C   LIG d   1      -0.742  88.567 117.611  0.00  0.00     0.006 C 
ENDBRANCH   8   9
BRANCH   8  11
ATOM     11  C   LIG d   1       2.045  90.539 116.938  0.00  0.00     0.028 C 
ATOM     12  C   LIG d   1       1.550  91.616 117.916  0.00  0.00     0.006 C 
ENDBRANCH   8  11
ENDBRANCH   7   8
ENDBRANCH   1   7
BRANCH   6  13
ATOM     13  N   LIG d   1       1.733  86.937 113.606  0.00  0.00    -0.311 N 
ATOM     14  C   LIG d   1       1.273  87.395 112.444  0.00  0.00     0.210 C 
ATOM     15  C   LIG d   1       0.139  86.570 111.826  0.00  0.00     0.109 C 
ATOM     16  O   LIG d   1       1.717  88.389 111.849  0.00  0.00    -0.276 OA
ATOM     17  H   LIG d   1       1.336  86.106 114.001  0.00  0.00     0.149 HD
ENDBRANCH   6  13
BRANCH   5  18
ATOM     18  N   LIG d   1       4.576  87.392 112.585  0.00  0.00     0.381 N 
ATOM     19  H   LIG d   1       4.017  88.151 112.251  0.00  0.00    -0.090 HD
ATOM     20  H   LIG d   1       4.383  86.585 112.018  0.00  0.00    -0.090 HD
ATOM     21  H   LIG d   1       5.542  87.628 112.523  0.00  0.00    -0.090 HD
ENDBRANCH   5  18
BRANCH   3  22
ATOM     22  C   LIG d   1       6.021  87.613 117.146  0.00  0.00     0.382 C 
ATOM     23  O   LIG d   1       5.984  88.316 118.184  0.00  0.00    -0.241 OA
ATOM     24  O   LIG d   1       7.029  86.920 116.909  0.00  0.00    -0.241 OA
ENDBRANCH   3  22
TORSDOF 7
ENDMDL
MODEL 6
REMARK VINA RESULT:      -3.9      2.344      5.282
REMARK  7 active torsions:
REMARK  status: ('A' for Active; 'I' for Inactive)
REMARK    1  A    between atoms: C_2  and  C_3 
REMARK    2  A    between atoms: C_3  and  O_6 
REMARK    3  A    between atoms: C_3  and  C_4 
REMARK    4  A    between atoms: C_7  and  O_6 
REMARK    5  A    between atoms: C_9  and  C_10 
REMARK    6  A    between atoms: N_15  and  C_14 
REMARK    7  A    between atoms: N_20  and  C_19 
REMARK       I    between atoms: C_22  and  N_20 
ROOT
ATOM      1  C   LIG d   1       2.161  87.976 117.364  0.00  0.00     0.161 C 
ATOM      2  C   LIG d   1       0.759  88.043 117.426  0.00  0.00     0.016 C 
ATOM      3  C   LIG d   1       0.043  89.256 117.548  0.00  0.00     0.038 C 
ATOM      4  C   LIG d   1       0.678  90.504 117.465  0.00  0.00     0.028 C 
ATOM      5  C   LIG d   1       2.137  90.472 117.909  0.00  0.00    -0.047 C 
ATOM      6  C   LIG d   1       2.865  89.333 117.160  0.00  0.00     0.091 C 
ENDROOT
BRANCH   1   7
ATOM      7  O   LIG d   1       2.560  87.045 116.339  0.00  0.00    -0.368 OA
BRANCH   7   8
ATOM      8  C   LIG d   1       2.781  87.604 115.021  0.00  0.00     0.119 C 
BRANCH   8   9
ATOM      9  C   LIG d   1       1.778  86.935 114.061  0.00  0.00     0.028 C 
ATOM     10  C   LIG d   1       1.617  85.430 114.334  0.00  0.00     0.006 C 
ENDBRANCH   8   9
BRANCH   8  11
ATOM     11  C   LIG d   1       4.166  87.233 114.483  0.00  0.00     0.028 C 
ATOM     12  C   LIG d   1       4.622  88.143 113.332  0.00  0.00     0.006 C 
ENDBRANCH   8  11
ENDBRANCH   7   8
ENDBRANCH   1   7
BRANCH   6  13
ATOM     13  N   LIG d   1       4.277  89.178 117.598  0.00  0.00    -0.311 N 
ATOM     14  C   LIG d   1       5.306  89.744 116.970  0.00  0.00     0.210 C 
ATOM     15  C   LIG d   1       6.680  89.440 117.575  0.00  0.00     0.109 C 
ATOM     16  O   LIG d   1       5.209  90.496 115.988  0.00  0.00    -0.276 OA
ATOM     17  H   LIG d   1       4.444  88.610 118.405  0.00  0.00     0.149 HD
ENDBRANCH   6  13
BRANCH   5  18
ATOM     18  N   LIG d   1       2.714  91.803 117.641  0.00  0.00     0.381 N 
ATOM     19  H   LIG d   1       3.676  91.817 117.915  0.00  0.00    -0.090 HD
ATOM     20  H   LIG d   1       2.220  92.487 118.187  0.00  0.00    -0.090 HD
ATOM     21  H   LIG d   1       2.634  92.020 116.672  0.00  0.00    -0.090 HD
ENDBRANCH   5  18
BRANCH   3  22
ATOM     22  C   LIG d   1      -1.321  89.227 117.797  0.00  0.00     0.382 C 
ATOM     23  O   LIG d   1      -1.834  88.233 118.365  0.00  0.00    -0.241 OA
ATOM     24  O   LIG d   1      -2.052  90.163 117.420  0.00  0.00    -0.241 OA
ENDBRANCH   3  22
TORSDOF 7
ENDMDL
MODEL 7
REMARK VINA RESULT:      -3.8      2.318      4.581
REMARK  7 active torsions:
REMARK  status: ('A' for Active; 'I' for Inactive)
REMARK    1  A    between atoms: C_2  and  C_3 
REMARK    2  A    between atoms: C_3  and  O_6 
REMARK    3  A    between atoms: C_3  and  C_4 
REMARK    4  A    between atoms: C_7  and  O_6 
REMARK    5  A    between atoms: C_9  and  C_10 
REMARK    6  A    between atoms: N_15  and  C_14 
REMARK    7  A    between atoms: N_20  and  C_19 
REMARK       I    between atoms: C_22  and  N_20 
ROOT
ATOM      1  C   LIG d   1       4.770  88.498 115.500  0.00  0.00     0.161 C 
ATOM      2  C   LIG d   1       4.504  89.565 116.374  0.00  0.00     0.016 C 
ATOM      3  C   LIG d   1       3.229  89.815 116.932  0.00  0.00     0.038 C 
ATOM      4  C   LIG d   1       2.162  88.919 116.772  0.00  0.00     0.028 C 
ATOM      5  C   LIG d   1       2.246  88.098 115.490  0.00  0.00    -0.047 C 
ATOM      6  C   LIG d   1       3.645  87.446 115.403  0.00  0.00     0.091 C 
ENDROOT
BRANCH   1   7
ATOM      7  O   LIG d   1       6.015  87.868 115.863  0.00  0.00    -0.368 OA
BRANCH   7   8
ATOM      8  C   LIG d   1       6.275  87.741 117.283  0.00  0.00     0.119 C 
BRANCH   8   9
ATOM      9  C   LIG d   1       7.759  88.086 117.514  0.00  0.00     0.028 C 
ATOM     10  C   LIG d   1       7.962  89.551 117.933  0.00  0.00     0.006 C 
ENDBRANCH   8   9
BRANCH   8  11
ATOM     11  C   LIG d   1       6.117  86.292 117.751  0.00  0.00     0.028 C 
ATOM     12  C   LIG d   1       4.843  86.068 118.581  0.00  0.00     0.006 C 
ENDBRANCH   8  11
ENDBRANCH   7   8
ENDBRANCH   1   7
BRANCH   6  13
ATOM     13  N   LIG d   1       3.841  86.693 114.137  0.00  0.00    -0.311 N 
ATOM     14  C   LIG d   1       3.636  87.221 112.931  0.00  0.00     0.210 C 
ATOM     15  C   LIG d   1       3.878  86.265 111.758  0.00  0.00     0.109 C 
ATOM     16  O   LIG d   1       3.308  88.398 112.720  0.00  0.00    -0.276 OA
ATOM     17  H   LIG d   1       4.137  85.740 114.214  0.00  0.00     0.149 HD
ENDBRANCH   6  13
BRANCH   5  18
ATOM     18  N   LIG d   1       1.149  87.113 115.519  0.00  0.00     0.381 N 
ATOM     19  H   LIG d   1       0.613  87.227 116.356  0.00  0.00    -0.090 HD
ATOM     20  H   LIG d   1       1.543  86.188 115.520  0.00  0.00    -0.090 HD
ATOM     21  H   LIG d   1       0.564  87.231 114.722  0.00  0.00    -0.090 HD
ENDBRANCH   5  18
BRANCH   3  22
ATOM     22  C   LIG d   1       3.002  90.993 117.627  0.00  0.00     0.382 C 
ATOM     23  O   LIG d   1       2.386  90.968 118.720  0.00  0.00    -0.241 OA
ATOM     24  O   LIG d   1       3.367  92.086 117.154  0.00  0.00    -0.241 OA
ENDBRANCH   3  22
TORSDOF 7
ENDMDL
MODEL 8
REMARK VINA RESULT:      -3.8      2.603      4.236
REMARK  7 active torsions:
REMARK  status: ('A' for Active; 'I' for Inactive)
REMARK    1  A    between atoms: C_2  and  C_3 
REMARK    2  A    between atoms: C_3  and  O_6 
REMARK    3  A    between atoms: C_3  and  C_4 
REMARK    4  A    between atoms: C_7  and  O_6 
REMARK    5  A    between atoms: C_9  and  C_10 
REMARK    6  A    between atoms: N_15  and  C_14 
REMARK    7  A    between atoms: N_20  and  C_19 
REMARK       I    between atoms: C_22  and  N_20 
ROOT
ATOM      1  C   LIG d   1       2.089  89.044 116.968  0.00  0.00     0.161 C 
ATOM      2  C   LIG d   1       1.068  89.969 117.242  0.00  0.00     0.016 C 
ATOM      3  C   LIG d   1       1.313  91.317 117.592  0.00  0.00     0.038 C 
ATOM      4  C   LIG d   1       2.599  91.873 117.544  0.00  0.00     0.028 C 
ATOM      5  C   LIG d   1       3.710  90.852 117.763  0.00  0.00    -0.047 C 
ATOM      6  C   LIG d   1       3.493  89.661 116.801  0.00  0.00     0.091 C 
ENDROOT
BRANCH   1   7
ATOM      7  O   LIG d   1       1.743  88.265 115.805  0.00  0.00    -0.368 OA
BRANCH   7   8
ATOM      8  C   LIG d   1       1.307  86.906 116.055  0.00  0.00     0.119 C 
BRANCH   8   9
ATOM      9  C   LIG d   1       1.762  86.528 117.478  0.00  0.00     0.028 C 
ATOM     10  C   LIG d   1       0.668  85.790 118.267  0.00  0.00     0.006 C 
ENDBRANCH   8   9
BRANCH   8  11
ATOM     11  C   LIG d   1       2.012  85.914 115.126  0.00  0.00     0.028 C 
ATOM     12  C   LIG d   1       1.326  85.789 113.756  0.00  0.00     0.006 C 
ENDBRANCH   8  11
ENDBRANCH   7   8
ENDBRANCH   1   7
BRANCH   6  13
ATOM     13  N   LIG d   1       4.489  88.577 117.008  0.00  0.00    -0.311 N 
ATOM     14  C   LIG d   1       5.133  87.973 116.011  0.00  0.00     0.210 C 
ATOM     15  C   LIG d   1       6.102  86.868 116.443  0.00  0.00     0.109 C 
ATOM     16  O   LIG d   1       5.019  88.270 114.813  0.00  0.00    -0.276 OA
ATOM     17  H   LIG d   1       4.666  88.295 117.953  0.00  0.00     0.149 HD
ENDBRANCH   6  13
BRANCH   5  18
ATOM     18  N   LIG d   1       4.997  91.540 117.550  0.00  0.00     0.381 N 
ATOM     19  H   LIG d   1       5.678  90.889 117.213  0.00  0.00    -0.090 HD
ATOM     20  H   LIG d   1       5.319  91.907 118.428  0.00  0.00    -0.090 HD
ATOM     21  H   LIG d   1       4.883  92.281 116.894  0.00  0.00    -0.090 HD
ENDBRANCH   5  18
BRANCH   3  22
ATOM     22  C   LIG d   1       0.267  92.112 118.035  0.00  0.00     0.382 C 
ATOM     23  O   LIG d   1       0.260  93.340 117.776  0.00  0.00    -0.241 OA
ATOM     24  O   LIG d   1      -0.647  91.626 118.728  0.00  0.00    -0.241 OA
ENDBRANCH   3  22
TORSDOF 7
ENDMDL
MODEL 9
REMARK VINA RESULT:      -3.7      2.553      4.900
REMARK  7 active torsions:
REMARK  status: ('A' for Active; 'I' for Inactive)
REMARK    1  A    between atoms: C_2  and  C_3 
REMARK    2  A    between atoms: C_3  and  O_6 
REMARK    3  A    between atoms: C_3  and  C_4 
REMARK    4  A    between atoms: C_7  and  O_6 
REMARK    5  A    between atoms: C_9  and  C_10 
REMARK    6  A    between atoms: N_15  and  C_14 
REMARK    7  A    between atoms: N_20  and  C_19 
REMARK       I    between atoms: C_22  and  N_20 
ROOT
ATOM      1  C   LIG d   1       2.802  87.144 116.700  0.00  0.00     0.161 C 
ATOM      2  C   LIG d   1       1.716  88.034 116.758  0.00  0.00     0.016 C 
ATOM      3  C   LIG d   1       1.820  89.358 117.243  0.00  0.00     0.038 C 
ATOM      4  C   LIG d   1       3.057  89.935 117.565  0.00  0.00     0.028 C 
ATOM      5  C   LIG d   1       4.105  88.916 118.001  0.00  0.00    -0.047 C 
ATOM      6  C   LIG d   1       4.182  87.791 116.943  0.00  0.00     0.091 C 
ENDROOT
BRANCH   1   7
ATOM      7  O   LIG d   1       2.793  86.443 115.441  0.00  0.00    -0.368 OA
BRANCH   7   8
ATOM      8  C   LIG d   1       2.722  87.267 114.252  0.00  0.00     0.119 C 
BRANCH   8   9
ATOM      9  C   LIG d   1       1.670  86.641 113.316  0.00  0.00     0.028 C 
ATOM     10  C   LIG d   1       1.637  87.316 111.935  0.00  0.00     0.006 C 
ENDBRANCH   8   9
BRANCH   8  11
ATOM     11  C   LIG d   1       4.037  87.229 113.468  0.00  0.00     0.028 C 
ATOM     12  C   LIG d   1       4.758  88.585 113.448  0.00  0.00     0.006 C 
ENDBRANCH   8  11
ENDBRANCH   7   8
ENDBRANCH   1   7
BRANCH   6  13
ATOM     13  N   LIG d   1       5.123  86.710 117.333  0.00  0.00    -0.311 N 
ATOM     14  C   LIG d   1       6.379  86.637 116.894  0.00  0.00     0.210 C 
ATOM     15  C   LIG d   1       7.173  85.430 117.403  0.00  0.00     0.109 C 
ATOM     16  O   LIG d   1       6.920  87.475 116.157  0.00  0.00    -0.276 OA
ATOM     17  H   LIG d   1       4.776  86.005 117.954  0.00  0.00     0.149 HD
ENDBRANCH   6  13
BRANCH   5  18
ATOM     18  N   LIG d   1       5.382  89.636 118.173  0.00  0.00     0.381 N 
ATOM     19  H   LIG d   1       5.228  90.481 118.686  0.00  0.00    -0.090 HD
ATOM     20  H   LIG d   1       5.743  89.878 117.267  0.00  0.00    -0.090 HD
ATOM     21  H   LIG d   1       6.036  89.060 118.656  0.00  0.00    -0.090 HD
ENDBRANCH   5  18
BRANCH   3  22
ATOM     22  C   LIG d   1       0.671  90.107 117.448  0.00  0.00     0.382 C 
ATOM     23  O   LIG d   1      -0.441  89.665 117.068  0.00  0.00    -0.241 OA
ATOM     24  O   LIG d   1       0.738  91.237 117.967  0.00  0.00    -0.241 OA
ENDBRANCH   3  22
TORSDOF 7
ENDMDL
