MODEL 1
REMARK VINA RESULT:      -4.4      0.000      0.000
REMARK  7 active torsions:
REMARK  status: ('A' for Active; 'I' for Inactive)
REMARK    1  A    between atoms: C_2  and  C_3 
REMARK    2  A    between atoms: C_3  and  O_6 
REMARK    3  A    between atoms: C_3  and  C_4 
REMARK    4  A    between atoms: C_7  and  O_6 
REMARK    5  A    between atoms: C_9  and  C_10 
REMARK    6  A    between atoms: N_15  and  C_14 
REMARK    7  A    between atoms: N_20  and  C_19 
REMARK       I    between atoms: C_22  and  N_20 
ROOT
ATOM      1  C   LIG d   1       4.549  88.279 115.848  0.00  0.00     0.161 C 
ATOM      2  C   LIG d   1       4.292  89.389 116.671  0.00  0.00     0.016 C 
ATOM      3  C   LIG d   1       3.013  89.692 117.191  0.00  0.00     0.038 C 
ATOM      4  C   LIG d   1       1.927  88.817 117.045  0.00  0.00     0.028 C 
ATOM      5  C   LIG d   1       2.017  87.942 115.800  0.00  0.00    -0.047 C 
ATOM      6  C   LIG d   1       3.400  87.253 115.770  0.00  0.00     0.091 C 
ENDROOT
BRANCH   1   7
ATOM      7  O   LIG d   1       5.769  87.635 116.263  0.00  0.00    -0.368 OA
BRANCH   7   8
ATOM      8  C   LIG d   1       6.013  87.591 117.691  0.00  0.00     0.119 C 
BRANCH   8   9
ATOM      9  C   LIG d   1       7.490  87.965 117.920  0.00  0.00     0.028 C 
ATOM     10  C   LIG d   1       7.664  89.429 118.358  0.00  0.00     0.006 C 
ENDBRANCH   8   9
BRANCH   8  11
ATOM     11  C   LIG d   1       5.866  86.168 118.238  0.00  0.00     0.028 C 
ATOM     12  C   LIG d   1       4.514  85.932 118.930  0.00  0.00     0.006 C 
ENDBRANCH   8  11
ENDBRANCH   7   8
ENDBRANCH   1   7
BRANCH   6  13
ATOM     13  N   LIG d   1       3.603  86.443 114.540  0.00  0.00    -0.311 N 
ATOM     14  C   LIG d   1       3.413  86.917 113.310  0.00  0.00     0.210 C 
ATOM     15  C   LIG d   1       3.659  85.910 112.183  0.00  0.00     0.109 C 
ATOM     16  O   LIG d   1       3.094  88.086 113.044  0.00  0.00    -0.276 OA
ATOM     17  H   LIG d   1       3.892  85.492 114.662  0.00  0.00     0.149 HD
ENDBRANCH   6  13
BRANCH   5  18
ATOM     18  N   LIG d   1       0.895  86.985 115.845  0.00  0.00     0.381 N 
ATOM     19  H   LIG d   1       0.143  87.370 116.381  0.00  0.00    -0.090 HD
ATOM     20  H   LIG d   1       1.204  86.142 116.296  0.00  0.00    -0.090 HD
ATOM     21  H   LIG d   1       0.583  86.781 114.921  0.00  0.00    -0.090 HD
ENDBRANCH   5  18
BRANCH   3  22
ATOM     22  C   LIG d   1       2.802  90.904 117.832  0.00  0.00     0.382 C 
ATOM     23  O   LIG d   1       1.705  91.131 118.397  0.00  0.00    -0.241 OA
ATOM     24  O   LIG d   1       3.678  91.789 117.814  0.00  0.00    -0.241 OA
ENDBRANCH   3  22
TORSDOF 7
ENDMDL
MODEL 2
REMARK VINA RESULT:      -4.3      3.238      5.172
REMARK  7 active torsions:
REMARK  status: ('A' for Active; 'I' for Inactive)
REMARK    1  A    between atoms: C_2  and  C_3 
REMARK    2  A    between atoms: C_3  and  O_6 
REMARK    3  A    between atoms: C_3  and  C_4 
REMARK    4  A    between atoms: C_7  and  O_6 
REMARK    5  A    between atoms: C_9  and  C_10 
REMARK    6  A    between atoms: N_15  and  C_14 
REMARK    7  A    between atoms: N_20  and  C_19 
REMARK       I    between atoms: C_22  and  N_20 
ROOT
ATOM      1  C   LIG d   1       1.155  88.426 117.747  0.00  0.00     0.161 C 
ATOM      2  C   LIG d   1      -0.237  88.246 117.695  0.00  0.00     0.016 C 
ATOM      3  C   LIG d   1      -1.166  89.261 118.021  0.00  0.00     0.038 C 
ATOM      4  C   LIG d   1      -0.762  90.580 118.279  0.00  0.00     0.028 C 
ATOM      5  C   LIG d   1       0.654  90.683 118.835  0.00  0.00    -0.047 C 
ATOM      6  C   LIG d   1       1.612  89.890 117.918  0.00  0.00     0.091 C 
ENDROOT
BRANCH   1   7
ATOM      7  O   LIG d   1       1.767  87.843 116.579  0.00  0.00    -0.368 OA
BRANCH   7   8
ATOM      8  C   LIG d   1       2.729  86.788 116.823  0.00  0.00     0.119 C 
BRANCH   8   9
ATOM      9  C   LIG d   1       4.028  87.165 116.085  0.00  0.00     0.028 C 
ATOM     10  C   LIG d   1       3.853  88.400 115.185  0.00  0.00     0.006 C 
ENDBRANCH   8   9
BRANCH   8  11
ATOM     11  C   LIG d   1       2.276  85.465 116.197  0.00  0.00     0.028 C 
ATOM     12  C   LIG d   1       1.619  85.652 114.821  0.00  0.00     0.006 C 
ENDBRANCH   8  11
ENDBRANCH   7   8
ENDBRANCH   1   7
BRANCH   6  13
ATOM     13  N   LIG d   1       3.005  89.868 118.436  0.00  0.00    -0.311 N 
ATOM     14  C   LIG d   1       3.913  90.796 118.138  0.00  0.00     0.210 C 
ATOM     15  C   LIG d   1       5.294  90.574 118.762  0.00  0.00     0.109 C 
ATOM     16  O   LIG d   1       3.696  91.800 117.442  0.00  0.00    -0.276 OA
ATOM     17  H   LIG d   1       3.257  89.106 119.034  0.00  0.00     0.149 HD
ENDBRANCH   6  13
BRANCH   5  18
ATOM     18  N   LIG d   1       0.994  92.115 118.927  0.00  0.00     0.381 N 
ATOM     19  H   LIG d   1       1.802  92.308 118.369  0.00  0.00    -0.090 HD
ATOM     20  H   LIG d   1       1.210  92.338 119.882  0.00  0.00    -0.090 HD
ATOM     21  H   LIG d   1       0.226  92.669 118.615  0.00  0.00    -0.090 HD
ENDBRANCH   5  18
BRANCH   3  22
ATOM     22  C   LIG d   1      -2.513  88.951 118.132  0.00  0.00     0.382 C 
ATOM     23  O   LIG d   1      -2.887  88.058 118.930  0.00  0.00    -0.241 OA
ATOM     24  O   LIG d   1      -3.354  89.522 117.412  0.00  0.00    -0.241 OA
ENDBRANCH   3  22
TORSDOF 7
ENDMDL
MODEL 3
REMARK VINA RESULT:      -4.0      1.538      2.382
REMARK  7 active torsions:
REMARK  status: ('A' for Active; 'I' for Inactive)
REMARK    1  A    between atoms: C_2  and  C_3 
REMARK    2  A    between atoms: C_3  and  O_6 
REMARK    3  A    between atoms: C_3  and  C_4 
REMARK    4  A    between atoms: C_7  and  O_6 
REMARK    5  A    between atoms: C_9  and  C_10 
REMARK    6  A    between atoms: N_15  and  C_14 
REMARK    7  A    between atoms: N_20  and  C_19 
REMARK       I    between atoms: C_22  and  N_20 
ROOT
ATOM      1  C   LIG d   1       3.372  89.171 117.308  0.00  0.00     0.161 C 
ATOM      2  C   LIG d   1       2.810  90.332 117.864  0.00  0.00     0.016 C 
ATOM      3  C   LIG d   1       1.417  90.558 117.953  0.00  0.00     0.038 C 
ATOM      4  C   LIG d   1       0.483  89.564 117.625  0.00  0.00     0.028 C 
ATOM      5  C   LIG d   1       0.995  88.569 116.588  0.00  0.00    -0.047 C 
ATOM      6  C   LIG d   1       2.369  88.028 117.047  0.00  0.00     0.091 C 
ENDROOT
BRANCH   1   7
ATOM      7  O   LIG d   1       4.456  88.707 118.136  0.00  0.00    -0.368 OA
BRANCH   7   8
ATOM      8  C   LIG d   1       5.792  88.933 117.625  0.00  0.00     0.119 C 
BRANCH   8   9
ATOM      9  C   LIG d   1       6.587  87.626 117.810  0.00  0.00     0.028 C 
ATOM     10  C   LIG d   1       6.524  86.720 116.569  0.00  0.00     0.006 C 
ENDBRANCH   8   9
BRANCH   8  11
ATOM     11  C   LIG d   1       6.537  89.982 118.456  0.00  0.00     0.028 C 
ATOM     12  C   LIG d   1       8.057  89.951 118.231  0.00  0.00     0.006 C 
ENDBRANCH   8  11
ENDBRANCH   7   8
ENDBRANCH   1   7
BRANCH   6  13
ATOM     13  N   LIG d   1       2.979  87.113 116.048  0.00  0.00    -0.311 N 
ATOM     14  C   LIG d   1       3.195  87.452 114.779  0.00  0.00     0.210 C 
ATOM     15  C   LIG d   1       3.817  86.352 113.912  0.00  0.00     0.109 C 
ATOM     16  O   LIG d   1       2.962  88.570 114.295  0.00  0.00    -0.276 OA
ATOM     17  H   LIG d   1       3.229  86.195 116.363  0.00  0.00     0.149 HD
ENDBRANCH   6  13
BRANCH   5  18
ATOM     18  N   LIG d   1      -0.024  87.512 116.443  0.00  0.00     0.381 N 
ATOM     19  H   LIG d   1       0.027  87.117 115.526  0.00  0.00    -0.090 HD
ATOM     20  H   LIG d   1      -0.934  87.921 116.561  0.00  0.00    -0.090 HD
ATOM     21  H   LIG d   1       0.121  86.803 117.128  0.00  0.00    -0.090 HD
ENDBRANCH   5  18
BRANCH   3  22
ATOM     22  C   LIG d   1       0.946  91.804 118.336  0.00  0.00     0.382 C 
ATOM     23  O   LIG d   1      -0.243  92.125 118.097  0.00  0.00    -0.241 OA
ATOM     24  O   LIG d   1       1.707  92.628 118.877  0.00  0.00    -0.241 OA
ENDBRANCH   3  22
TORSDOF 7
ENDMDL
MODEL 4
REMARK VINA RESULT:      -3.9      2.475      4.684
REMARK  7 active torsions:
REMARK  status: ('A' for Active; 'I' for Inactive)
REMARK    1  A    between atoms: C_2  and  C_3 
REMARK    2  A    between atoms: C_3  and  O_6 
REMARK    3  A    between atoms: C_3  and  C_4 
REMARK    4  A    between atoms: C_7  and  O_6 
REMARK    5  A    between atoms: C_9  and  C_10 
REMARK    6  A    between atoms: N_15  and  C_14 
REMARK    7  A    between atoms: N_20  and  C_19 
REMARK       I    between atoms: C_22  and  N_20 
ROOT
ATOM      1  C   LIG d   1       4.406  87.483 117.604  0.00  0.00     0.161 C 
ATOM      2  C   LIG d   1       3.342  88.393 117.487  0.00  0.00     0.016 C 
ATOM      3  C   LIG d   1       3.488  89.787 117.667  0.00  0.00     0.038 C 
ATOM      4  C   LIG d   1       4.746  90.387 117.829  0.00  0.00     0.028 C 
ATOM      5  C   LIG d   1       5.782  89.460 118.456  0.00  0.00    -0.047 C 
ATOM      6  C   LIG d   1       5.806  88.129 117.670  0.00  0.00     0.091 C 
ENDROOT
BRANCH   1   7
ATOM      7  O   LIG d   1       4.348  86.523 116.530  0.00  0.00    -0.368 OA
BRANCH   7   8
ATOM      8  C   LIG d   1       3.753  86.985 115.293  0.00  0.00     0.119 C 
BRANCH   8   9
ATOM      9  C   LIG d   1       2.947  85.813 114.700  0.00  0.00     0.028 C 
ATOM     10  C   LIG d   1       1.485  85.805 115.177  0.00  0.00     0.006 C 
ENDBRANCH   8   9
BRANCH   8  11
ATOM     11  C   LIG d   1       4.823  87.311 114.248  0.00  0.00     0.028 C 
ATOM     12  C   LIG d   1       4.686  88.732 113.677  0.00  0.00     0.006 C 
ENDBRANCH   8  11
ENDBRANCH   7   8
ENDBRANCH   1   7
BRANCH   6  13
ATOM     13  N   LIG d   1       6.733  87.134 118.269  0.00  0.00    -0.311 N 
ATOM     14  C   LIG d   1       7.596  86.414 117.554  0.00  0.00     0.210 C 
ATOM     15  C   LIG d   1       8.445  85.431 118.366  0.00  0.00     0.109 C 
ATOM     16  O   LIG d   1       7.762  86.520 116.330  0.00  0.00    -0.276 OA
ATOM     17  H   LIG d   1       6.687  87.006 119.261  0.00  0.00     0.149 HD
ENDBRANCH   6  13
BRANCH   5  18
ATOM     18  N   LIG d   1       7.078  90.164 118.439  0.00  0.00     0.381 N 
ATOM     19  H   LIG d   1       7.294  90.498 119.357  0.00  0.00    -0.090 HD
ATOM     20  H   LIG d   1       7.010  90.955 117.823  0.00  0.00    -0.090 HD
ATOM     21  H   LIG d   1       7.796  89.550 118.124  0.00  0.00    -0.090 HD
ENDBRANCH   5  18
BRANCH   3  22
ATOM     22  C   LIG d   1       2.362  90.594 117.727  0.00  0.00     0.382 C 
ATOM     23  O   LIG d   1       2.477  91.812 118.004  0.00  0.00    -0.241 OA
ATOM     24  O   LIG d   1       1.228  90.110 117.550  0.00  0.00    -0.241 OA
ENDBRANCH   3  22
TORSDOF 7
ENDMDL
MODEL 5
REMARK VINA RESULT:      -3.8      2.342      4.866
REMARK  7 active torsions:
REMARK  status: ('A' for Active; 'I' for Inactive)
REMARK    1  A    between atoms: C_2  and  C_3 
REMARK    2  A    between atoms: C_3  and  O_6 
REMARK    3  A    between atoms: C_3  and  C_4 
REMARK    4  A    between atoms: C_7  and  O_6 
REMARK    5  A    between atoms: C_9  and  C_10 
REMARK    6  A    between atoms: N_15  and  C_14 
REMARK    7  A    between atoms: N_20  and  C_19 
REMARK       I    between atoms: C_22  and  N_20 
ROOT
ATOM      1  C   LIG d   1       3.556  87.088 116.770  0.00  0.00     0.161 C 
ATOM      2  C   LIG d   1       2.209  87.421 116.551  0.00  0.00     0.016 C 
ATOM      3  C   LIG d   1       1.600  88.587 117.072  0.00  0.00     0.038 C 
ATOM      4  C   LIG d   1       2.343  89.581 117.726  0.00  0.00     0.028 C 
ATOM      5  C   LIG d   1       3.599  89.049 118.407  0.00  0.00    -0.047 C 
ATOM      6  C   LIG d   1       4.409  88.216 117.387  0.00  0.00     0.091 C 
ENDROOT
BRANCH   1   7
ATOM      7  O   LIG d   1       4.150  86.625 115.541  0.00  0.00    -0.368 OA
BRANCH   7   8
ATOM      8  C   LIG d   1       3.350  86.788 114.345  0.00  0.00     0.119 C 
BRANCH   8   9
ATOM      9  C   LIG d   1       3.526  85.516 113.493  0.00  0.00     0.028 C 
ATOM     10  C   LIG d   1       3.262  85.768 111.999  0.00  0.00     0.006 C 
ENDBRANCH   8   9
BRANCH   8  11
ATOM     11  C   LIG d   1       3.876  87.934 113.475  0.00  0.00     0.028 C 
ATOM     12  C   LIG d   1       5.373  88.206 113.688  0.00  0.00     0.006 C 
ENDBRANCH   8  11
ENDBRANCH   7   8
ENDBRANCH   1   7
BRANCH   6  13
ATOM     13  N   LIG d   1       5.611  87.589 117.995  0.00  0.00    -0.311 N 
ATOM     14  C   LIG d   1       6.786  88.207 118.100  0.00  0.00     0.210 C 
ATOM     15  C   LIG d   1       7.900  87.373 118.741  0.00  0.00     0.109 C 
ATOM     16  O   LIG d   1       7.003  89.378 117.753  0.00  0.00    -0.276 OA
ATOM     17  H   LIG d   1       5.516  86.651 118.331  0.00  0.00     0.149 HD
ENDBRANCH   6  13
BRANCH   5  18
ATOM     18  N   LIG d   1       4.347  90.208 118.930  0.00  0.00     0.381 N 
ATOM     19  H   LIG d   1       5.319  90.111 118.712  0.00  0.00    -0.090 HD
ATOM     20  H   LIG d   1       4.249  90.234 119.930  0.00  0.00    -0.090 HD
ATOM     21  H   LIG d   1       3.993  91.050 118.532  0.00  0.00    -0.090 HD
ENDBRANCH   5  18
BRANCH   3  22
ATOM     22  C   LIG d   1       0.227  88.747 116.975  0.00  0.00     0.382 C 
ATOM     23  O   LIG d   1      -0.256  89.875 116.715  0.00  0.00    -0.241 OA
ATOM     24  O   LIG d   1      -0.538  87.787 117.188  0.00  0.00    -0.241 OA
ENDBRANCH   3  22
TORSDOF 7
ENDMDL
MODEL 6
REMARK VINA RESULT:      -3.5      2.049      3.037
REMARK  7 active torsions:
REMARK  status: ('A' for Active; 'I' for Inactive)
REMARK    1  A    between atoms: C_2  and  C_3 
REMARK    2  A    between atoms: C_3  and  O_6 
REMARK    3  A    between atoms: C_3  and  C_4 
REMARK    4  A    between atoms: C_7  and  O_6 
REMARK    5  A    between atoms: C_9  and  C_10 
REMARK    6  A    between atoms: N_15  and  C_14 
REMARK    7  A    between atoms: N_20  and  C_19 
REMARK       I    between atoms: C_22  and  N_20 
ROOT
ATOM      1  C   LIG d   1       3.104  88.239 117.364  0.00  0.00     0.161 C 
ATOM      2  C   LIG d   1       1.905  88.534 118.034  0.00  0.00     0.016 C 
ATOM      3  C   LIG d   1       0.656  87.977 117.677  0.00  0.00     0.038 C 
ATOM      4  C   LIG d   1       0.545  86.963 116.714  0.00  0.00     0.028 C 
ATOM      5  C   LIG d   1       1.652  86.999 115.665  0.00  0.00    -0.047 C 
ATOM      6  C   LIG d   1       3.020  87.051 116.382  0.00  0.00     0.091 C 
ENDROOT
BRANCH   1   7
ATOM      7  O   LIG d   1       4.159  88.024 118.321  0.00  0.00    -0.368 OA
BRANCH   7   8
ATOM      8  C   LIG d   1       5.128  89.093 118.452  0.00  0.00     0.119 C 
BRANCH   8   9
ATOM      9  C   LIG d   1       4.596  90.301 117.657  0.00  0.00     0.028 C 
ATOM     10  C   LIG d   1       4.349  91.529 118.549  0.00  0.00     0.006 C 
ENDBRANCH   8   9
BRANCH   8  11
ATOM     11  C   LIG d   1       6.458  88.725 117.788  0.00  0.00     0.028 C 
ATOM     12  C   LIG d   1       7.624  89.611 118.257  0.00  0.00     0.006 C 
ENDBRANCH   8  11
ENDBRANCH   7   8
ENDBRANCH   1   7
BRANCH   6  13
ATOM     13  N   LIG d   1       4.155  87.173 115.430  0.00  0.00    -0.311 N 
ATOM     14  C   LIG d   1       4.300  88.197 114.591  0.00  0.00     0.210 C 
ATOM     15  C   LIG d   1       5.529  88.117 113.680  0.00  0.00     0.109 C 
ATOM     16  O   LIG d   1       3.545  89.179 114.536  0.00  0.00    -0.276 OA
ATOM     17  H   LIG d   1       4.831  86.435 115.430  0.00  0.00     0.149 HD
ENDBRANCH   6  13
BRANCH   5  18
ATOM     18  N   LIG d   1       1.492  85.810 114.808  0.00  0.00     0.381 N 
ATOM     19  H   LIG d   1       2.385  85.390 114.643  0.00  0.00    -0.090 HD
ATOM     20  H   LIG d   1       1.109  86.095 113.924  0.00  0.00    -0.090 HD
ATOM     21  H   LIG d   1       0.884  85.153 115.245  0.00  0.00    -0.090 HD
ENDBRANCH   5  18
BRANCH   3  22
ATOM     22  C   LIG d   1      -0.505  88.463 118.259  0.00  0.00     0.382 C 
ATOM     23  O   LIG d   1      -1.385  87.665 118.663  0.00  0.00    -0.241 OA
ATOM     24  O   LIG d   1      -0.703  89.690 118.344  0.00  0.00    -0.241 OA
ENDBRANCH   3  22
TORSDOF 7
ENDMDL
MODEL 7
REMARK VINA RESULT:      -3.5      2.666      3.900
REMARK  7 active torsions:
REMARK  status: ('A' for Active; 'I' for Inactive)
REMARK    1  A    between atoms: C_2  and  C_3 
REMARK    2  A    between atoms: C_3  and  O_6 
REMARK    3  A    between atoms: C_3  and  C_4 
REMARK    4  A    between atoms: C_7  and  O_6 
REMARK    5  A    between atoms: C_9  and  C_10 
REMARK    6  A    between atoms: N_15  and  C_14 
REMARK    7  A    between atoms: N_20  and  C_19 
REMARK       I    between atoms: C_22  and  N_20 
ROOT
ATOM      1  C   LIG d   1       1.460  89.711 117.621  0.00  0.00     0.161 C 
ATOM      2  C   LIG d   1       1.209  90.985 118.155  0.00  0.00     0.016 C 
ATOM      3  C   LIG d   1      -0.092  91.501 118.361  0.00  0.00     0.038 C 
ATOM      4  C   LIG d   1      -1.238  90.711 118.186  0.00  0.00     0.028 C 
ATOM      5  C   LIG d   1      -1.052  89.590 117.170  0.00  0.00    -0.047 C 
ATOM      6  C   LIG d   1       0.223  88.793 117.529  0.00  0.00     0.091 C 
ENDROOT
BRANCH   1   7
ATOM      7  O   LIG d   1       2.508  89.065 118.371  0.00  0.00    -0.368 OA
BRANCH   7   8
ATOM      8  C   LIG d   1       3.744  88.820 117.657  0.00  0.00     0.119 C 
BRANCH   8   9
ATOM      9  C   LIG d   1       4.834  89.695 118.305  0.00  0.00     0.028 C 
ATOM     10  C   LIG d   1       6.233  89.408 117.735  0.00  0.00     0.006 C 
ENDBRANCH   8   9
BRANCH   8  11
ATOM     11  C   LIG d   1       3.652  89.295 116.204  0.00  0.00     0.028 C 
ATOM     12  C   LIG d   1       3.939  88.175 115.191  0.00  0.00     0.006 C 
ENDBRANCH   8  11
ENDBRANCH   7   8
ENDBRANCH   1   7
BRANCH   6  13
ATOM     13  N   LIG d   1       0.525  87.730 116.536  0.00  0.00    -0.311 N 
ATOM     14  C   LIG d   1       0.939  86.509 116.872  0.00  0.00     0.210 C 
ATOM     15  C   LIG d   1       1.213  85.571 115.692  0.00  0.00     0.109 C 
ATOM     16  O   LIG d   1       1.075  86.104 118.036  0.00  0.00    -0.276 OA
ATOM     17  H   LIG d   1       0.412  87.963 115.569  0.00  0.00     0.149 HD
ENDBRANCH   6  13
BRANCH   5  18
ATOM     18  N   LIG d   1      -2.275  88.765 117.188  0.00  0.00     0.381 N 
ATOM     19  H   LIG d   1      -2.878  89.035 116.437  0.00  0.00    -0.090 HD
ATOM     20  H   LIG d   1      -2.759  88.921 118.054  0.00  0.00    -0.090 HD
ATOM     21  H   LIG d   1      -2.037  87.801 117.101  0.00  0.00    -0.090 HD
ENDBRANCH   5  18
BRANCH   3  22
ATOM     22  C   LIG d   1      -0.256  92.833 118.709  0.00  0.00     0.382 C 
ATOM     23  O   LIG d   1      -1.407  93.330 118.759  0.00  0.00    -0.241 OA
ATOM     24  O   LIG d   1       0.735  93.555 118.929  0.00  0.00    -0.241 OA
ENDBRANCH   3  22
TORSDOF 7
ENDMDL
MODEL 8
REMARK VINA RESULT:      -3.1      8.364     10.314
REMARK  7 active torsions:
REMARK  status: ('A' for Active; 'I' for Inactive)
REMARK    1  A    between atoms: C_2  and  C_3 
REMARK    2  A    between atoms: C_3  and  O_6 
REMARK    3  A    between atoms: C_3  and  C_4 
REMARK    4  A    between atoms: C_7  and  O_6 
REMARK    5  A    between atoms: C_9  and  C_10 
REMARK    6  A    between atoms: N_15  and  C_14 
REMARK    7  A    between atoms: N_20  and  C_19 
REMARK       I    between atoms: C_22  and  N_20 
ROOT
ATOM      1  C   LIG d   1      -5.187  92.174 117.900  0.00  0.00     0.161 C 
ATOM      2  C   LIG d   1      -5.637  93.346 118.530  0.00  0.00     0.016 C 
ATOM      3  C   LIG d   1      -6.833  94.011 118.173  0.00  0.00     0.038 C 
ATOM      4  C   LIG d   1      -7.742  93.461 117.257  0.00  0.00     0.028 C 
ATOM      5  C   LIG d   1      -7.088  92.541 116.232  0.00  0.00    -0.047 C 
ATOM      6  C   LIG d   1      -6.221  91.499 116.975  0.00  0.00     0.091 C 
ENDROOT
BRANCH   1   7
ATOM      7  O   LIG d   1      -4.713  91.239 118.889  0.00  0.00    -0.368 OA
BRANCH   7   8
ATOM      8  C   LIG d   1      -3.297  90.937 118.855  0.00  0.00     0.119 C 
BRANCH   8   9
ATOM      9  C   LIG d   1      -2.592  92.105 118.138  0.00  0.00     0.028 C 
ATOM     10  C   LIG d   1      -1.173  92.354 118.677  0.00  0.00     0.006 C 
ENDBRANCH   8   9
BRANCH   8  11
ATOM     11  C   LIG d   1      -3.011  89.702 117.995  0.00  0.00     0.028 C 
ATOM     12  C   LIG d   1      -2.063  88.705 118.681  0.00  0.00     0.006 C 
ENDBRANCH   8  11
ENDBRANCH   7   8
ENDBRANCH   1   7
BRANCH   6  13
ATOM     13  N   LIG d   1      -5.479  90.611 116.042  0.00  0.00    -0.311 N 
ATOM     14  C   LIG d   1      -6.071  89.710 115.261  0.00  0.00     0.210 C 
ATOM     15  C   LIG d   1      -5.118  88.884 114.390  0.00  0.00     0.109 C 
ATOM     16  O   LIG d   1      -7.296  89.538 115.182  0.00  0.00    -0.276 OA
ATOM     17  H   LIG d   1      -4.482  90.705 116.019  0.00  0.00     0.149 HD
ENDBRANCH   6  13
BRANCH   5  18
ATOM     18  N   LIG d   1      -8.164  91.931 115.429  0.00  0.00     0.381 N 
ATOM     19  H   LIG d   1      -8.656  92.642 114.926  0.00  0.00    -0.090 HD
ATOM     20  H   LIG d   1      -8.813  91.476 116.047  0.00  0.00    -0.090 HD
ATOM     21  H   LIG d   1      -7.781  91.268 114.792  0.00  0.00    -0.090 HD
ENDBRANCH   5  18
BRANCH   3  22
ATOM     22  C   LIG d   1      -7.109  95.261 118.706  0.00  0.00     0.382 C 
ATOM     23  O   LIG d   1      -8.296  95.598 118.930  0.00  0.00    -0.241 OA
ATOM     24  O   LIG d   1      -6.189  96.072 118.924  0.00  0.00    -0.241 OA
ENDBRANCH   3  22
TORSDOF 7
ENDMDL
MODEL 9
REMARK VINA RESULT:      -3.1      7.528     10.242
REMARK  7 active torsions:
REMARK  status: ('A' for Active; 'I' for Inactive)
REMARK    1  A    between atoms: C_2  and  C_3 
REMARK    2  A    between atoms: C_3  and  O_6 
REMARK    3  A    between atoms: C_3  and  C_4 
REMARK    4  A    between atoms: C_7  and  O_6 
REMARK    5  A    between atoms: C_9  and  C_10 
REMARK    6  A    between atoms: N_15  and  C_14 
REMARK    7  A    between atoms: N_20  and  C_19 
REMARK       I    between atoms: C_22  and  N_20 
ROOT
ATOM      1  C   LIG d   1      -5.003  90.882 117.473  0.00  0.00     0.161 C 
ATOM      2  C   LIG d   1      -3.801  90.475 118.075  0.00  0.00     0.016 C 
ATOM      3  C   LIG d   1      -2.966  89.467 117.540  0.00  0.00     0.038 C 
ATOM      4  C   LIG d   1      -3.202  88.901 116.278  0.00  0.00     0.028 C 
ATOM      5  C   LIG d   1      -4.671  88.919 115.872  0.00  0.00    -0.047 C 
ATOM      6  C   LIG d   1      -5.221  90.354 116.040  0.00  0.00     0.091 C 
ENDROOT
BRANCH   1   7
ATOM      7  O   LIG d   1      -5.099  92.320 117.497  0.00  0.00    -0.368 OA
BRANCH   7   8
ATOM      8  C   LIG d   1      -5.251  92.928 118.803  0.00  0.00     0.119 C 
BRANCH   8   9
ATOM      9  C   LIG d   1      -6.715  93.392 118.930  0.00  0.00     0.028 C 
ATOM     10  C   LIG d   1      -7.307  93.840 117.583  0.00  0.00     0.006 C 
ENDBRANCH   8   9
BRANCH   8  11
ATOM     11  C   LIG d   1      -4.409  94.201 118.928  0.00  0.00     0.028 C 
ATOM     12  C   LIG d   1      -2.914  93.954 118.672  0.00  0.00     0.006 C 
ENDBRANCH   8  11
ENDBRANCH   7   8
ENDBRANCH   1   7
BRANCH   6  13
ATOM     13  N   LIG d   1      -6.674  90.443 115.743  0.00  0.00    -0.311 N 
ATOM     14  C   LIG d   1      -7.203  91.359 114.934  0.00  0.00     0.210 C 
ATOM     15  C   LIG d   1      -8.726  91.286 114.782  0.00  0.00     0.109 C 
ATOM     16  O   LIG d   1      -6.552  92.205 114.302  0.00  0.00    -0.276 OA
ATOM     17  H   LIG d   1      -7.273  89.775 116.189  0.00  0.00     0.149 HD
ENDBRANCH   6  13
BRANCH   5  18
ATOM     18  N   LIG d   1      -4.756  88.426 114.484  0.00  0.00     0.381 N 
ATOM     19  H   LIG d   1      -3.838  88.358 114.092  0.00  0.00    -0.090 HD
ATOM     20  H   LIG d   1      -5.285  89.083 113.937  0.00  0.00    -0.090 HD
ATOM     21  H   LIG d   1      -5.200  87.534 114.465  0.00  0.00    -0.090 HD
ENDBRANCH   5  18
BRANCH   3  22
ATOM     22  C   LIG d   1      -1.901  88.988 118.288  0.00  0.00     0.382 C 
ATOM     23  O   LIG d   1      -1.873  87.784 118.639  0.00  0.00    -0.241 OA
ATOM     24  O   LIG d   1      -0.991  89.755 118.654  0.00  0.00    -0.241 OA
ENDBRANCH   3  22
TORSDOF 7
ENDMDL
