MODEL 1
REMARK VINA RESULT:      -4.2      0.000      0.000
REMARK  7 active torsions:
REMARK  status: ('A' for Active; 'I' for Inactive)
REMARK    1  A    between atoms: C_2  and  C_3 
REMARK    2  A    between atoms: C_3  and  O_6 
REMARK    3  A    between atoms: C_3  and  C_4 
REMARK    4  A    between atoms: C_7  and  O_6 
REMARK    5  A    between atoms: C_9  and  C_10 
REMARK    6  A    between atoms: N_15  and  C_14 
REMARK    7  A    between atoms: N_20  and  C_19 
REMARK       I    between atoms: C_22  and  N_20 
ROOT
ATOM      1  C   LIG d   1       3.016  87.625 116.001  0.00  0.00     0.161 C 
ATOM      2  C   LIG d   1       3.567  88.280 117.116  0.00  0.00     0.016 C 
ATOM      3  C   LIG d   1       4.432  89.394 117.015  0.00  0.00     0.038 C 
ATOM      4  C   LIG d   1       4.688  90.026 115.789  0.00  0.00     0.028 C 
ATOM      5  C   LIG d   1       4.558  89.094 114.589  0.00  0.00    -0.047 C 
ATOM      6  C   LIG d   1       3.195  88.369 114.661  0.00  0.00     0.091 C 
ENDROOT
BRANCH   1   7
ATOM      7  O   LIG d   1       1.622  87.346 116.237  0.00  0.00    -0.368 OA
BRANCH   7   8
ATOM      8  C   LIG d   1       1.155  87.537 117.596  0.00  0.00     0.119 C 
BRANCH   8   9
ATOM      9  C   LIG d   1       0.653  86.173 118.108  0.00  0.00     0.028 C 
ATOM     10  C   LIG d   1      -0.709  86.278 118.815  0.00  0.00     0.006 C 
ENDBRANCH   8   9
BRANCH   8  11
ATOM     11  C   LIG d   1      -0.064  88.462 117.641  0.00  0.00     0.028 C 
ATOM     12  C   LIG d   1       0.317  89.946 117.753  0.00  0.00     0.006 C 
ENDBRANCH   8  11
ENDBRANCH   7   8
ENDBRANCH   1   7
BRANCH   6  13
ATOM     13  N   LIG d   1       3.023  87.376 113.569  0.00  0.00    -0.311 N 
ATOM     14  C   LIG d   1       2.410  87.650 112.419  0.00  0.00     0.210 C 
ATOM     15  C   LIG d   1       2.323  86.477 111.437  0.00  0.00     0.109 C 
ATOM     16  O   LIG d   1       1.959  88.761 112.105  0.00  0.00    -0.276 OA
ATOM     17  H   LIG d   1       3.387  86.456 113.727  0.00  0.00     0.149 HD
ENDBRANCH   6  13
BRANCH   5  18
ATOM     18  N   LIG d   1       4.714  89.912 113.371  0.00  0.00     0.381 N 
ATOM     19  H   LIG d   1       4.064  89.608 112.673  0.00  0.00    -0.090 HD
ATOM     20  H   LIG d   1       5.644  89.785 113.011  0.00  0.00    -0.090 HD
ATOM     21  H   LIG d   1       4.560  90.873 113.583  0.00  0.00    -0.090 HD
ENDBRANCH   5  18
BRANCH   3  22
ATOM     22  C   LIG d   1       5.084  89.861 118.146  0.00  0.00     0.382 C 
ATOM     23  O   LIG d   1       6.090  89.254 118.586  0.00  0.00    -0.241 OA
ATOM     24  O   LIG d   1       4.654  90.858 118.757  0.00  0.00    -0.241 OA
ENDBRANCH   3  22
TORSDOF 7
ENDMDL
MODEL 2
REMARK VINA RESULT:      -4.0      2.395      4.929
REMARK  7 active torsions:
REMARK  status: ('A' for Active; 'I' for Inactive)
REMARK    1  A    between atoms: C_2  and  C_3 
REMARK    2  A    between atoms: C_3  and  O_6 
REMARK    3  A    between atoms: C_3  and  C_4 
REMARK    4  A    between atoms: C_7  and  O_6 
REMARK    5  A    between atoms: C_9  and  C_10 
REMARK    6  A    between atoms: N_15  and  C_14 
REMARK    7  A    between atoms: N_20  and  C_19 
REMARK       I    between atoms: C_22  and  N_20 
ROOT
ATOM      1  C   LIG d   1       2.942  88.235 115.938  0.00  0.00     0.161 C 
ATOM      2  C   LIG d   1       3.726  88.606 114.834  0.00  0.00     0.016 C 
ATOM      3  C   LIG d   1       3.630  87.984 113.567  0.00  0.00     0.038 C 
ATOM      4  C   LIG d   1       2.631  87.044 113.277  0.00  0.00     0.028 C 
ATOM      5  C   LIG d   1       2.146  86.277 114.502  0.00  0.00    -0.047 C 
ATOM      6  C   LIG d   1       1.769  87.287 115.610  0.00  0.00     0.091 C 
ENDROOT
BRANCH   1   7
ATOM      7  O   LIG d   1       2.460  89.414 116.613  0.00  0.00    -0.368 OA
BRANCH   7   8
ATOM      8  C   LIG d   1       3.462  90.226 117.272  0.00  0.00     0.119 C 
BRANCH   8   9
ATOM      9  C   LIG d   1       4.032  89.400 118.442  0.00  0.00     0.028 C 
ATOM     10  C   LIG d   1       5.566  89.306 118.402  0.00  0.00     0.006 C 
ENDBRANCH   8   9
BRANCH   8  11
ATOM     11  C   LIG d   1       2.838  91.466 117.918  0.00  0.00     0.028 C 
ATOM     12  C   LIG d   1       3.829  92.634 118.046  0.00  0.00     0.006 C 
ENDBRANCH   8  11
ENDBRANCH   7   8
ENDBRANCH   1   7
BRANCH   6  13
ATOM     13  N   LIG d   1       1.364  86.618 116.874  0.00  0.00    -0.311 N 
ATOM     14  C   LIG d   1       0.157  86.753 117.420  0.00  0.00     0.210 C 
ATOM     15  C   LIG d   1      -0.046  85.993 118.735  0.00  0.00     0.109 C 
ATOM     16  O   LIG d   1      -0.776  87.403 116.924  0.00  0.00    -0.276 OA
ATOM     17  H   LIG d   1       2.049  86.046 117.327  0.00  0.00     0.149 HD
ENDBRANCH   6  13
BRANCH   5  18
ATOM     18  N   LIG d   1       1.012  85.433 114.080  0.00  0.00     0.381 N 
ATOM     19  H   LIG d   1       1.012  85.339 113.084  0.00  0.00    -0.090 HD
ATOM     20  H   LIG d   1       0.155  85.878 114.355  0.00  0.00    -0.090 HD
ATOM     21  H   LIG d   1       1.079  84.534 114.505  0.00  0.00    -0.090 HD
ENDBRANCH   5  18
BRANCH   3  22
ATOM     22  C   LIG d   1       4.568  88.273 112.587  0.00  0.00     0.382 C 
ATOM     23  O   LIG d   1       5.257  89.318 112.668  0.00  0.00    -0.241 OA
ATOM     24  O   LIG d   1       4.701  87.524 111.601  0.00  0.00    -0.241 OA
ENDBRANCH   3  22
TORSDOF 7
ENDMDL
MODEL 3
REMARK VINA RESULT:      -3.8      5.540      7.626
REMARK  7 active torsions:
REMARK  status: ('A' for Active; 'I' for Inactive)
REMARK    1  A    between atoms: C_2  and  C_3 
REMARK    2  A    between atoms: C_3  and  O_6 
REMARK    3  A    between atoms: C_3  and  C_4 
REMARK    4  A    between atoms: C_7  and  O_6 
REMARK    5  A    between atoms: C_9  and  C_10 
REMARK    6  A    between atoms: N_15  and  C_14 
REMARK    7  A    between atoms: N_20  and  C_19 
REMARK       I    between atoms: C_22  and  N_20 
ROOT
ATOM      1  C   LIG d   1      -3.425  90.335 118.574  0.00  0.00     0.161 C 
ATOM      2  C   LIG d   1      -3.665  91.719 118.562  0.00  0.00     0.016 C 
ATOM      3  C   LIG d   1      -2.636  92.686 118.474  0.00  0.00     0.038 C 
ATOM      4  C   LIG d   1      -1.301  92.328 118.239  0.00  0.00     0.028 C 
ATOM      5  C   LIG d   1      -0.948  90.935 118.749  0.00  0.00    -0.047 C 
ATOM      6  C   LIG d   1      -1.984  89.924 118.207  0.00  0.00     0.091 C 
ENDROOT
BRANCH   1   7
ATOM      7  O   LIG d   1      -4.371  89.668 117.715  0.00  0.00    -0.368 OA
BRANCH   7   8
ATOM      8  C   LIG d   1      -5.139  90.520 116.830  0.00  0.00     0.119 C 
BRANCH   8   9
ATOM      9  C   LIG d   1      -6.509  90.761 117.494  0.00  0.00     0.028 C 
ATOM     10  C   LIG d   1      -6.925  92.242 117.461  0.00  0.00     0.006 C 
ENDBRANCH   8   9
BRANCH   8  11
ATOM     11  C   LIG d   1      -5.449  89.815 115.507  0.00  0.00     0.028 C 
ATOM     12  C   LIG d   1      -6.955  89.739 115.210  0.00  0.00     0.006 C 
ENDBRANCH   8  11
ENDBRANCH   7   8
ENDBRANCH   1   7
BRANCH   6  13
ATOM     13  N   LIG d   1      -1.762  88.550 118.727  0.00  0.00    -0.311 N 
ATOM     14  C   LIG d   1      -1.040  87.632 118.086  0.00  0.00     0.210 C 
ATOM     15  C   LIG d   1      -0.953  86.273 118.787  0.00  0.00     0.109 C 
ATOM     16  O   LIG d   1      -0.437  87.824 117.020  0.00  0.00    -0.276 OA
ATOM     17  H   LIG d   1      -2.189  88.318 119.602  0.00  0.00     0.149 HD
ENDBRANCH   6  13
BRANCH   5  18
ATOM     18  N   LIG d   1       0.431  90.638 118.317  0.00  0.00     0.381 N 
ATOM     19  H   LIG d   1       0.808  91.422 117.824  0.00  0.00    -0.090 HD
ATOM     20  H   LIG d   1       0.413  89.851 117.691  0.00  0.00    -0.090 HD
ATOM     21  H   LIG d   1       0.999  90.429 119.108  0.00  0.00    -0.090 HD
ENDBRANCH   5  18
BRANCH   3  22
ATOM     22  C   LIG d   1      -2.936  94.026 118.662  0.00  0.00     0.382 C 
ATOM     23  O   LIG d   1      -2.024  94.886 118.608  0.00  0.00    -0.241 OA
ATOM     24  O   LIG d   1      -4.099  94.383 118.930  0.00  0.00    -0.241 OA
ENDBRANCH   3  22
TORSDOF 7
ENDMDL
MODEL 4
REMARK VINA RESULT:      -3.8      2.799      5.612
REMARK  7 active torsions:
REMARK  status: ('A' for Active; 'I' for Inactive)
REMARK    1  A    between atoms: C_2  and  C_3 
REMARK    2  A    between atoms: C_3  and  O_6 
REMARK    3  A    between atoms: C_3  and  C_4 
REMARK    4  A    between atoms: C_7  and  O_6 
REMARK    5  A    between atoms: C_9  and  C_10 
REMARK    6  A    between atoms: N_15  and  C_14 
REMARK    7  A    between atoms: N_20  and  C_19 
REMARK       I    between atoms: C_22  and  N_20 
ROOT
ATOM      1  C   LIG d   1       1.248  87.623 117.918  0.00  0.00     0.161 C 
ATOM      2  C   LIG d   1      -0.132  87.373 117.839  0.00  0.00     0.016 C 
ATOM      3  C   LIG d   1      -1.105  88.395 117.753  0.00  0.00     0.038 C 
ATOM      4  C   LIG d   1      -0.751  89.743 117.587  0.00  0.00     0.028 C 
ATOM      5  C   LIG d   1       0.616  90.086 118.168  0.00  0.00    -0.047 C 
ATOM      6  C   LIG d   1       1.659  89.081 117.626  0.00  0.00     0.091 C 
ENDROOT
BRANCH   1   7
ATOM      7  O   LIG d   1       1.959  86.719 117.049  0.00  0.00    -0.368 OA
BRANCH   7   8
ATOM      8  C   LIG d   1       1.787  86.934 115.627  0.00  0.00     0.119 C 
BRANCH   8   9
ATOM      9  C   LIG d   1       1.315  85.602 115.011  0.00  0.00     0.028 C 
ATOM     10  C   LIG d   1       0.547  85.804 113.694  0.00  0.00     0.006 C 
ENDBRANCH   8   9
BRANCH   8  11
ATOM     11  C   LIG d   1       3.122  87.246 114.945  0.00  0.00     0.028 C 
ATOM     12  C   LIG d   1       4.335  86.839 115.795  0.00  0.00     0.006 C 
ENDBRANCH   8  11
ENDBRANCH   7   8
ENDBRANCH   1   7
BRANCH   6  13
ATOM     13  N   LIG d   1       3.008  89.294 118.211  0.00  0.00    -0.311 N 
ATOM     14  C   LIG d   1       3.947  90.042 117.634  0.00  0.00     0.210 C 
ATOM     15  C   LIG d   1       5.275  90.113 118.395  0.00  0.00     0.109 C 
ATOM     16  O   LIG d   1       3.796  90.680 116.582  0.00  0.00    -0.276 OA
ATOM     17  H   LIG d   1       3.206  88.838 119.080  0.00  0.00     0.149 HD
ENDBRANCH   6  13
BRANCH   5  18
ATOM     18  N   LIG d   1       0.917  91.484 117.804  0.00  0.00     0.381 N 
ATOM     19  H   LIG d   1       0.493  92.104 118.465  0.00  0.00    -0.090 HD
ATOM     20  H   LIG d   1       0.528  91.674 116.898  0.00  0.00    -0.090 HD
ATOM     21  H   LIG d   1       1.903  91.627 117.788  0.00  0.00    -0.090 HD
ENDBRANCH   5  18
BRANCH   3  22
ATOM     22  C   LIG d   1      -2.449  88.077 117.873  0.00  0.00     0.382 C 
ATOM     23  O   LIG d   1      -2.831  87.305 118.785  0.00  0.00    -0.241 OA
ATOM     24  O   LIG d   1      -3.278  88.517 117.054  0.00  0.00    -0.241 OA
ENDBRANCH   3  22
TORSDOF 7
ENDMDL
MODEL 5
REMARK VINA RESULT:      -3.7      2.353      4.569
REMARK  7 active torsions:
REMARK  status: ('A' for Active; 'I' for Inactive)
REMARK    1  A    between atoms: C_2  and  C_3 
REMARK    2  A    between atoms: C_3  and  O_6 
REMARK    3  A    between atoms: C_3  and  C_4 
REMARK    4  A    between atoms: C_7  and  O_6 
REMARK    5  A    between atoms: C_9  and  C_10 
REMARK    6  A    between atoms: N_15  and  C_14 
REMARK    7  A    between atoms: N_20  and  C_19 
REMARK       I    between atoms: C_22  and  N_20 
ROOT
ATOM      1  C   LIG d   1       4.680  89.245 115.514  0.00  0.00     0.161 C 
ATOM      2  C   LIG d   1       4.397  90.306 116.390  0.00  0.00     0.016 C 
ATOM      3  C   LIG d   1       3.250  90.347 117.216  0.00  0.00     0.038 C 
ATOM      4  C   LIG d   1       2.381  89.253 117.334  0.00  0.00     0.028 C 
ATOM      5  C   LIG d   1       2.352  88.366 116.093  0.00  0.00    -0.047 C 
ATOM      6  C   LIG d   1       3.802  87.991 115.710  0.00  0.00     0.091 C 
ENDROOT
BRANCH   1   7
ATOM      7  O   LIG d   1       6.076  88.897 115.603  0.00  0.00    -0.368 OA
BRANCH   7   8
ATOM      8  C   LIG d   1       6.508  88.310 116.856  0.00  0.00     0.119 C 
BRANCH   8   9
ATOM      9  C   LIG d   1       7.527  89.275 117.492  0.00  0.00     0.028 C 
ATOM     10  C   LIG d   1       8.761  88.544 118.047  0.00  0.00     0.006 C 
ENDBRANCH   8   9
BRANCH   8  11
ATOM     11  C   LIG d   1       7.275  87.005 116.624  0.00  0.00     0.028 C 
ATOM     12  C   LIG d   1       6.447  85.758 116.971  0.00  0.00     0.006 C 
ENDBRANCH   8  11
ENDBRANCH   7   8
ENDBRANCH   1   7
BRANCH   6  13
ATOM     13  N   LIG d   1       3.869  87.194 114.458  0.00  0.00    -0.311 N 
ATOM     14  C   LIG d   1       3.422  87.635 113.283  0.00  0.00     0.210 C 
ATOM     15  C   LIG d   1       3.569  86.646 112.123  0.00  0.00     0.109 C 
ATOM     16  O   LIG d   1       2.948  88.764 113.085  0.00  0.00    -0.276 OA
ATOM     17  H   LIG d   1       4.268  86.278 114.521  0.00  0.00     0.149 HD
ENDBRANCH   6  13
BRANCH   5  18
ATOM     18  N   LIG d   1       1.514  87.192 116.404  0.00  0.00     0.381 N 
ATOM     19  H   LIG d   1       1.736  86.443 115.780  0.00  0.00    -0.090 HD
ATOM     20  H   LIG d   1       0.549  87.438 116.271  0.00  0.00    -0.090 HD
ATOM     21  H   LIG d   1       1.665  86.906 117.346  0.00  0.00    -0.090 HD
ENDBRANCH   5  18
BRANCH   3  22
ATOM     22  C   LIG d   1       2.942  91.510 117.906  0.00  0.00     0.382 C 
ATOM     23  O   LIG d   1       1.960  91.535 118.686  0.00  0.00    -0.241 OA
ATOM     24  O   LIG d   1       3.608  92.547 117.725  0.00  0.00    -0.241 OA
ENDBRANCH   3  22
TORSDOF 7
ENDMDL
MODEL 6
REMARK VINA RESULT:      -3.4      6.579      9.146
REMARK  7 active torsions:
REMARK  status: ('A' for Active; 'I' for Inactive)
REMARK    1  A    between atoms: C_2  and  C_3 
REMARK    2  A    between atoms: C_3  and  O_6 
REMARK    3  A    between atoms: C_3  and  C_4 
REMARK    4  A    between atoms: C_7  and  O_6 
REMARK    5  A    between atoms: C_9  and  C_10 
REMARK    6  A    between atoms: N_15  and  C_14 
REMARK    7  A    between atoms: N_20  and  C_19 
REMARK       I    between atoms: C_22  and  N_20 
ROOT
ATOM      1  C   LIG d   1      -4.230  91.785 118.521  0.00  0.00     0.161 C 
ATOM      2  C   LIG d   1      -3.517  90.577 118.600  0.00  0.00     0.016 C 
ATOM      3  C   LIG d   1      -3.572  89.575 117.605  0.00  0.00     0.038 C 
ATOM      4  C   LIG d   1      -4.230  89.778 116.382  0.00  0.00     0.028 C 
ATOM      5  C   LIG d   1      -5.377  90.778 116.472  0.00  0.00    -0.047 C 
ATOM      6  C   LIG d   1      -4.864  92.072 117.144  0.00  0.00     0.091 C 
ENDROOT
BRANCH   1   7
ATOM      7  O   LIG d   1      -3.381  92.880 118.919  0.00  0.00    -0.368 OA
BRANCH   7   8
ATOM      8  C   LIG d   1      -2.136  93.018 118.193  0.00  0.00     0.119 C 
BRANCH   8   9
ATOM      9  C   LIG d   1      -1.110  92.074 118.849  0.00  0.00     0.028 C 
ATOM     10  C   LIG d   1       0.294  92.698 118.930  0.00  0.00     0.006 C 
ENDBRANCH   8   9
BRANCH   8  11
ATOM     11  C   LIG d   1      -1.551  94.425 118.351  0.00  0.00     0.028 C 
ATOM     12  C   LIG d   1      -2.575  95.439 118.887  0.00  0.00     0.006 C 
ENDBRANCH   8  11
ENDBRANCH   7   8
ENDBRANCH   1   7
BRANCH   6  13
ATOM     13  N   LIG d   1      -5.945  93.073 117.346  0.00  0.00    -0.311 N 
ATOM     14  C   LIG d   1      -7.212  92.744 117.589  0.00  0.00     0.210 C 
ATOM     15  C   LIG d   1      -8.169  93.929 117.747  0.00  0.00     0.109 C 
ATOM     16  O   LIG d   1      -7.629  91.583 117.720  0.00  0.00    -0.276 OA
ATOM     17  H   LIG d   1      -5.689  94.039 117.287  0.00  0.00     0.149 HD
ENDBRANCH   6  13
BRANCH   5  18
ATOM     18  N   LIG d   1      -5.884  90.999 115.104  0.00  0.00     0.381 N 
ATOM     19  H   LIG d   1      -5.122  91.213 114.491  0.00  0.00    -0.090 HD
ATOM     20  H   LIG d   1      -6.512  91.783 115.112  0.00  0.00    -0.090 HD
ATOM     21  H   LIG d   1      -6.360  90.186 114.781  0.00  0.00    -0.090 HD
ENDBRANCH   5  18
BRANCH   3  22
ATOM     22  C   LIG d   1      -2.997  88.336 117.845  0.00  0.00     0.382 C 
ATOM     23  O   LIG d   1      -3.223  87.738 118.924  0.00  0.00    -0.241 OA
ATOM     24  O   LIG d   1      -2.220  87.828 117.014  0.00  0.00    -0.241 OA
ENDBRANCH   3  22
TORSDOF 7
ENDMDL
MODEL 7
REMARK VINA RESULT:      -3.2      5.726      8.435
REMARK  7 active torsions:
REMARK  status: ('A' for Active; 'I' for Inactive)
REMARK    1  A    between atoms: C_2  and  C_3 
REMARK    2  A    between atoms: C_3  and  O_6 
REMARK    3  A    between atoms: C_3  and  C_4 
REMARK    4  A    between atoms: C_7  and  O_6 
REMARK    5  A    between atoms: C_9  and  C_10 
REMARK    6  A    between atoms: N_15  and  C_14 
REMARK    7  A    between atoms: N_20  and  C_19 
REMARK       I    between atoms: C_22  and  N_20 
ROOT
ATOM      1  C   LIG d   1      -3.258  91.363 118.562  0.00  0.00     0.161 C 
ATOM      2  C   LIG d   1      -2.366  90.281 118.491  0.00  0.00     0.016 C 
ATOM      3  C   LIG d   1      -2.563  89.164 117.647  0.00  0.00     0.038 C 
ATOM      4  C   LIG d   1      -3.595  89.124 116.698  0.00  0.00     0.028 C 
ATOM      5  C   LIG d   1      -4.807  89.966 117.086  0.00  0.00    -0.047 C 
ATOM      6  C   LIG d   1      -4.332  91.390 117.454  0.00  0.00     0.091 C 
ENDROOT
BRANCH   1   7
ATOM      7  O   LIG d   1      -2.522  92.603 118.577  0.00  0.00    -0.368 OA
BRANCH   7   8
ATOM      8  C   LIG d   1      -1.104  92.498 118.852  0.00  0.00     0.119 C 
BRANCH   8   9
ATOM      9  C   LIG d   1      -0.541  93.931 118.930  0.00  0.00     0.028 C 
ATOM     10  C   LIG d   1      -1.566  94.989 118.490  0.00  0.00     0.006 C 
ENDBRANCH   8   9
BRANCH   8  11
ATOM     11  C   LIG d   1      -0.358  91.833 117.691  0.00  0.00     0.028 C 
ATOM     12  C   LIG d   1       0.921  91.109 118.141  0.00  0.00     0.006 C 
ENDBRANCH   8  11
ENDBRANCH   7   8
ENDBRANCH   1   7
BRANCH   6  13
ATOM     13  N   LIG d   1      -5.444  92.254 117.927  0.00  0.00    -0.311 N 
ATOM     14  C   LIG d   1      -6.261  92.913 117.106  0.00  0.00     0.210 C 
ATOM     15  C   LIG d   1      -7.329  93.763 117.801  0.00  0.00     0.109 C 
ATOM     16  O   LIG d   1      -6.222  92.848 115.868  0.00  0.00    -0.276 OA
ATOM     17  H   LIG d   1      -5.567  92.339 118.917  0.00  0.00     0.149 HD
ENDBRANCH   6  13
BRANCH   5  18
ATOM     18  N   LIG d   1      -5.746  89.945 115.950  0.00  0.00     0.381 N 
ATOM     19  H   LIG d   1      -5.273  89.634 115.125  0.00  0.00    -0.090 HD
ATOM     20  H   LIG d   1      -6.082  90.878 115.788  0.00  0.00    -0.090 HD
ATOM     21  H   LIG d   1      -6.511  89.339 116.151  0.00  0.00    -0.090 HD
ENDBRANCH   5  18
BRANCH   3  22
ATOM     22  C   LIG d   1      -1.743  88.052 117.775  0.00  0.00     0.382 C 
ATOM     23  O   LIG d   1      -1.993  87.187 118.648  0.00  0.00    -0.241 OA
ATOM     24  O   LIG d   1      -0.732  87.927 117.058  0.00  0.00    -0.241 OA
ENDBRANCH   3  22
TORSDOF 7
ENDMDL
MODEL 8
REMARK VINA RESULT:      -3.1      2.809      5.660
REMARK  7 active torsions:
REMARK  status: ('A' for Active; 'I' for Inactive)
REMARK    1  A    between atoms: C_2  and  C_3 
REMARK    2  A    between atoms: C_3  and  O_6 
REMARK    3  A    between atoms: C_3  and  C_4 
REMARK    4  A    between atoms: C_7  and  O_6 
REMARK    5  A    between atoms: C_9  and  C_10 
REMARK    6  A    between atoms: N_15  and  C_14 
REMARK    7  A    between atoms: N_20  and  C_19 
REMARK       I    between atoms: C_22  and  N_20 
ROOT
ATOM      1  C   LIG d   1       1.299  89.129 117.552  0.00  0.00     0.161 C 
ATOM      2  C   LIG d   1       0.005  89.665 117.659  0.00  0.00     0.016 C 
ATOM      3  C   LIG d   1      -1.141  88.883 117.931  0.00  0.00     0.038 C 
ATOM      4  C   LIG d   1      -1.050  87.524 118.266  0.00  0.00     0.028 C 
ATOM      5  C   LIG d   1       0.177  86.837 117.675  0.00  0.00    -0.047 C 
ATOM      6  C   LIG d   1       1.434  87.666 118.024  0.00  0.00     0.091 C 
ENDROOT
BRANCH   1   7
ATOM      7  O   LIG d   1       2.236  89.970 118.253  0.00  0.00    -0.368 OA
BRANCH   7   8
ATOM      8  C   LIG d   1       2.957  90.932 117.446  0.00  0.00     0.119 C 
BRANCH   8   9
ATOM      9  C   LIG d   1       4.397  90.409 117.277  0.00  0.00     0.028 C 
ATOM     10  C   LIG d   1       4.705  89.995 115.828  0.00  0.00     0.006 C 
ENDBRANCH   8   9
BRANCH   8  11
ATOM     11  C   LIG d   1       3.096  92.275 118.169  0.00  0.00     0.028 C 
ATOM     12  C   LIG d   1       4.542  92.796 118.186  0.00  0.00     0.006 C 
ENDBRANCH   8  11
ENDBRANCH   7   8
ENDBRANCH   1   7
BRANCH   6  13
ATOM     13  N   LIG d   1       2.668  87.108 117.413  0.00  0.00    -0.311 N 
ATOM     14  C   LIG d   1       2.820  86.926 116.102  0.00  0.00     0.210 C 
ATOM     15  C   LIG d   1       4.163  86.320 115.685  0.00  0.00     0.109 C 
ATOM     16  O   LIG d   1       1.982  87.239 115.243  0.00  0.00    -0.276 OA
ATOM     17  H   LIG d   1       3.411  86.856 118.035  0.00  0.00     0.149 HD
ENDBRANCH   6  13
BRANCH   5  18
ATOM     18  N   LIG d   1       0.221  85.464 118.215  0.00  0.00     0.381 N 
ATOM     19  H   LIG d   1       0.128  85.489 119.211  0.00  0.00    -0.090 HD
ATOM     20  H   LIG d   1       1.112  85.056 117.992  0.00  0.00    -0.090 HD
ATOM     21  H   LIG d   1      -0.512  84.918 117.819  0.00  0.00    -0.090 HD
ENDBRANCH   5  18
BRANCH   3  22
ATOM     22  C   LIG d   1      -2.402  89.453 117.830  0.00  0.00     0.382 C 
ATOM     23  O   LIG d   1      -2.559  90.674 118.075  0.00  0.00    -0.241 OA
ATOM     24  O   LIG d   1      -3.390  88.753 117.540  0.00  0.00    -0.241 OA
ENDBRANCH   3  22
TORSDOF 7
ENDMDL
MODEL 9
REMARK VINA RESULT:      -3.1      1.310      1.933
REMARK  7 active torsions:
REMARK  status: ('A' for Active; 'I' for Inactive)
REMARK    1  A    between atoms: C_2  and  C_3 
REMARK    2  A    between atoms: C_3  and  O_6 
REMARK    3  A    between atoms: C_3  and  C_4 
REMARK    4  A    between atoms: C_7  and  O_6 
REMARK    5  A    between atoms: C_9  and  C_10 
REMARK    6  A    between atoms: N_15  and  C_14 
REMARK    7  A    between atoms: N_20  and  C_19 
REMARK       I    between atoms: C_22  and  N_20 
ROOT
ATOM      1  C   LIG d   1       2.591  88.701 116.777  0.00  0.00     0.161 C 
ATOM      2  C   LIG d   1       3.301  89.700 117.463  0.00  0.00     0.016 C 
ATOM      3  C   LIG d   1       4.472  90.309 116.958  0.00  0.00     0.038 C 
ATOM      4  C   LIG d   1       4.931  90.067 115.655  0.00  0.00     0.028 C 
ATOM      5  C   LIG d   1       4.536  88.695 115.119  0.00  0.00    -0.047 C 
ATOM      6  C   LIG d   1       3.013  88.503 115.306  0.00  0.00     0.091 C 
ENDROOT
BRANCH   1   7
ATOM      7  O   LIG d   1       1.176  88.961 116.861  0.00  0.00    -0.368 OA
BRANCH   7   8
ATOM      8  C   LIG d   1       0.402  88.026 117.651  0.00  0.00     0.119 C 
BRANCH   8   9
ATOM      9  C   LIG d   1      -0.185  88.803 118.845  0.00  0.00     0.028 C 
ATOM     10  C   LIG d   1      -1.355  89.714 118.435  0.00  0.00     0.006 C 
ENDBRANCH   8   9
BRANCH   8  11
ATOM     11  C   LIG d   1       1.295  86.946 118.270  0.00  0.00     0.028 C 
ATOM     12  C   LIG d   1       0.664  85.546 118.211  0.00  0.00     0.006 C 
ENDBRANCH   8  11
ENDBRANCH   7   8
ENDBRANCH   1   7
BRANCH   6  13
ATOM     13  N   LIG d   1       2.556  87.153 114.885  0.00  0.00    -0.311 N 
ATOM     14  C   LIG d   1       2.097  86.882 113.664  0.00  0.00     0.210 C 
ATOM     15  C   LIG d   1       1.659  85.430 113.446  0.00  0.00     0.109 C 
ATOM     16  O   LIG d   1       2.040  87.698 112.733  0.00  0.00    -0.276 OA
ATOM     17  H   LIG d   1       2.598  86.423 115.569  0.00  0.00     0.149 HD
ENDBRANCH   6  13
BRANCH   5  18
ATOM     18  N   LIG d   1       4.958  88.629 113.707  0.00  0.00     0.381 N 
ATOM     19  H   LIG d   1       4.305  88.081 113.183  0.00  0.00    -0.090 HD
ATOM     20  H   LIG d   1       5.856  88.182 113.657  0.00  0.00    -0.090 HD
ATOM     21  H   LIG d   1       5.014  89.547 113.325  0.00  0.00    -0.090 HD
ENDBRANCH   5  18
BRANCH   3  22
ATOM     22  C   LIG d   1       5.220  91.143 117.775  0.00  0.00     0.382 C 
ATOM     23  O   LIG d   1       6.217  90.691 118.388  0.00  0.00    -0.241 OA
ATOM     24  O   LIG d   1       4.885  92.331 117.941  0.00  0.00    -0.241 OA
ENDBRANCH   3  22
TORSDOF 7
ENDMDL
