MODEL 1
REMARK VINA RESULT:      -5.4      0.000      0.000
REMARK  7 active torsions:
REMARK  status: ('A' for Active; 'I' for Inactive)
REMARK    1  A    between atoms: C_2  and  C_3 
REMARK    2  A    between atoms: C_3  and  O_6 
REMARK    3  A    between atoms: C_3  and  C_4 
REMARK    4  A    between atoms: C_7  and  O_6 
REMARK    5  A    between atoms: C_9  and  C_10 
REMARK    6  A    between atoms: N_15  and  C_14 
REMARK    7  A    between atoms: N_20  and  C_19 
REMARK       I    between atoms: C_22  and  N_20 
ROOT
ATOM      1  C   LIG d   1      -6.512  91.306 117.713  0.00  0.00     0.161 C 
ATOM      2  C   LIG d   1      -7.300  92.446 117.483  0.00  0.00     0.016 C 
ATOM      3  C   LIG d   1      -6.788  93.764 117.510  0.00  0.00     0.038 C 
ATOM      4  C   LIG d   1      -5.414  94.023 117.621  0.00  0.00     0.028 C 
ATOM      5  C   LIG d   1      -4.648  92.930 118.359  0.00  0.00    -0.047 C 
ATOM      6  C   LIG d   1      -4.991  91.562 117.725  0.00  0.00     0.091 C 
ENDROOT
BRANCH   1   7
ATOM      7  O   LIG d   1      -6.840  90.283 116.751  0.00  0.00    -0.368 OA
BRANCH   7   8
ATOM      8  C   LIG d   1      -7.566  90.723 115.576  0.00  0.00     0.119 C 
BRANCH   8   9
ATOM      9  C   LIG d   1      -8.301  89.496 115.001  0.00  0.00     0.028 C 
ATOM     10  C   LIG d   1      -9.020  88.680 116.088  0.00  0.00     0.006 C 
ENDBRANCH   8   9
BRANCH   8  11
ATOM     11  C   LIG d   1      -6.611  91.179 114.469  0.00  0.00     0.028 C 
ATOM     12  C   LIG d   1      -7.102  92.442 113.743  0.00  0.00     0.006 C 
ENDBRANCH   8  11
ENDBRANCH   7   8
ENDBRANCH   1   7
BRANCH   6  13
ATOM     13  N   LIG d   1      -4.349  90.429 118.441  0.00  0.00    -0.311 N 
ATOM     14  C   LIG d   1      -3.196  89.881 118.063  0.00  0.00     0.210 C 
ATOM     15  C   LIG d   1      -2.721  88.710 118.929  0.00  0.00     0.109 C 
ATOM     16  O   LIG d   1      -2.504  90.275 117.111  0.00  0.00    -0.276 OA
ATOM     17  H   LIG d   1      -4.827  90.068 119.244  0.00  0.00     0.149 HD
ENDBRANCH   6  13
BRANCH   5  18
ATOM     18  N   LIG d   1      -3.213  93.261 118.281  0.00  0.00     0.381 N 
ATOM     19  H   LIG d   1      -2.799  93.188 119.189  0.00  0.00    -0.090 HD
ATOM     20  H   LIG d   1      -3.115  94.209 117.964  0.00  0.00    -0.090 HD
ATOM     21  H   LIG d   1      -2.754  92.642 117.649  0.00  0.00    -0.090 HD
ENDBRANCH   5  18
BRANCH   3  22
ATOM     22  C   LIG d   1      -7.660  94.841 117.466  0.00  0.00     0.382 C 
ATOM     23  O   LIG d   1      -8.892  94.657 117.617  0.00  0.00    -0.241 OA
ATOM     24  O   LIG d   1      -7.235  95.988 117.233  0.00  0.00    -0.241 OA
ENDBRANCH   3  22
TORSDOF 7
ENDMDL
MODEL 2
REMARK VINA RESULT:      -5.2      8.549     10.934
REMARK  7 active torsions:
REMARK  status: ('A' for Active; 'I' for Inactive)
REMARK    1  A    between atoms: C_2  and  C_3 
REMARK    2  A    between atoms: C_3  and  O_6 
REMARK    3  A    between atoms: C_3  and  C_4 
REMARK    4  A    between atoms: C_7  and  O_6 
REMARK    5  A    between atoms: C_9  and  C_10 
REMARK    6  A    between atoms: N_15  and  C_14 
REMARK    7  A    between atoms: N_20  and  C_19 
REMARK       I    between atoms: C_22  and  N_20 
ROOT
ATOM      1  C   LIG d   1       3.135  88.818 115.181  0.00  0.00     0.161 C 
ATOM      2  C   LIG d   1       2.386  88.106 114.230  0.00  0.00     0.016 C 
ATOM      3  C   LIG d   1       2.807  87.914 112.893  0.00  0.00     0.038 C 
ATOM      4  C   LIG d   1       4.084  88.294 112.457  0.00  0.00     0.028 C 
ATOM      5  C   LIG d   1       4.671  89.461 113.243  0.00  0.00    -0.047 C 
ATOM      6  C   LIG d   1       4.581  89.144 114.753  0.00  0.00     0.091 C 
ENDROOT
BRANCH   1   7
ATOM      7  O   LIG d   1       3.132  88.108 116.436  0.00  0.00    -0.368 OA
BRANCH   7   8
ATOM      8  C   LIG d   1       2.471  88.772 117.542  0.00  0.00     0.119 C 
BRANCH   8   9
ATOM      9  C   LIG d   1       1.300  87.875 117.987  0.00  0.00     0.028 C 
ATOM     10  C   LIG d   1      -0.051  88.355 117.430  0.00  0.00     0.006 C 
ENDBRANCH   8   9
BRANCH   8  11
ATOM     11  C   LIG d   1       1.827  90.089 117.097  0.00  0.00     0.028 C 
ATOM     12  C   LIG d   1       2.389  91.309 117.844  0.00  0.00     0.006 C 
ENDBRANCH   8  11
ENDBRANCH   7   8
ENDBRANCH   1   7
BRANCH   6  13
ATOM     13  N   LIG d   1       5.057  90.270 115.598  0.00  0.00    -0.311 N 
ATOM     14  C   LIG d   1       5.846  90.109 116.659  0.00  0.00     0.210 C 
ATOM     15  C   LIG d   1       6.203  91.400 117.403  0.00  0.00     0.109 C 
ATOM     16  O   LIG d   1       6.311  89.022 117.036  0.00  0.00    -0.276 OA
ATOM     17  H   LIG d   1       4.753  91.190 115.346  0.00  0.00     0.149 HD
ENDBRANCH   6  13
BRANCH   5  18
ATOM     18  N   LIG d   1       6.056  89.662 112.776  0.00  0.00     0.381 N 
ATOM     19  H   LIG d   1       6.448  90.471 113.216  0.00  0.00    -0.090 HD
ATOM     20  H   LIG d   1       6.045  89.818 111.783  0.00  0.00    -0.090 HD
ATOM     21  H   LIG d   1       6.607  88.860 112.988  0.00  0.00    -0.090 HD
ENDBRANCH   5  18
BRANCH   3  22
ATOM     22  C   LIG d   1       1.929  87.371 111.968  0.00  0.00     0.382 C 
ATOM     23  O   LIG d   1       0.855  87.962 111.699  0.00  0.00    -0.241 OA
ATOM     24  O   LIG d   1       2.175  86.274 111.431  0.00  0.00    -0.241 OA
ENDBRANCH   3  22
TORSDOF 7
ENDMDL
MODEL 3
REMARK VINA RESULT:      -5.0      2.538      6.102
REMARK  7 active torsions:
REMARK  status: ('A' for Active; 'I' for Inactive)
REMARK    1  A    between atoms: C_2  and  C_3 
REMARK    2  A    between atoms: C_3  and  O_6 
REMARK    3  A    between atoms: C_3  and  C_4 
REMARK    4  A    between atoms: C_7  and  O_6 
REMARK    5  A    between atoms: C_9  and  C_10 
REMARK    6  A    between atoms: N_15  and  C_14 
REMARK    7  A    between atoms: N_20  and  C_19 
REMARK       I    between atoms: C_22  and  N_20 
ROOT
ATOM      1  C   LIG d   1      -5.007  92.680 117.148  0.00  0.00     0.161 C 
ATOM      2  C   LIG d   1      -5.184  91.447 116.498  0.00  0.00     0.016 C 
ATOM      3  C   LIG d   1      -6.345  91.116 115.761  0.00  0.00     0.038 C 
ATOM      4  C   LIG d   1      -7.349  92.059 115.496  0.00  0.00     0.028 C 
ATOM      5  C   LIG d   1      -7.447  93.153 116.553  0.00  0.00    -0.047 C 
ATOM      6  C   LIG d   1      -6.044  93.761 116.777  0.00  0.00     0.091 C 
ENDROOT
BRANCH   1   7
ATOM      7  O   LIG d   1      -3.670  93.167 116.916  0.00  0.00    -0.368 OA
BRANCH   7   8
ATOM      8  C   LIG d   1      -2.784  93.166 118.062  0.00  0.00     0.119 C 
BRANCH   8   9
ATOM      9  C   LIG d   1      -2.410  94.631 118.359  0.00  0.00     0.028 C 
ATOM     10  C   LIG d   1      -0.915  94.801 118.677  0.00  0.00     0.006 C 
ENDBRANCH   8   9
BRANCH   8  11
ATOM     11  C   LIG d   1      -1.460  92.466 117.742  0.00  0.00     0.028 C 
ATOM     12  C   LIG d   1      -1.611  90.943 117.598  0.00  0.00     0.006 C 
ENDBRANCH   8  11
ENDBRANCH   7   8
ENDBRANCH   1   7
BRANCH   6  13
ATOM     13  N   LIG d   1      -6.034  94.782 117.858  0.00  0.00    -0.311 N 
ATOM     14  C   LIG d   1      -6.469  96.030 117.691  0.00  0.00     0.210 C 
ATOM     15  C   LIG d   1      -6.352  96.926 118.928  0.00  0.00     0.109 C 
ATOM     16  O   LIG d   1      -6.971  96.470 116.646  0.00  0.00    -0.276 OA
ATOM     17  H   LIG d   1      -5.672  94.501 118.748  0.00  0.00     0.149 HD
ENDBRANCH   6  13
BRANCH   5  18
ATOM     18  N   LIG d   1      -8.437  94.140 116.083  0.00  0.00     0.381 N 
ATOM     19  H   LIG d   1      -8.616  94.002 115.109  0.00  0.00    -0.090 HD
ATOM     20  H   LIG d   1      -8.059  95.063 116.207  0.00  0.00    -0.090 HD
ATOM     21  H   LIG d   1      -9.283  94.047 116.600  0.00  0.00    -0.090 HD
ENDBRANCH   5  18
BRANCH   3  22
ATOM     22  C   LIG d   1      -6.527  89.816 115.313  0.00  0.00     0.382 C 
ATOM     23  O   LIG d   1      -5.696  89.302 114.527  0.00  0.00    -0.241 OA
ATOM     24  O   LIG d   1      -7.535  89.167 115.651  0.00  0.00    -0.241 OA
ENDBRANCH   3  22
TORSDOF 7
ENDMDL
MODEL 4
REMARK VINA RESULT:      -5.0      2.192      5.201
REMARK  7 active torsions:
REMARK  status: ('A' for Active; 'I' for Inactive)
REMARK    1  A    between atoms: C_2  and  C_3 
REMARK    2  A    between atoms: C_3  and  O_6 
REMARK    3  A    between atoms: C_3  and  C_4 
REMARK    4  A    between atoms: C_7  and  O_6 
REMARK    5  A    between atoms: C_9  and  C_10 
REMARK    6  A    between atoms: N_15  and  C_14 
REMARK    7  A    between atoms: N_20  and  C_19 
REMARK       I    between atoms: C_22  and  N_20 
ROOT
ATOM      1  C   LIG d   1      -5.045  91.551 117.259  0.00  0.00     0.161 C 
ATOM      2  C   LIG d   1      -5.920  90.632 116.657  0.00  0.00     0.016 C 
ATOM      3  C   LIG d   1      -7.057  91.016 115.910  0.00  0.00     0.038 C 
ATOM      4  C   LIG d   1      -7.313  92.356 115.584  0.00  0.00     0.028 C 
ATOM      5  C   LIG d   1      -6.738  93.345 116.592  0.00  0.00    -0.047 C 
ATOM      6  C   LIG d   1      -5.245  93.017 116.821  0.00  0.00     0.091 C 
ENDROOT
BRANCH   1   7
ATOM      7  O   LIG d   1      -3.680  91.144 117.036  0.00  0.00    -0.368 OA
BRANCH   7   8
ATOM      8  C   LIG d   1      -2.910  90.821 118.220  0.00  0.00     0.119 C 
BRANCH   8   9
ATOM      9  C   LIG d   1      -1.425  90.789 117.811  0.00  0.00     0.028 C 
ATOM     10  C   LIG d   1      -0.629  91.966 118.399  0.00  0.00     0.006 C 
ENDBRANCH   8   9
BRANCH   8  11
ATOM     11  C   LIG d   1      -3.224  89.407 118.720  0.00  0.00     0.028 C 
ATOM     12  C   LIG d   1      -2.003  88.475 118.676  0.00  0.00     0.006 C 
ENDBRANCH   8  11
ENDBRANCH   7   8
ENDBRANCH   1   7
BRANCH   6  13
ATOM     13  N   LIG d   1      -4.627  93.885 117.857  0.00  0.00    -0.311 N 
ATOM     14  C   LIG d   1      -3.414  94.422 117.736  0.00  0.00     0.210 C 
ATOM     15  C   LIG d   1      -2.959  95.268 118.929  0.00  0.00     0.109 C 
ATOM     16  O   LIG d   1      -2.686  94.305 116.739  0.00  0.00    -0.276 OA
ATOM     17  H   LIG d   1      -5.162  94.058 118.686  0.00  0.00     0.149 HD
ENDBRANCH   6  13
BRANCH   5  18
ATOM     18  N   LIG d   1      -6.958  94.703 116.060  0.00  0.00     0.381 N 
ATOM     19  H   LIG d   1      -7.862  94.758 115.636  0.00  0.00    -0.090 HD
ATOM     20  H   LIG d   1      -6.267  94.891 115.354  0.00  0.00    -0.090 HD
ATOM     21  H   LIG d   1      -6.885  95.373 116.793  0.00  0.00    -0.090 HD
ENDBRANCH   5  18
BRANCH   3  22
ATOM     22  C   LIG d   1      -7.975  90.055 115.513  0.00  0.00     0.382 C 
ATOM     23  O   LIG d   1      -8.911  90.364 114.737  0.00  0.00    -0.241 OA
ATOM     24  O   LIG d   1      -7.905  88.893 115.957  0.00  0.00    -0.241 OA
ENDBRANCH   3  22
TORSDOF 7
ENDMDL
MODEL 5
REMARK VINA RESULT:      -4.8      2.299      4.488
REMARK  7 active torsions:
REMARK  status: ('A' for Active; 'I' for Inactive)
REMARK    1  A    between atoms: C_2  and  C_3 
REMARK    2  A    between atoms: C_3  and  O_6 
REMARK    3  A    between atoms: C_3  and  C_4 
REMARK    4  A    between atoms: C_7  and  O_6 
REMARK    5  A    between atoms: C_9  and  C_10 
REMARK    6  A    between atoms: N_15  and  C_14 
REMARK    7  A    between atoms: N_20  and  C_19 
REMARK       I    between atoms: C_22  and  N_20 
ROOT
ATOM      1  C   LIG d   1      -4.460  92.901 117.194  0.00  0.00     0.161 C 
ATOM      2  C   LIG d   1      -4.283  94.092 117.917  0.00  0.00     0.016 C 
ATOM      3  C   LIG d   1      -5.260  95.112 117.987  0.00  0.00     0.038 C 
ATOM      4  C   LIG d   1      -6.549  94.942 117.459  0.00  0.00     0.028 C 
ATOM      5  C   LIG d   1      -6.600  93.964 116.290  0.00  0.00    -0.047 C 
ATOM      6  C   LIG d   1      -5.901  92.649 116.704  0.00  0.00     0.091 C 
ENDROOT
BRANCH   1   7
ATOM      7  O   LIG d   1      -3.994  91.782 117.974  0.00  0.00    -0.368 OA
BRANCH   7   8
ATOM      8  C   LIG d   1      -2.860  91.059 117.436  0.00  0.00     0.119 C 
BRANCH   8   9
ATOM      9  C   LIG d   1      -3.245  89.568 117.382  0.00  0.00     0.028 C 
ATOM     10  C   LIG d   1      -2.818  88.805 118.648  0.00  0.00     0.006 C 
ENDBRANCH   8   9
BRANCH   8  11
ATOM     11  C   LIG d   1      -1.654  91.132 118.378  0.00  0.00     0.028 C 
ATOM     12  C   LIG d   1      -0.956  92.501 118.347  0.00  0.00     0.006 C 
ENDBRANCH   8  11
ENDBRANCH   7   8
ENDBRANCH   1   7
BRANCH   6  13
ATOM     13  N   LIG d   1      -5.833  91.668 115.589  0.00  0.00    -0.311 N 
ATOM     14  C   LIG d   1      -6.343  90.440 115.661  0.00  0.00     0.210 C 
ATOM     15  C   LIG d   1      -6.146  89.584 114.407  0.00  0.00     0.109 C 
ATOM     16  O   LIG d   1      -6.969  89.990 116.633  0.00  0.00    -0.276 OA
ATOM     17  H   LIG d   1      -5.370  91.962 114.752  0.00  0.00     0.149 HD
ENDBRANCH   6  13
BRANCH   5  18
ATOM     18  N   LIG d   1      -8.018  93.776 115.928  0.00  0.00     0.381 N 
ATOM     19  H   LIG d   1      -8.099  93.627 114.942  0.00  0.00    -0.090 HD
ATOM     20  H   LIG d   1      -8.527  94.610 116.163  0.00  0.00    -0.090 HD
ATOM     21  H   LIG d   1      -8.396  92.998 116.422  0.00  0.00    -0.090 HD
ENDBRANCH   5  18
BRANCH   3  22
ATOM     22  C   LIG d   1      -4.938  96.334 118.556  0.00  0.00     0.382 C 
ATOM     23  O   LIG d   1      -5.850  97.112 118.930  0.00  0.00    -0.241 OA
ATOM     24  O   LIG d   1      -3.749  96.689 118.661  0.00  0.00    -0.241 OA
ENDBRANCH   3  22
TORSDOF 7
ENDMDL
MODEL 6
REMARK VINA RESULT:      -4.8      7.443     10.554
REMARK  7 active torsions:
REMARK  status: ('A' for Active; 'I' for Inactive)
REMARK    1  A    between atoms: C_2  and  C_3 
REMARK    2  A    between atoms: C_3  and  O_6 
REMARK    3  A    between atoms: C_3  and  C_4 
REMARK    4  A    between atoms: C_7  and  O_6 
REMARK    5  A    between atoms: C_9  and  C_10 
REMARK    6  A    between atoms: N_15  and  C_14 
REMARK    7  A    between atoms: N_20  and  C_19 
REMARK       I    between atoms: C_22  and  N_20 
ROOT
ATOM      1  C   LIG d   1       3.004  88.807 115.841  0.00  0.00     0.161 C 
ATOM      2  C   LIG d   1       3.746  89.561 116.765  0.00  0.00     0.016 C 
ATOM      3  C   LIG d   1       4.989  90.162 116.459  0.00  0.00     0.038 C 
ATOM      4  C   LIG d   1       5.504  90.176 115.154  0.00  0.00     0.028 C 
ATOM      5  C   LIG d   1       5.037  88.998 114.306  0.00  0.00    -0.047 C 
ATOM      6  C   LIG d   1       3.496  88.905 114.382  0.00  0.00     0.091 C 
ENDROOT
BRANCH   1   7
ATOM      7  O   LIG d   1       1.610  89.166 115.925  0.00  0.00    -0.368 OA
BRANCH   7   8
ATOM      8  C   LIG d   1       1.109  89.470 117.250  0.00  0.00     0.119 C 
BRANCH   8   9
ATOM      9  C   LIG d   1      -0.008  88.456 117.566  0.00  0.00     0.028 C 
ATOM     10  C   LIG d   1      -1.403  89.103 117.573  0.00  0.00     0.006 C 
ENDBRANCH   8   9
BRANCH   8  11
ATOM     11  C   LIG d   1       0.433  90.843 117.289  0.00  0.00     0.028 C 
ATOM     12  C   LIG d   1       1.205  91.864 118.140  0.00  0.00     0.006 C 
ENDBRANCH   8  11
ENDBRANCH   7   8
ENDBRANCH   1   7
BRANCH   6  13
ATOM     13  N   LIG d   1       2.962  87.728 113.648  0.00  0.00    -0.311 N 
ATOM     14  C   LIG d   1       2.476  87.796 112.409  0.00  0.00     0.210 C 
ATOM     15  C   LIG d   1       1.958  86.469 111.845  0.00  0.00     0.109 C 
ATOM     16  O   LIG d   1       2.454  88.822 111.713  0.00  0.00    -0.276 OA
ATOM     17  H   LIG d   1       2.971  86.849 114.126  0.00  0.00     0.149 HD
ENDBRANCH   6  13
BRANCH   5  18
ATOM     18  N   LIG d   1       5.536  89.212 112.934  0.00  0.00     0.381 N 
ATOM     19  H   LIG d   1       6.308  89.848 112.950  0.00  0.00    -0.090 HD
ATOM     20  H   LIG d   1       4.803  89.619 112.381  0.00  0.00    -0.090 HD
ATOM     21  H   LIG d   1       5.820  88.344 112.536  0.00  0.00    -0.090 HD
ENDBRANCH   5  18
BRANCH   3  22
ATOM     22  C   LIG d   1       5.749  90.723 117.474  0.00  0.00     0.382 C 
ATOM     23  O   LIG d   1       6.982  90.891 117.314  0.00  0.00    -0.241 OA
ATOM     24  O   LIG d   1       5.226  91.023 118.563  0.00  0.00    -0.241 OA
ENDBRANCH   3  22
TORSDOF 7
ENDMDL
MODEL 7
REMARK VINA RESULT:      -4.7      2.366      3.121
REMARK  7 active torsions:
REMARK  status: ('A' for Active; 'I' for Inactive)
REMARK    1  A    between atoms: C_2  and  C_3 
REMARK    2  A    between atoms: C_3  and  O_6 
REMARK    3  A    between atoms: C_3  and  C_4 
REMARK    4  A    between atoms: C_7  and  O_6 
REMARK    5  A    between atoms: C_9  and  C_10 
REMARK    6  A    between atoms: N_15  and  C_14 
REMARK    7  A    between atoms: N_20  and  C_19 
REMARK       I    between atoms: C_22  and  N_20 
ROOT
ATOM      1  C   LIG d   1      -4.218  92.986 117.618  0.00  0.00     0.161 C 
ATOM      2  C   LIG d   1      -4.429  94.364 117.792  0.00  0.00     0.016 C 
ATOM      3  C   LIG d   1      -3.413  95.263 118.187  0.00  0.00     0.038 C 
ATOM      4  C   LIG d   1      -2.071  94.867 118.290  0.00  0.00     0.028 C 
ATOM      5  C   LIG d   1      -1.899  93.387 118.614  0.00  0.00    -0.047 C 
ATOM      6  C   LIG d   1      -2.736  92.554 117.617  0.00  0.00     0.091 C 
ENDROOT
BRANCH   1   7
ATOM      7  O   LIG d   1      -4.870  92.540 116.413  0.00  0.00    -0.368 OA
BRANCH   7   8
ATOM      8  C   LIG d   1      -6.289  92.269 116.519  0.00  0.00     0.119 C 
BRANCH   8   9
ATOM      9  C   LIG d   1      -6.524  90.828 116.024  0.00  0.00     0.028 C 
ATOM     10  C   LIG d   1      -5.213  90.113 115.656  0.00  0.00     0.006 C 
ENDBRANCH   8   9
BRANCH   8  11
ATOM     11  C   LIG d   1      -7.100  93.159 115.573  0.00  0.00     0.028 C 
ATOM     12  C   LIG d   1      -7.127  92.628 114.131  0.00  0.00     0.006 C 
ENDBRANCH   8  11
ENDBRANCH   7   8
ENDBRANCH   1   7
BRANCH   6  13
ATOM     13  N   LIG d   1      -2.691  91.099 117.916  0.00  0.00    -0.311 N 
ATOM     14  C   LIG d   1      -1.748  90.283 117.449  0.00  0.00     0.210 C 
ATOM     15  C   LIG d   1      -1.899  88.816 117.862  0.00  0.00     0.109 C 
ATOM     16  O   LIG d   1      -0.781  90.642 116.760  0.00  0.00    -0.276 OA
ATOM     17  H   LIG d   1      -3.420  90.730 118.494  0.00  0.00     0.149 HD
ENDBRANCH   6  13
BRANCH   5  18
ATOM     18  N   LIG d   1      -0.457  93.082 118.555  0.00  0.00     0.381 N 
ATOM     19  H   LIG d   1      -0.316  92.194 118.116  0.00  0.00    -0.090 HD
ATOM     20  H   LIG d   1      -0.097  93.032 119.492  0.00  0.00    -0.090 HD
ATOM     21  H   LIG d   1       0.021  93.792 118.045  0.00  0.00    -0.090 HD
ENDBRANCH   5  18
BRANCH   3  22
ATOM     22  C   LIG d   1      -3.742  96.567 118.524  0.00  0.00     0.382 C 
ATOM     23  O   LIG d   1      -2.839  97.428 118.655  0.00  0.00    -0.241 OA
ATOM     24  O   LIG d   1      -4.927  96.884 118.743  0.00  0.00    -0.241 OA
ENDBRANCH   3  22
TORSDOF 7
ENDMDL
MODEL 8
REMARK VINA RESULT:      -4.6      2.095      2.993
REMARK  7 active torsions:
REMARK  status: ('A' for Active; 'I' for Inactive)
REMARK    1  A    between atoms: C_2  and  C_3 
REMARK    2  A    between atoms: C_3  and  O_6 
REMARK    3  A    between atoms: C_3  and  C_4 
REMARK    4  A    between atoms: C_7  and  O_6 
REMARK    5  A    between atoms: C_9  and  C_10 
REMARK    6  A    between atoms: N_15  and  C_14 
REMARK    7  A    between atoms: N_20  and  C_19 
REMARK       I    between atoms: C_22  and  N_20 
ROOT
ATOM      1  C   LIG d   1      -4.640  92.767 118.333  0.00  0.00     0.161 C 
ATOM      2  C   LIG d   1      -4.793  94.163 118.303  0.00  0.00     0.016 C 
ATOM      3  C   LIG d   1      -3.705  95.063 118.224  0.00  0.00     0.038 C 
ATOM      4  C   LIG d   1      -2.390  94.620 118.016  0.00  0.00     0.028 C 
ATOM      5  C   LIG d   1      -2.134  93.213 118.546  0.00  0.00    -0.047 C 
ATOM      6  C   LIG d   1      -3.222  92.263 117.995  0.00  0.00     0.091 C 
ENDROOT
BRANCH   1   7
ATOM      7  O   LIG d   1      -5.611  92.151 117.463  0.00  0.00    -0.368 OA
BRANCH   7   8
ATOM      8  C   LIG d   1      -5.201  91.956 116.087  0.00  0.00     0.119 C 
BRANCH   8   9
ATOM      9  C   LIG d   1      -6.264  92.617 115.189  0.00  0.00     0.028 C 
ATOM     10  C   LIG d   1      -7.289  93.433 115.996  0.00  0.00     0.006 C 
ENDBRANCH   8   9
BRANCH   8  11
ATOM     11  C   LIG d   1      -5.215  90.472 115.707  0.00  0.00     0.028 C 
ATOM     12  C   LIG d   1      -6.350  90.117 114.734  0.00  0.00     0.006 C 
ENDBRANCH   8  11
ENDBRANCH   7   8
ENDBRANCH   1   7
BRANCH   6  13
ATOM     13  N   LIG d   1      -3.094  90.884 118.532  0.00  0.00    -0.311 N 
ATOM     14  C   LIG d   1      -2.342  89.942 117.964  0.00  0.00     0.210 C 
ATOM     15  C   LIG d   1      -2.367  88.582 118.668  0.00  0.00     0.109 C 
ATOM     16  O   LIG d   1      -1.631  90.114 116.962  0.00  0.00    -0.276 OA
ATOM     17  H   LIG d   1      -3.613  90.667 119.360  0.00  0.00     0.149 HD
ENDBRANCH   6  13
BRANCH   5  18
ATOM     18  N   LIG d   1      -0.769  92.826 118.140  0.00  0.00     0.381 N 
ATOM     19  H   LIG d   1      -0.346  92.274 118.859  0.00  0.00    -0.090 HD
ATOM     20  H   LIG d   1      -0.219  93.658 118.016  0.00  0.00    -0.090 HD
ATOM     21  H   LIG d   1      -0.800  92.309 117.289  0.00  0.00    -0.090 HD
ENDBRANCH   5  18
BRANCH   3  22
ATOM     22  C   LIG d   1      -3.923  96.422 118.394  0.00  0.00     0.382 C 
ATOM     23  O   LIG d   1      -5.093  96.875 118.377  0.00  0.00    -0.241 OA
ATOM     24  O   LIG d   1      -2.963  97.205 118.519  0.00  0.00    -0.241 OA
ENDBRANCH   3  22
TORSDOF 7
ENDMDL
MODEL 9
REMARK VINA RESULT:      -4.5      1.518      2.182
REMARK  7 active torsions:
REMARK  status: ('A' for Active; 'I' for Inactive)
REMARK    1  A    between atoms: C_2  and  C_3 
REMARK    2  A    between atoms: C_3  and  O_6 
REMARK    3  A    between atoms: C_3  and  C_4 
REMARK    4  A    between atoms: C_7  and  O_6 
REMARK    5  A    between atoms: C_9  and  C_10 
REMARK    6  A    between atoms: N_15  and  C_14 
REMARK    7  A    between atoms: N_20  and  C_19 
REMARK       I    between atoms: C_22  and  N_20 
ROOT
ATOM      1  C   LIG d   1      -7.300  92.766 117.751  0.00  0.00     0.161 C 
ATOM      2  C   LIG d   1      -8.002  93.975 117.615  0.00  0.00     0.016 C 
ATOM      3  C   LIG d   1      -7.419  95.243 117.839  0.00  0.00     0.038 C 
ATOM      4  C   LIG d   1      -6.043  95.396 118.069  0.00  0.00     0.028 C 
ATOM      5  C   LIG d   1      -5.397  94.174 118.712  0.00  0.00    -0.047 C 
ATOM      6  C   LIG d   1      -5.772  92.918 117.892  0.00  0.00     0.091 C 
ENDROOT
BRANCH   1   7
ATOM      7  O   LIG d   1      -7.617  91.890 116.651  0.00  0.00    -0.368 OA
BRANCH   7   8
ATOM      8  C   LIG d   1      -6.619  91.795 115.605  0.00  0.00     0.119 C 
BRANCH   8   9
ATOM      9  C   LIG d   1      -7.077  92.698 114.443  0.00  0.00     0.028 C 
ATOM     10  C   LIG d   1      -7.765  91.906 113.319  0.00  0.00     0.006 C 
ENDBRANCH   8   9
BRANCH   8  11
ATOM     11  C   LIG d   1      -6.559  90.381 115.019  0.00  0.00     0.028 C 
ATOM     12  C   LIG d   1      -5.195  89.706 115.230  0.00  0.00     0.006 C 
ENDBRANCH   8  11
ENDBRANCH   7   8
ENDBRANCH   1   7
BRANCH   6  13
ATOM     13  N   LIG d   1      -5.249  91.667 118.502  0.00  0.00    -0.311 N 
ATOM     14  C   LIG d   1      -4.060  91.147 118.203  0.00  0.00     0.210 C 
ATOM     15  C   LIG d   1      -3.725  89.841 118.930  0.00  0.00     0.109 C 
ATOM     16  O   LIG d   1      -3.238  91.660 117.429  0.00  0.00    -0.276 OA
ATOM     17  H   LIG d   1      -5.839  91.202 119.164  0.00  0.00     0.149 HD
ENDBRANCH   6  13
BRANCH   5  18
ATOM     18  N   LIG d   1      -3.943  94.416 118.768  0.00  0.00     0.381 N 
ATOM     19  H   LIG d   1      -3.724  95.272 118.298  0.00  0.00    -0.090 HD
ATOM     20  H   LIG d   1      -3.471  93.666 118.295  0.00  0.00    -0.090 HD
ATOM     21  H   LIG d   1      -3.641  94.462 119.716  0.00  0.00    -0.090 HD
ENDBRANCH   5  18
BRANCH   3  22
ATOM     22  C   LIG d   1      -8.222  96.373 117.873  0.00  0.00     0.382 C 
ATOM     23  O   LIG d   1      -8.049  97.291 117.035  0.00  0.00    -0.241 OA
ATOM     24  O   LIG d   1      -9.087  96.506 118.759  0.00  0.00    -0.241 OA
ENDBRANCH   3  22
TORSDOF 7
ENDMDL
