MODEL 1
REMARK VINA RESULT:      -4.9      0.000      0.000
REMARK  7 active torsions:
REMARK  status: ('A' for Active; 'I' for Inactive)
REMARK    1  A    between atoms: C_2  and  C_3 
REMARK    2  A    between atoms: C_3  and  O_6 
REMARK    3  A    between atoms: C_3  and  C_4 
REMARK    4  A    between atoms: C_7  and  O_6 
REMARK    5  A    between atoms: C_9  and  C_10 
REMARK    6  A    between atoms: N_15  and  C_14 
REMARK    7  A    between atoms: N_20  and  C_19 
REMARK       I    between atoms: C_22  and  N_20 
ROOT
ATOM      1  C   LIG d   1       4.209  87.387 115.787  0.00  0.00     0.161 C 
ATOM      2  C   LIG d   1       4.803  88.195 116.770  0.00  0.00     0.016 C 
ATOM      3  C   LIG d   1       5.528  89.373 116.476  0.00  0.00     0.038 C 
ATOM      4  C   LIG d   1       5.580  89.907 115.180  0.00  0.00     0.028 C 
ATOM      5  C   LIG d   1       5.423  88.857 114.085  0.00  0.00    -0.047 C 
ATOM      6  C   LIG d   1       4.161  88.013 114.377  0.00  0.00     0.091 C 
ENDROOT
BRANCH   1   7
ATOM      7  O   LIG d   1       2.886  86.997 116.207  0.00  0.00    -0.368 OA
BRANCH   7   8
ATOM      8  C   LIG d   1       1.790  87.765 115.652  0.00  0.00     0.119 C 
BRANCH   8   9
ATOM      9  C   LIG d   1       1.466  88.896 116.648  0.00  0.00     0.028 C 
ATOM     10  C   LIG d   1       1.720  90.291 116.053  0.00  0.00     0.006 C 
ENDBRANCH   8   9
BRANCH   8  11
ATOM     11  C   LIG d   1       0.512  86.925 115.563  0.00  0.00     0.028 C 
ATOM     12  C   LIG d   1       0.490  86.002 114.335  0.00  0.00     0.006 C 
ENDBRANCH   8  11
ENDBRANCH   7   8
ENDBRANCH   1   7
BRANCH   6  13
ATOM     13  N   LIG d   1       3.980  86.908 113.400  0.00  0.00    -0.311 N 
ATOM     14  C   LIG d   1       3.254  87.023 112.289  0.00  0.00     0.210 C 
ATOM     15  C   LIG d   1       3.181  85.757 111.430  0.00  0.00     0.109 C 
ATOM     16  O   LIG d   1       2.690  88.063 111.918  0.00  0.00    -0.276 OA
ATOM     17  H   LIG d   1       4.429  86.038 113.607  0.00  0.00     0.149 HD
ENDBRANCH   6  13
BRANCH   5  18
ATOM     18  N   LIG d   1       5.358  89.566 112.794  0.00  0.00     0.381 N 
ATOM     19  H   LIG d   1       4.554  89.264 112.281  0.00  0.00    -0.090 HD
ATOM     20  H   LIG d   1       6.177  89.340 112.257  0.00  0.00    -0.090 HD
ATOM     21  H   LIG d   1       5.313  90.550 112.946  0.00  0.00    -0.090 HD
ENDBRANCH   5  18
BRANCH   3  22
ATOM     22  C   LIG d   1       6.244  90.007 117.480  0.00  0.00     0.382 C 
ATOM     23  O   LIG d   1       5.828  89.976 118.663  0.00  0.00    -0.241 OA
ATOM     24  O   LIG d   1       7.277  90.649 117.210  0.00  0.00    -0.241 OA
ENDBRANCH   3  22
TORSDOF 7
ENDMDL
MODEL 2
REMARK VINA RESULT:      -4.8      2.143      4.841
REMARK  7 active torsions:
REMARK  status: ('A' for Active; 'I' for Inactive)
REMARK    1  A    between atoms: C_2  and  C_3 
REMARK    2  A    between atoms: C_3  and  O_6 
REMARK    3  A    between atoms: C_3  and  C_4 
REMARK    4  A    between atoms: C_7  and  O_6 
REMARK    5  A    between atoms: C_9  and  C_10 
REMARK    6  A    between atoms: N_15  and  C_14 
REMARK    7  A    between atoms: N_20  and  C_19 
REMARK       I    between atoms: C_22  and  N_20 
ROOT
ATOM      1  C   LIG d   1       3.685  87.847 115.468  0.00  0.00     0.161 C 
ATOM      2  C   LIG d   1       3.136  87.171 114.366  0.00  0.00     0.016 C 
ATOM      3  C   LIG d   1       3.549  87.393 113.032  0.00  0.00     0.038 C 
ATOM      4  C   LIG d   1       4.652  88.203 112.723  0.00  0.00     0.028 C 
ATOM      5  C   LIG d   1       4.912  89.294 113.756  0.00  0.00    -0.047 C 
ATOM      6  C   LIG d   1       4.966  88.651 115.161  0.00  0.00     0.091 C 
ENDROOT
BRANCH   1   7
ATOM      7  O   LIG d   1       3.924  86.916 116.543  0.00  0.00    -0.368 OA
BRANCH   7   8
ATOM      8  C   LIG d   1       3.070  87.051 117.705  0.00  0.00     0.119 C 
BRANCH   8   9
ATOM      9  C   LIG d   1       2.264  85.745 117.842  0.00  0.00     0.028 C 
ATOM     10  C   LIG d   1       0.940  85.788 117.061  0.00  0.00     0.006 C 
ENDBRANCH   8   9
BRANCH   8  11
ATOM     11  C   LIG d   1       2.026  88.153 117.504  0.00  0.00     0.028 C 
ATOM     12  C   LIG d   1       2.062  89.218 118.611  0.00  0.00     0.006 C 
ENDBRANCH   8  11
ENDBRANCH   7   8
ENDBRANCH   1   7
BRANCH   6  13
ATOM     13  N   LIG d   1       5.132  89.660 116.240  0.00  0.00    -0.311 N 
ATOM     14  C   LIG d   1       4.365  90.743 116.356  0.00  0.00     0.210 C 
ATOM     15  C   LIG d   1       4.719  91.664 117.527  0.00  0.00     0.109 C 
ATOM     16  O   LIG d   1       3.405  91.012 115.618  0.00  0.00    -0.276 OA
ATOM     17  H   LIG d   1       5.868  89.504 116.901  0.00  0.00     0.149 HD
ENDBRANCH   6  13
BRANCH   5  18
ATOM     18  N   LIG d   1       6.167  89.972 113.383  0.00  0.00     0.381 N 
ATOM     19  H   LIG d   1       6.445  89.688 112.464  0.00  0.00    -0.090 HD
ATOM     20  H   LIG d   1       6.888  89.702 114.028  0.00  0.00    -0.090 HD
ATOM     21  H   LIG d   1       6.041  90.960 113.409  0.00  0.00    -0.090 HD
ENDBRANCH   5  18
BRANCH   3  22
ATOM     22  C   LIG d   1       2.830  86.833 111.987  0.00  0.00     0.382 C 
ATOM     23  O   LIG d   1       1.918  87.491 111.431  0.00  0.00    -0.241 OA
ATOM     24  O   LIG d   1       3.052  85.662 111.624  0.00  0.00    -0.241 OA
ENDBRANCH   3  22
TORSDOF 7
ENDMDL
MODEL 3
REMARK VINA RESULT:      -4.5      2.428      5.421
REMARK  7 active torsions:
REMARK  status: ('A' for Active; 'I' for Inactive)
REMARK    1  A    between atoms: C_2  and  C_3 
REMARK    2  A    between atoms: C_3  and  O_6 
REMARK    3  A    between atoms: C_3  and  C_4 
REMARK    4  A    between atoms: C_7  and  O_6 
REMARK    5  A    between atoms: C_9  and  C_10 
REMARK    6  A    between atoms: N_15  and  C_14 
REMARK    7  A    between atoms: N_20  and  C_19 
REMARK       I    between atoms: C_22  and  N_20 
ROOT
ATOM      1  C   LIG d   1       2.026  87.088 114.843  0.00  0.00     0.161 C 
ATOM      2  C   LIG d   1       0.755  86.550 114.583  0.00  0.00     0.016 C 
ATOM      3  C   LIG d   1       0.420  85.891 113.377  0.00  0.00     0.038 C 
ATOM      4  C   LIG d   1       1.384  85.593 112.403  0.00  0.00     0.028 C 
ATOM      5  C   LIG d   1       2.563  86.560 112.401  0.00  0.00    -0.047 C 
ATOM      6  C   LIG d   1       3.122  86.675 113.838  0.00  0.00     0.091 C 
ENDROOT
BRANCH   1   7
ATOM      7  O   LIG d   1       2.430  86.762 116.187  0.00  0.00    -0.368 OA
BRANCH   7   8
ATOM      8  C   LIG d   1       2.707  87.884 117.060  0.00  0.00     0.119 C 
BRANCH   8   9
ATOM      9  C   LIG d   1       2.342  87.456 118.495  0.00  0.00     0.028 C 
ATOM     10  C   LIG d   1       1.664  86.077 118.541  0.00  0.00     0.006 C 
ENDBRANCH   8   9
BRANCH   8  11
ATOM     11  C   LIG d   1       1.792  89.072 116.747  0.00  0.00     0.028 C 
ATOM     12  C   LIG d   1       2.571  90.370 116.478  0.00  0.00     0.006 C 
ENDBRANCH   8  11
ENDBRANCH   7   8
ENDBRANCH   1   7
BRANCH   6  13
ATOM     13  N   LIG d   1       4.224  87.666 113.940  0.00  0.00    -0.311 N 
ATOM     14  C   LIG d   1       4.128  88.918 113.495  0.00  0.00     0.210 C 
ATOM     15  C   LIG d   1       5.388  89.769 113.682  0.00  0.00     0.109 C 
ATOM     16  O   LIG d   1       3.108  89.414 112.994  0.00  0.00    -0.276 OA
ATOM     17  H   LIG d   1       5.077  87.357 114.363  0.00  0.00     0.149 HD
ENDBRANCH   6  13
BRANCH   5  18
ATOM     18  N   LIG d   1       3.555  86.053 111.434  0.00  0.00     0.381 N 
ATOM     19  H   LIG d   1       3.397  85.079 111.266  0.00  0.00    -0.090 HD
ATOM     20  H   LIG d   1       4.474  86.160 111.824  0.00  0.00    -0.090 HD
ATOM     21  H   LIG d   1       3.487  86.559 110.579  0.00  0.00    -0.090 HD
ENDBRANCH   5  18
BRANCH   3  22
ATOM     22  C   LIG d   1      -0.901  85.560 113.119  0.00  0.00     0.382 C 
ATOM     23  O   LIG d   1      -1.295  85.430 111.935  0.00  0.00    -0.241 OA
ATOM     24  O   LIG d   1      -1.715  85.433 114.054  0.00  0.00    -0.241 OA
ENDBRANCH   3  22
TORSDOF 7
ENDMDL
MODEL 4
REMARK VINA RESULT:      -4.5      2.609      4.289
REMARK  7 active torsions:
REMARK  status: ('A' for Active; 'I' for Inactive)
REMARK    1  A    between atoms: C_2  and  C_3 
REMARK    2  A    between atoms: C_3  and  O_6 
REMARK    3  A    between atoms: C_3  and  C_4 
REMARK    4  A    between atoms: C_7  and  O_6 
REMARK    5  A    between atoms: C_9  and  C_10 
REMARK    6  A    between atoms: N_15  and  C_14 
REMARK    7  A    between atoms: N_20  and  C_19 
REMARK       I    between atoms: C_22  and  N_20 
ROOT
ATOM      1  C   LIG d   1       2.066  90.374 115.883  0.00  0.00     0.161 C 
ATOM      2  C   LIG d   1       2.743  91.422 116.528  0.00  0.00     0.016 C 
ATOM      3  C   LIG d   1       3.202  91.346 117.864  0.00  0.00     0.038 C 
ATOM      4  C   LIG d   1       3.147  90.153 118.600  0.00  0.00     0.028 C 
ATOM      5  C   LIG d   1       2.019  89.224 118.164  0.00  0.00    -0.047 C 
ATOM      6  C   LIG d   1       2.095  89.026 116.633  0.00  0.00     0.091 C 
ENDROOT
BRANCH   1   7
ATOM      7  O   LIG d   1       2.576  90.214 114.544  0.00  0.00    -0.368 OA
BRANCH   7   8
ATOM      8  C   LIG d   1       3.572  89.178 114.362  0.00  0.00     0.119 C 
BRANCH   8   9
ATOM      9  C   LIG d   1       4.928  89.873 114.138  0.00  0.00     0.028 C 
ATOM     10  C   LIG d   1       5.767  89.952 115.425  0.00  0.00     0.006 C 
ENDBRANCH   8   9
BRANCH   8  11
ATOM     11  C   LIG d   1       3.312  88.374 113.084  0.00  0.00     0.028 C 
ATOM     12  C   LIG d   1       4.071  87.038 113.055  0.00  0.00     0.006 C 
ENDBRANCH   8  11
ENDBRANCH   7   8
ENDBRANCH   1   7
BRANCH   6  13
ATOM     13  N   LIG d   1       0.977  88.197 116.112  0.00  0.00    -0.311 N 
ATOM     14  C   LIG d   1       1.085  86.894 115.860  0.00  0.00     0.210 C 
ATOM     15  C   LIG d   1      -0.182  86.234 115.309  0.00  0.00     0.109 C 
ATOM     16  O   LIG d   1       2.102  86.215 116.071  0.00  0.00    -0.276 OA
ATOM     17  H   LIG d   1       0.106  88.661 115.942  0.00  0.00     0.149 HD
ENDBRANCH   6  13
BRANCH   5  18
ATOM     18  N   LIG d   1       2.163  87.964 118.918  0.00  0.00     0.381 N 
ATOM     19  H   LIG d   1       1.652  87.235 118.460  0.00  0.00    -0.090 HD
ATOM     20  H   LIG d   1       1.778  88.090 119.837  0.00  0.00    -0.090 HD
ATOM     21  H   LIG d   1       3.125  87.714 118.983  0.00  0.00    -0.090 HD
ENDBRANCH   5  18
BRANCH   3  22
ATOM     22  C   LIG d   1       3.687  92.484 118.490  0.00  0.00     0.382 C 
ATOM     23  O   LIG d   1       4.921  92.628 118.659  0.00  0.00    -0.241 OA
ATOM     24  O   LIG d   1       2.902  93.348 118.926  0.00  0.00    -0.241 OA
ENDBRANCH   3  22
TORSDOF 7
ENDMDL
MODEL 5
REMARK VINA RESULT:      -4.5      2.375      5.306
REMARK  7 active torsions:
REMARK  status: ('A' for Active; 'I' for Inactive)
REMARK    1  A    between atoms: C_2  and  C_3 
REMARK    2  A    between atoms: C_3  and  O_6 
REMARK    3  A    between atoms: C_3  and  C_4 
REMARK    4  A    between atoms: C_7  and  O_6 
REMARK    5  A    between atoms: C_9  and  C_10 
REMARK    6  A    between atoms: N_15  and  C_14 
REMARK    7  A    between atoms: N_20  and  C_19 
REMARK       I    between atoms: C_22  and  N_20 
ROOT
ATOM      1  C   LIG d   1       3.872  90.066 115.193  0.00  0.00     0.161 C 
ATOM      2  C   LIG d   1       3.494  89.488 113.970  0.00  0.00     0.016 C 
ATOM      3  C   LIG d   1       3.565  88.100 113.711  0.00  0.00     0.038 C 
ATOM      4  C   LIG d   1       3.878  87.173 114.716  0.00  0.00     0.028 C 
ATOM      5  C   LIG d   1       4.754  87.751 115.822  0.00  0.00    -0.047 C 
ATOM      6  C   LIG d   1       4.111  89.059 116.338  0.00  0.00     0.091 C 
ENDROOT
BRANCH   1   7
ATOM      7  O   LIG d   1       2.899  91.053 115.589  0.00  0.00    -0.368 OA
BRANCH   7   8
ATOM      8  C   LIG d   1       2.134  90.751 116.782  0.00  0.00     0.119 C 
BRANCH   8   9
ATOM      9  C   LIG d   1       0.673  90.523 116.350  0.00  0.00     0.028 C 
ATOM     10  C   LIG d   1      -0.331  91.225 117.281  0.00  0.00     0.006 C 
ENDBRANCH   8   9
BRANCH   8  11
ATOM     11  C   LIG d   1       2.093  91.950 117.735  0.00  0.00     0.028 C 
ATOM     12  C   LIG d   1       3.247  92.937 117.501  0.00  0.00     0.006 C 
ENDBRANCH   8  11
ENDBRANCH   7   8
ENDBRANCH   1   7
BRANCH   6  13
ATOM     13  N   LIG d   1       4.947  89.735 117.365  0.00  0.00    -0.311 N 
ATOM     14  C   LIG d   1       6.071  90.390 117.080  0.00  0.00     0.210 C 
ATOM     15  C   LIG d   1       6.790  90.997 118.288  0.00  0.00     0.109 C 
ATOM     16  O   LIG d   1       6.524  90.553 115.937  0.00  0.00    -0.276 OA
ATOM     17  H   LIG d   1       4.636  89.679 118.315  0.00  0.00     0.149 HD
ENDBRANCH   6  13
BRANCH   5  18
ATOM     18  N   LIG d   1       4.888  86.721 116.869  0.00  0.00     0.381 N 
ATOM     19  H   LIG d   1       4.891  87.153 117.771  0.00  0.00    -0.090 HD
ATOM     20  H   LIG d   1       5.764  86.244 116.745  0.00  0.00    -0.090 HD
ATOM     21  H   LIG d   1       4.136  86.071 116.806  0.00  0.00    -0.090 HD
ENDBRANCH   5  18
BRANCH   3  22
ATOM     22  C   LIG d   1       3.359  87.630 112.422  0.00  0.00     0.382 C 
ATOM     23  O   LIG d   1       4.282  87.033 111.818  0.00  0.00    -0.241 OA
ATOM     24  O   LIG d   1       2.278  87.836 111.840  0.00  0.00    -0.241 OA
ENDBRANCH   3  22
TORSDOF 7
ENDMDL
MODEL 6
REMARK VINA RESULT:      -4.4      2.630      4.559
REMARK  7 active torsions:
REMARK  status: ('A' for Active; 'I' for Inactive)
REMARK    1  A    between atoms: C_2  and  C_3 
REMARK    2  A    between atoms: C_3  and  O_6 
REMARK    3  A    between atoms: C_3  and  C_4 
REMARK    4  A    between atoms: C_7  and  O_6 
REMARK    5  A    between atoms: C_9  and  C_10 
REMARK    6  A    between atoms: N_15  and  C_14 
REMARK    7  A    between atoms: N_20  and  C_19 
REMARK       I    between atoms: C_22  and  N_20 
ROOT
ATOM      1  C   LIG d   1       2.847  89.333 116.257  0.00  0.00     0.161 C 
ATOM      2  C   LIG d   1       3.325  90.522 116.833  0.00  0.00     0.016 C 
ATOM      3  C   LIG d   1       2.479  91.553 117.303  0.00  0.00     0.038 C 
ATOM      4  C   LIG d   1       1.086  91.398 117.366  0.00  0.00     0.028 C 
ATOM      5  C   LIG d   1       0.537  90.422 116.331  0.00  0.00    -0.047 C 
ATOM      6  C   LIG d   1       1.331  89.099 116.419  0.00  0.00     0.091 C 
ENDROOT
BRANCH   1   7
ATOM      7  O   LIG d   1       3.586  88.208 116.774  0.00  0.00    -0.368 OA
BRANCH   7   8
ATOM      8  C   LIG d   1       4.528  87.591 115.862  0.00  0.00     0.119 C 
BRANCH   8   9
ATOM      9  C   LIG d   1       5.924  88.156 116.186  0.00  0.00     0.028 C 
ATOM     10  C   LIG d   1       6.752  87.206 117.067  0.00  0.00     0.006 C 
ENDBRANCH   8   9
BRANCH   8  11
ATOM     11  C   LIG d   1       4.250  88.000 114.413  0.00  0.00     0.028 C 
ATOM     12  C   LIG d   1       5.452  88.690 113.748  0.00  0.00     0.006 C 
ENDBRANCH   8  11
ENDBRANCH   7   8
ENDBRANCH   1   7
BRANCH   6  13
ATOM     13  N   LIG d   1       0.914  88.118 115.384  0.00  0.00    -0.311 N 
ATOM     14  C   LIG d   1       0.704  86.827 115.638  0.00  0.00     0.210 C 
ATOM     15  C   LIG d   1       0.299  85.986 114.424  0.00  0.00     0.109 C 
ATOM     16  O   LIG d   1       0.783  86.306 116.761  0.00  0.00    -0.276 OA
ATOM     17  H   LIG d   1       0.796  88.462 114.451  0.00  0.00     0.149 HD
ENDBRANCH   6  13
BRANCH   5  18
ATOM     18  N   LIG d   1      -0.903  90.252 116.600  0.00  0.00     0.381 N 
ATOM     19  H   LIG d   1      -1.054  89.410 117.119  0.00  0.00    -0.090 HD
ATOM     20  H   LIG d   1      -1.390  90.173 115.724  0.00  0.00    -0.090 HD
ATOM     21  H   LIG d   1      -1.250  91.033 117.111  0.00  0.00    -0.090 HD
ENDBRANCH   5  18
BRANCH   3  22
ATOM     22  C   LIG d   1       3.024  92.771 117.679  0.00  0.00     0.382 C 
ATOM     23  O   LIG d   1       3.839  93.353 116.923  0.00  0.00    -0.241 OA
ATOM     24  O   LIG d   1       2.746  93.274 118.784  0.00  0.00    -0.241 OA
ENDBRANCH   3  22
TORSDOF 7
ENDMDL
MODEL 7
REMARK VINA RESULT:      -4.4      2.377      4.261
REMARK  7 active torsions:
REMARK  status: ('A' for Active; 'I' for Inactive)
REMARK    1  A    between atoms: C_2  and  C_3 
REMARK    2  A    between atoms: C_3  and  O_6 
REMARK    3  A    between atoms: C_3  and  C_4 
REMARK    4  A    between atoms: C_7  and  O_6 
REMARK    5  A    between atoms: C_9  and  C_10 
REMARK    6  A    between atoms: N_15  and  C_14 
REMARK    7  A    between atoms: N_20  and  C_19 
REMARK       I    between atoms: C_22  and  N_20 
ROOT
ATOM      1  C   LIG d   1       4.405  89.814 115.600  0.00  0.00     0.161 C 
ATOM      2  C   LIG d   1       4.191  91.021 116.288  0.00  0.00     0.016 C 
ATOM      3  C   LIG d   1       2.939  91.399 116.825  0.00  0.00     0.038 C 
ATOM      4  C   LIG d   1       1.844  90.522 116.842  0.00  0.00     0.028 C 
ATOM      5  C   LIG d   1       1.872  89.496 115.714  0.00  0.00    -0.047 C 
ATOM      6  C   LIG d   1       3.250  88.796 115.706  0.00  0.00     0.091 C 
ENDROOT
BRANCH   1   7
ATOM      7  O   LIG d   1       5.642  89.216 116.036  0.00  0.00    -0.368 OA
BRANCH   7   8
ATOM      8  C   LIG d   1       5.897  89.246 117.461  0.00  0.00     0.119 C 
BRANCH   8   9
ATOM      9  C   LIG d   1       7.343  89.737 117.663  0.00  0.00     0.028 C 
ATOM     10  C   LIG d   1       7.405  91.187 118.172  0.00  0.00     0.006 C 
ENDBRANCH   8   9
BRANCH   8  11
ATOM     11  C   LIG d   1       5.859  87.838 118.064  0.00  0.00     0.028 C 
ATOM     12  C   LIG d   1       6.076  86.736 117.015  0.00  0.00     0.006 C 
ENDBRANCH   8  11
ENDBRANCH   7   8
ENDBRANCH   1   7
BRANCH   6  13
ATOM     13  N   LIG d   1       3.392  87.836 114.581  0.00  0.00    -0.311 N 
ATOM     14  C   LIG d   1       3.281  88.186 113.300  0.00  0.00     0.210 C 
ATOM     15  C   LIG d   1       3.442  87.037 112.300  0.00  0.00     0.109 C 
ATOM     16  O   LIG d   1       3.096  89.344 112.897  0.00  0.00    -0.276 OA
ATOM     17  H   LIG d   1       3.574  86.880 114.816  0.00  0.00     0.149 HD
ENDBRANCH   6  13
BRANCH   5  18
ATOM     18  N   LIG d   1       0.751  88.563 115.933  0.00  0.00     0.381 N 
ATOM     19  H   LIG d   1      -0.116  89.023 115.740  0.00  0.00    -0.090 HD
ATOM     20  H   LIG d   1       0.748  88.277 116.897  0.00  0.00    -0.090 HD
ATOM     21  H   LIG d   1       0.850  87.766 115.343  0.00  0.00    -0.090 HD
ENDBRANCH   5  18
BRANCH   3  22
ATOM     22  C   LIG d   1       2.762  92.683 117.317  0.00  0.00     0.382 C 
ATOM     23  O   LIG d   1       3.587  93.584 117.030  0.00  0.00    -0.241 OA
ATOM     24  O   LIG d   1       1.812  92.942 118.080  0.00  0.00    -0.241 OA
ENDBRANCH   3  22
TORSDOF 7
ENDMDL
MODEL 8
REMARK VINA RESULT:      -4.3      3.053      4.745
REMARK  7 active torsions:
REMARK  status: ('A' for Active; 'I' for Inactive)
REMARK    1  A    between atoms: C_2  and  C_3 
REMARK    2  A    between atoms: C_3  and  O_6 
REMARK    3  A    between atoms: C_3  and  C_4 
REMARK    4  A    between atoms: C_7  and  O_6 
REMARK    5  A    between atoms: C_9  and  C_10 
REMARK    6  A    between atoms: N_15  and  C_14 
REMARK    7  A    between atoms: N_20  and  C_19 
REMARK       I    between atoms: C_22  and  N_20 
ROOT
ATOM      1  C   LIG d   1       1.811  89.371 116.570  0.00  0.00     0.161 C 
ATOM      2  C   LIG d   1       0.697  90.172 116.873  0.00  0.00     0.016 C 
ATOM      3  C   LIG d   1       0.799  91.501 117.345  0.00  0.00     0.038 C 
ATOM      4  C   LIG d   1       2.027  92.175 117.401  0.00  0.00     0.028 C 
ATOM      5  C   LIG d   1       3.221  91.245 117.585  0.00  0.00    -0.047 C 
ATOM      6  C   LIG d   1       3.155  90.127 116.519  0.00  0.00     0.091 C 
ENDROOT
BRANCH   1   7
ATOM      7  O   LIG d   1       1.584  88.668 115.332  0.00  0.00    -0.368 OA
BRANCH   7   8
ATOM      8  C   LIG d   1       1.628  87.222 115.404  0.00  0.00     0.119 C 
BRANCH   8   9
ATOM      9  C   LIG d   1       2.219  86.710 114.076  0.00  0.00     0.028 C 
ATOM     10  C   LIG d   1       3.215  87.704 113.455  0.00  0.00     0.006 C 
ENDBRANCH   8   9
BRANCH   8  11
ATOM     11  C   LIG d   1       0.220  86.625 115.478  0.00  0.00     0.028 C 
ATOM     12  C   LIG d   1      -0.179  85.877 114.196  0.00  0.00     0.006 C 
ENDBRANCH   8  11
ENDBRANCH   7   8
ENDBRANCH   1   7
BRANCH   6  13
ATOM     13  N   LIG d   1       4.241  89.125 116.680  0.00  0.00    -0.311 N 
ATOM     14  C   LIG d   1       5.406  89.196 116.038  0.00  0.00     0.210 C 
ATOM     15  C   LIG d   1       6.378  88.049 116.333  0.00  0.00     0.109 C 
ATOM     16  O   LIG d   1       5.739  90.117 115.278  0.00  0.00    -0.276 OA
ATOM     17  H   LIG d   1       4.067  88.361 117.303  0.00  0.00     0.149 HD
ENDBRANCH   6  13
BRANCH   5  18
ATOM     18  N   LIG d   1       4.444  92.064 117.488  0.00  0.00     0.381 N 
ATOM     19  H   LIG d   1       4.428  92.781 118.186  0.00  0.00    -0.090 HD
ATOM     20  H   LIG d   1       4.470  92.504 116.585  0.00  0.00    -0.090 HD
ATOM     21  H   LIG d   1       5.250  91.491 117.609  0.00  0.00    -0.090 HD
ENDBRANCH   5  18
BRANCH   3  22
ATOM     22  C   LIG d   1      -0.334  92.156 117.804  0.00  0.00     0.382 C 
ATOM     23  O   LIG d   1      -1.453  91.592 117.740  0.00  0.00    -0.241 OA
ATOM     24  O   LIG d   1      -0.257  93.320 118.241  0.00  0.00    -0.241 OA
ENDBRANCH   3  22
TORSDOF 7
ENDMDL
MODEL 9
REMARK VINA RESULT:      -4.0      2.957      5.450
REMARK  7 active torsions:
REMARK  status: ('A' for Active; 'I' for Inactive)
REMARK    1  A    between atoms: C_2  and  C_3 
REMARK    2  A    between atoms: C_3  and  O_6 
REMARK    3  A    between atoms: C_3  and  C_4 
REMARK    4  A    between atoms: C_7  and  O_6 
REMARK    5  A    between atoms: C_9  and  C_10 
REMARK    6  A    between atoms: N_15  and  C_14 
REMARK    7  A    between atoms: N_20  and  C_19 
REMARK       I    between atoms: C_22  and  N_20 
ROOT
ATOM      1  C   LIG d   1       3.522  89.251 116.958  0.00  0.00     0.161 C 
ATOM      2  C   LIG d   1       2.197  89.697 116.814  0.00  0.00     0.016 C 
ATOM      3  C   LIG d   1       1.770  90.997 117.170  0.00  0.00     0.038 C 
ATOM      4  C   LIG d   1       2.676  91.995 117.556  0.00  0.00     0.028 C 
ATOM      5  C   LIG d   1       3.946  91.445 118.198  0.00  0.00    -0.047 C 
ATOM      6  C   LIG d   1       4.546  90.361 117.274  0.00  0.00     0.091 C 
ENDROOT
BRANCH   1   7
ATOM      7  O   LIG d   1       3.922  88.519 115.783  0.00  0.00    -0.368 OA
BRANCH   7   8
ATOM      8  C   LIG d   1       3.197  88.821 114.566  0.00  0.00     0.119 C 
BRANCH   8   9
ATOM      9  C   LIG d   1       3.034  87.503 113.785  0.00  0.00     0.028 C 
ATOM     10  C   LIG d   1       3.650  86.303 114.524  0.00  0.00     0.006 C 
ENDBRANCH   8   9
BRANCH   8  11
ATOM     11  C   LIG d   1       4.008  89.740 113.647  0.00  0.00     0.028 C 
ATOM     12  C   LIG d   1       5.524  89.518 113.772  0.00  0.00     0.006 C 
ENDBRANCH   8  11
ENDBRANCH   7   8
ENDBRANCH   1   7
BRANCH   6  13
ATOM     13  N   LIG d   1       5.745  89.712 117.866  0.00  0.00    -0.311 N 
ATOM     14  C   LIG d   1       6.990  90.132 117.647  0.00  0.00     0.210 C 
ATOM     15  C   LIG d   1       8.081  89.309 118.338  0.00  0.00     0.109 C 
ATOM     16  O   LIG d   1       7.292  91.128 116.973  0.00  0.00    -0.276 OA
ATOM     17  H   LIG d   1       5.589  88.915 118.452  0.00  0.00     0.149 HD
ENDBRANCH   6  13
BRANCH   5  18
ATOM     18  N   LIG d   1       4.859  92.582 118.425  0.00  0.00     0.381 N 
ATOM     19  H   LIG d   1       5.754  92.244 118.717  0.00  0.00    -0.090 HD
ATOM     20  H   LIG d   1       4.484  93.158 119.158  0.00  0.00    -0.090 HD
ATOM     21  H   LIG d   1       4.953  93.115 117.589  0.00  0.00    -0.090 HD
ENDBRANCH   5  18
BRANCH   3  22
ATOM     22  C   LIG d   1       0.416  91.296 117.179  0.00  0.00     0.382 C 
ATOM     23  O   LIG d   1       0.004  92.315 117.784  0.00  0.00    -0.241 OA
ATOM     24  O   LIG d   1      -0.403  90.537 116.627  0.00  0.00    -0.241 OA
ENDBRANCH   3  22
TORSDOF 7
ENDMDL
