MODEL 1
REMARK VINA RESULT:      -4.5      0.000      0.000
REMARK  7 active torsions:
REMARK  status: ('A' for Active; 'I' for Inactive)
REMARK    1  A    between atoms: C_2  and  C_3 
REMARK    2  A    between atoms: C_3  and  O_6 
REMARK    3  A    between atoms: C_3  and  C_4 
REMARK    4  A    between atoms: C_7  and  O_6 
REMARK    5  A    between atoms: C_9  and  C_10 
REMARK    6  A    between atoms: N_15  and  C_14 
REMARK    7  A    between atoms: N_20  and  C_19 
REMARK       I    between atoms: C_22  and  N_20 
ROOT
ATOM      1  C   LIG d   1       1.580  88.141 116.583  0.00  0.00     0.161 C 
ATOM      2  C   LIG d   1       0.193  87.996 116.754  0.00  0.00     0.016 C 
ATOM      3  C   LIG d   1      -0.631  88.999 117.314  0.00  0.00     0.038 C 
ATOM      4  C   LIG d   1      -0.144  90.282 117.605  0.00  0.00     0.028 C 
ATOM      5  C   LIG d   1       1.348  90.307 117.919  0.00  0.00    -0.047 C 
ATOM      6  C   LIG d   1       2.111  89.575 116.791  0.00  0.00     0.091 C 
ENDROOT
BRANCH   1   7
ATOM      7  O   LIG d   1       1.967  87.647 115.286  0.00  0.00    -0.368 OA
BRANCH   7   8
ATOM      8  C   LIG d   1       2.658  86.374 115.268  0.00  0.00     0.119 C 
BRANCH   8   9
ATOM      9  C   LIG d   1       4.104  86.638 114.805  0.00  0.00     0.028 C 
ATOM     10  C   LIG d   1       4.163  87.349 113.443  0.00  0.00     0.006 C 
ENDBRANCH   8   9
BRANCH   8  11
ATOM     11  C   LIG d   1       2.062  85.430 114.219  0.00  0.00     0.028 C 
ATOM     12  C   LIG d   1       0.714  85.925 113.670  0.00  0.00     0.006 C 
ENDBRANCH   8  11
ENDBRANCH   7   8
ENDBRANCH   1   7
BRANCH   6  13
ATOM     13  N   LIG d   1       3.569  89.480 117.062  0.00  0.00    -0.311 N 
ATOM     14  C   LIG d   1       4.502  89.885 116.203  0.00  0.00     0.210 C 
ATOM     15  C   LIG d   1       5.946  89.679 116.671  0.00  0.00     0.109 C 
ATOM     16  O   LIG d   1       4.271  90.426 115.111  0.00  0.00    -0.276 OA
ATOM     17  H   LIG d   1       3.845  89.082 117.938  0.00  0.00     0.149 HD
ENDBRANCH   6  13
BRANCH   5  18
ATOM     18  N   LIG d   1       1.749  91.719 118.066  0.00  0.00     0.381 N 
ATOM     19  H   LIG d   1       2.103  92.063 117.196  0.00  0.00    -0.090 HD
ATOM     20  H   LIG d   1       2.482  91.779 118.751  0.00  0.00    -0.090 HD
ATOM     21  H   LIG d   1       0.969  92.266 118.355  0.00  0.00    -0.090 HD
ENDBRANCH   5  18
BRANCH   3  22
ATOM     22  C   LIG d   1      -1.950  88.709 117.627  0.00  0.00     0.382 C 
ATOM     23  O   LIG d   1      -2.214  87.950 118.591  0.00  0.00    -0.241 OA
ATOM     24  O   LIG d   1      -2.878  89.160 116.930  0.00  0.00    -0.241 OA
ENDBRANCH   3  22
TORSDOF 7
ENDMDL
MODEL 2
REMARK VINA RESULT:      -4.4      2.862      5.082
REMARK  7 active torsions:
REMARK  status: ('A' for Active; 'I' for Inactive)
REMARK    1  A    between atoms: C_2  and  C_3 
REMARK    2  A    between atoms: C_3  and  O_6 
REMARK    3  A    between atoms: C_3  and  C_4 
REMARK    4  A    between atoms: C_7  and  O_6 
REMARK    5  A    between atoms: C_9  and  C_10 
REMARK    6  A    between atoms: N_15  and  C_14 
REMARK    7  A    between atoms: N_20  and  C_19 
REMARK       I    between atoms: C_22  and  N_20 
ROOT
ATOM      1  C   LIG d   1       3.421  87.144 116.048  0.00  0.00     0.161 C 
ATOM      2  C   LIG d   1       3.671  87.894 117.209  0.00  0.00     0.016 C 
ATOM      3  C   LIG d   1       4.146  89.225 117.188  0.00  0.00     0.038 C 
ATOM      4  C   LIG d   1       4.259  89.953 115.994  0.00  0.00     0.028 C 
ATOM      5  C   LIG d   1       4.500  89.076 114.770  0.00  0.00    -0.047 C 
ATOM      6  C   LIG d   1       3.433  87.958 114.737  0.00  0.00     0.091 C 
ENDROOT
BRANCH   1   7
ATOM      7  O   LIG d   1       2.175  86.433 116.184  0.00  0.00    -0.368 OA
BRANCH   7   8
ATOM      8  C   LIG d   1       1.349  86.806 117.315  0.00  0.00     0.119 C 
BRANCH   8   9
ATOM      9  C   LIG d   1       0.857  85.505 117.978  0.00  0.00     0.028 C 
ATOM     10  C   LIG d   1      -0.423  85.715 118.805  0.00  0.00     0.006 C 
ENDBRANCH   8   9
BRANCH   8  11
ATOM     11  C   LIG d   1       0.080  87.534 116.861  0.00  0.00     0.028 C 
ATOM     12  C   LIG d   1       0.120  89.041 117.160  0.00  0.00     0.006 C 
ENDBRANCH   8  11
ENDBRANCH   7   8
ENDBRANCH   1   7
BRANCH   6  13
ATOM     13  N   LIG d   1       3.646  87.004 113.617  0.00  0.00    -0.311 N 
ATOM     14  C   LIG d   1       3.026  87.102 112.442  0.00  0.00     0.210 C 
ATOM     15  C   LIG d   1       3.375  86.003 111.433  0.00  0.00     0.109 C 
ATOM     16  O   LIG d   1       2.245  88.013 112.129  0.00  0.00    -0.276 OA
ATOM     17  H   LIG d   1       4.288  86.251 113.775  0.00  0.00     0.149 HD
ENDBRANCH   6  13
BRANCH   5  18
ATOM     18  N   LIG d   1       4.460  89.948 113.581  0.00  0.00     0.381 N 
ATOM     19  H   LIG d   1       3.568  90.398 113.520  0.00  0.00    -0.090 HD
ATOM     20  H   LIG d   1       4.585  89.384 112.759  0.00  0.00    -0.090 HD
ATOM     21  H   LIG d   1       5.182  90.633 113.636  0.00  0.00    -0.090 HD
ENDBRANCH   5  18
BRANCH   3  22
ATOM     22  C   LIG d   1       4.551  89.829 118.368  0.00  0.00     0.382 C 
ATOM     23  O   LIG d   1       3.876  90.768 118.856  0.00  0.00    -0.241 OA
ATOM     24  O   LIG d   1       5.606  89.477 118.928  0.00  0.00    -0.241 OA
ENDBRANCH   3  22
TORSDOF 7
ENDMDL
MODEL 3
REMARK VINA RESULT:      -4.2      2.777      6.255
REMARK  7 active torsions:
REMARK  status: ('A' for Active; 'I' for Inactive)
REMARK    1  A    between atoms: C_2  and  C_3 
REMARK    2  A    between atoms: C_3  and  O_6 
REMARK    3  A    between atoms: C_3  and  C_4 
REMARK    4  A    between atoms: C_7  and  O_6 
REMARK    5  A    between atoms: C_9  and  C_10 
REMARK    6  A    between atoms: N_15  and  C_14 
REMARK    7  A    between atoms: N_20  and  C_19 
REMARK       I    between atoms: C_22  and  N_20 
ROOT
ATOM      1  C   LIG d   1       2.199  87.120 115.450  0.00  0.00     0.161 C 
ATOM      2  C   LIG d   1       3.328  87.519 116.185  0.00  0.00     0.016 C 
ATOM      3  C   LIG d   1       4.620  87.638 115.622  0.00  0.00     0.038 C 
ATOM      4  C   LIG d   1       4.843  87.511 114.243  0.00  0.00     0.028 C 
ATOM      5  C   LIG d   1       3.826  86.614 113.546  0.00  0.00    -0.047 C 
ATOM      6  C   LIG d   1       2.402  87.084 113.921  0.00  0.00     0.091 C 
ENDROOT
BRANCH   1   7
ATOM      7  O   LIG d   1       1.076  87.957 115.787  0.00  0.00    -0.368 OA
BRANCH   7   8
ATOM      8  C   LIG d   1       0.979  88.365 117.174  0.00  0.00     0.119 C 
BRANCH   8   9
ATOM      9  C   LIG d   1      -0.288  87.713 117.761  0.00  0.00     0.028 C 
ATOM     10  C   LIG d   1      -1.559  88.528 117.466  0.00  0.00     0.006 C 
ENDBRANCH   8   9
BRANCH   8  11
ATOM     11  C   LIG d   1       0.751  89.875 117.296  0.00  0.00     0.028 C 
ATOM     12  C   LIG d   1       2.033  90.644 117.650  0.00  0.00     0.006 C 
ENDBRANCH   8  11
ENDBRANCH   7   8
ENDBRANCH   1   7
BRANCH   6  13
ATOM     13  N   LIG d   1       1.347  86.209 113.348  0.00  0.00    -0.311 N 
ATOM     14  C   LIG d   1       0.744  86.452 112.185  0.00  0.00     0.210 C 
ATOM     15  C   LIG d   1      -0.330  85.434 111.788  0.00  0.00     0.109 C 
ATOM     16  O   LIG d   1       1.019  87.397 111.430  0.00  0.00    -0.276 OA
ATOM     17  H   LIG d   1       1.084  85.402 113.880  0.00  0.00     0.149 HD
ENDBRANCH   6  13
BRANCH   5  18
ATOM     18  N   LIG d   1       4.093  86.680 112.097  0.00  0.00     0.381 N 
ATOM     19  H   LIG d   1       3.395  87.239 111.648  0.00  0.00    -0.090 HD
ATOM     20  H   LIG d   1       4.047  85.752 111.715  0.00  0.00    -0.090 HD
ATOM     21  H   LIG d   1       4.996  87.069 111.934  0.00  0.00    -0.090 HD
ENDBRANCH   5  18
BRANCH   3  22
ATOM     22  C   LIG d   1       5.713  87.849 116.450  0.00  0.00     0.382 C 
ATOM     23  O   LIG d   1       6.640  88.610 116.082  0.00  0.00    -0.241 OA
ATOM     24  O   LIG d   1       5.804  87.252 117.540  0.00  0.00    -0.241 OA
ENDBRANCH   3  22
TORSDOF 7
ENDMDL
MODEL 4
REMARK VINA RESULT:      -4.2      2.408      5.967
REMARK  7 active torsions:
REMARK  status: ('A' for Active; 'I' for Inactive)
REMARK    1  A    between atoms: C_2  and  C_3 
REMARK    2  A    between atoms: C_3  and  O_6 
REMARK    3  A    between atoms: C_3  and  C_4 
REMARK    4  A    between atoms: C_7  and  O_6 
REMARK    5  A    between atoms: C_9  and  C_10 
REMARK    6  A    between atoms: N_15  and  C_14 
REMARK    7  A    between atoms: N_20  and  C_19 
REMARK       I    between atoms: C_22  and  N_20 
ROOT
ATOM      1  C   LIG d   1       3.578  87.387 116.143  0.00  0.00     0.161 C 
ATOM      2  C   LIG d   1       4.342  87.644 114.992  0.00  0.00     0.016 C 
ATOM      3  C   LIG d   1       3.871  87.417 113.679  0.00  0.00     0.038 C 
ATOM      4  C   LIG d   1       2.539  87.059 113.420  0.00  0.00     0.028 C 
ATOM      5  C   LIG d   1       1.882  86.303 114.570  0.00  0.00    -0.047 C 
ATOM      6  C   LIG d   1       2.085  87.102 115.878  0.00  0.00     0.091 C 
ENDROOT
BRANCH   1   7
ATOM      7  O   LIG d   1       3.722  88.476 117.077  0.00  0.00    -0.368 OA
BRANCH   7   8
ATOM      8  C   LIG d   1       3.258  89.771 116.623  0.00  0.00     0.119 C 
BRANCH   8   9
ATOM      9  C   LIG d   1       4.302  90.816 117.062  0.00  0.00     0.028 C 
ATOM     10  C   LIG d   1       5.744  90.296 116.932  0.00  0.00     0.006 C 
ENDBRANCH   8   9
BRANCH   8  11
ATOM     11  C   LIG d   1       1.959  90.176 117.325  0.00  0.00     0.028 C 
ATOM     12  C   LIG d   1       1.913  89.733 118.796  0.00  0.00     0.006 C 
ENDBRANCH   8  11
ENDBRANCH   7   8
ENDBRANCH   1   7
BRANCH   6  13
ATOM     13  N   LIG d   1       1.545  86.391 117.066  0.00  0.00    -0.311 N 
ATOM     14  C   LIG d   1       0.348  86.646 117.591  0.00  0.00     0.210 C 
ATOM     15  C   LIG d   1      -0.006  85.814 118.827  0.00  0.00     0.109 C 
ATOM     16  O   LIG d   1      -0.467  87.460 117.132  0.00  0.00    -0.276 OA
ATOM     17  H   LIG d   1       2.128  85.692 117.483  0.00  0.00     0.149 HD
ENDBRANCH   6  13
BRANCH   5  18
ATOM     18  N   LIG d   1       0.460  86.113 114.223  0.00  0.00     0.381 N 
ATOM     19  H   LIG d   1       0.386  85.665 113.332  0.00  0.00    -0.090 HD
ATOM     20  H   LIG d   1       0.018  87.014 114.161  0.00  0.00    -0.090 HD
ATOM     21  H   LIG d   1       0.010  85.562 114.920  0.00  0.00    -0.090 HD
ENDBRANCH   5  18
BRANCH   3  22
ATOM     22  C   LIG d   1       4.747  87.511 112.608  0.00  0.00     0.382 C 
ATOM     23  O   LIG d   1       5.745  88.268 112.679  0.00  0.00    -0.241 OA
ATOM     24  O   LIG d   1       4.529  86.881 111.556  0.00  0.00    -0.241 OA
ENDBRANCH   3  22
TORSDOF 7
ENDMDL
MODEL 5
REMARK VINA RESULT:      -3.9      2.260      5.059
REMARK  7 active torsions:
REMARK  status: ('A' for Active; 'I' for Inactive)
REMARK    1  A    between atoms: C_2  and  C_3 
REMARK    2  A    between atoms: C_3  and  O_6 
REMARK    3  A    between atoms: C_3  and  C_4 
REMARK    4  A    between atoms: C_7  and  O_6 
REMARK    5  A    between atoms: C_9  and  C_10 
REMARK    6  A    between atoms: N_15  and  C_14 
REMARK    7  A    between atoms: N_20  and  C_19 
REMARK       I    between atoms: C_22  and  N_20 
ROOT
ATOM      1  C   LIG d   1       0.277  89.285 116.660  0.00  0.00     0.161 C 
ATOM      2  C   LIG d   1       1.590  89.593 117.055  0.00  0.00     0.016 C 
ATOM      3  C   LIG d   1       1.909  90.659 117.928  0.00  0.00     0.038 C 
ATOM      4  C   LIG d   1       0.918  91.399 118.588  0.00  0.00     0.028 C 
ATOM      5  C   LIG d   1      -0.405  91.451 117.831  0.00  0.00    -0.047 C 
ATOM      6  C   LIG d   1      -0.826  90.012 117.457  0.00  0.00     0.091 C 
ENDROOT
BRANCH   1   7
ATOM      7  O   LIG d   1       0.074  87.859 116.709  0.00  0.00    -0.368 OA
BRANCH   7   8
ATOM      8  C   LIG d   1       1.248  87.040 116.483  0.00  0.00     0.119 C 
BRANCH   8   9
ATOM      9  C   LIG d   1       1.158  86.489 115.046  0.00  0.00     0.028 C 
ATOM     10  C   LIG d   1       2.496  86.589 114.295  0.00  0.00     0.006 C 
ENDBRANCH   8   9
BRANCH   8  11
ATOM     11  C   LIG d   1       1.250  85.806 117.390  0.00  0.00     0.028 C 
ATOM     12  C   LIG d   1       0.157  85.858 118.469  0.00  0.00     0.006 C 
ENDBRANCH   8  11
ENDBRANCH   7   8
ENDBRANCH   1   7
BRANCH   6  13
ATOM     13  N   LIG d   1      -2.067  89.978 116.641  0.00  0.00    -0.311 N 
ATOM     14  C   LIG d   1      -3.280  89.783 117.157  0.00  0.00     0.210 C 
ATOM     15  C   LIG d   1      -4.422  89.765 116.136  0.00  0.00     0.109 C 
ATOM     16  O   LIG d   1      -3.521  89.656 118.367  0.00  0.00    -0.276 OA
ATOM     17  H   LIG d   1      -1.967  90.104 115.652  0.00  0.00     0.149 HD
ENDBRANCH   6  13
BRANCH   5  18
ATOM     18  N   LIG d   1      -1.386  92.135 118.694  0.00  0.00     0.381 N 
ATOM     19  H   LIG d   1      -2.233  92.293 118.185  0.00  0.00    -0.090 HD
ATOM     20  H   LIG d   1      -1.012  93.026 118.969  0.00  0.00    -0.090 HD
ATOM     21  H   LIG d   1      -1.574  91.582 119.501  0.00  0.00    -0.090 HD
ENDBRANCH   5  18
BRANCH   3  22
ATOM     22  C   LIG d   1       3.235  91.019 118.117  0.00  0.00     0.382 C 
ATOM     23  O   LIG d   1       3.737  91.943 117.433  0.00  0.00    -0.241 OA
ATOM     24  O   LIG d   1       3.948  90.401 118.930  0.00  0.00    -0.241 OA
ENDBRANCH   3  22
TORSDOF 7
ENDMDL
MODEL 6
REMARK VINA RESULT:      -3.7      1.773      2.293
REMARK  7 active torsions:
REMARK  status: ('A' for Active; 'I' for Inactive)
REMARK    1  A    between atoms: C_2  and  C_3 
REMARK    2  A    between atoms: C_3  and  O_6 
REMARK    3  A    between atoms: C_3  and  C_4 
REMARK    4  A    between atoms: C_7  and  O_6 
REMARK    5  A    between atoms: C_9  and  C_10 
REMARK    6  A    between atoms: N_15  and  C_14 
REMARK    7  A    between atoms: N_20  and  C_19 
REMARK       I    between atoms: C_22  and  N_20 
ROOT
ATOM      1  C   LIG d   1       2.255  89.431 117.242  0.00  0.00     0.161 C 
ATOM      2  C   LIG d   1       0.897  89.136 117.034  0.00  0.00     0.016 C 
ATOM      3  C   LIG d   1      -0.155  89.999 117.417  0.00  0.00     0.038 C 
ATOM      4  C   LIG d   1       0.087  91.293 117.901  0.00  0.00     0.028 C 
ATOM      5  C   LIG d   1       1.436  91.437 118.598  0.00  0.00    -0.047 C 
ATOM      6  C   LIG d   1       2.542  90.886 117.668  0.00  0.00     0.091 C 
ENDROOT
BRANCH   1   7
ATOM      7  O   LIG d   1       3.015  89.095 116.065  0.00  0.00    -0.368 OA
BRANCH   7   8
ATOM      8  C   LIG d   1       3.502  87.732 115.988  0.00  0.00     0.119 C 
BRANCH   8   9
ATOM      9  C   LIG d   1       4.729  87.627 116.914  0.00  0.00     0.028 C 
ATOM     10  C   LIG d   1       5.862  88.580 116.498  0.00  0.00     0.006 C 
ENDBRANCH   8   9
BRANCH   8  11
ATOM     11  C   LIG d   1       4.023  87.404 114.586  0.00  0.00     0.028 C 
ATOM     12  C   LIG d   1       3.614  88.452 113.539  0.00  0.00     0.006 C 
ENDBRANCH   8  11
ENDBRANCH   7   8
ENDBRANCH   1   7
BRANCH   6  13
ATOM     13  N   LIG d   1       3.884  90.912 118.306  0.00  0.00    -0.311 N 
ATOM     14  C   LIG d   1       4.747  91.916 118.159  0.00  0.00     0.210 C 
ATOM     15  C   LIG d   1       6.082  91.732 118.887  0.00  0.00     0.109 C 
ATOM     16  O   LIG d   1       4.520  92.955 117.522  0.00  0.00    -0.276 OA
ATOM     17  H   LIG d   1       4.137  90.122 118.867  0.00  0.00     0.149 HD
ENDBRANCH   6  13
BRANCH   5  18
ATOM     18  N   LIG d   1       1.617  92.863 118.929  0.00  0.00     0.381 N 
ATOM     19  H   LIG d   1       2.003  92.951 119.848  0.00  0.00    -0.090 HD
ATOM     20  H   LIG d   1       0.720  93.315 118.920  0.00  0.00    -0.090 HD
ATOM     21  H   LIG d   1       2.221  93.294 118.265  0.00  0.00    -0.090 HD
ENDBRANCH   5  18
BRANCH   3  22
ATOM     22  C   LIG d   1      -1.466  89.554 117.354  0.00  0.00     0.382 C 
ATOM     23  O   LIG d   1      -2.407  90.331 117.646  0.00  0.00    -0.241 OA
ATOM     24  O   LIG d   1      -1.719  88.372 117.052  0.00  0.00    -0.241 OA
ENDBRANCH   3  22
TORSDOF 7
ENDMDL
MODEL 7
REMARK VINA RESULT:      -3.7      2.594      5.051
REMARK  7 active torsions:
REMARK  status: ('A' for Active; 'I' for Inactive)
REMARK    1  A    between atoms: C_2  and  C_3 
REMARK    2  A    between atoms: C_3  and  O_6 
REMARK    3  A    between atoms: C_3  and  C_4 
REMARK    4  A    between atoms: C_7  and  O_6 
REMARK    5  A    between atoms: C_9  and  C_10 
REMARK    6  A    between atoms: N_15  and  C_14 
REMARK    7  A    between atoms: N_20  and  C_19 
REMARK       I    between atoms: C_22  and  N_20 
ROOT
ATOM      1  C   LIG d   1       3.695  89.391 116.325  0.00  0.00     0.161 C 
ATOM      2  C   LIG d   1       3.175  89.034 115.070  0.00  0.00     0.016 C 
ATOM      3  C   LIG d   1       3.595  87.892 114.350  0.00  0.00     0.038 C 
ATOM      4  C   LIG d   1       4.460  86.939 114.910  0.00  0.00     0.028 C 
ATOM      5  C   LIG d   1       5.395  87.517 115.967  0.00  0.00    -0.047 C 
ATOM      6  C   LIG d   1       4.558  88.305 117.001  0.00  0.00     0.091 C 
ENDROOT
BRANCH   1   7
ATOM      7  O   LIG d   1       2.623  89.796 117.200  0.00  0.00    -0.368 OA
BRANCH   7   8
ATOM      8  C   LIG d   1       1.331  89.192 116.947  0.00  0.00     0.119 C 
BRANCH   8   9
ATOM      9  C   LIG d   1       0.257  90.260 117.229  0.00  0.00     0.028 C 
ATOM     10  C   LIG d   1      -1.164  89.672 117.251  0.00  0.00     0.006 C 
ENDBRANCH   8   9
BRANCH   8  11
ATOM     11  C   LIG d   1       1.043  88.056 117.934  0.00  0.00     0.028 C 
ATOM     12  C   LIG d   1       1.126  86.666 117.283  0.00  0.00     0.006 C 
ENDBRANCH   8  11
ENDBRANCH   7   8
ENDBRANCH   1   7
BRANCH   6  13
ATOM     13  N   LIG d   1       5.403  88.974 118.024  0.00  0.00    -0.311 N 
ATOM     14  C   LIG d   1       6.349  89.863 117.725  0.00  0.00     0.210 C 
ATOM     15  C   LIG d   1       7.118  90.417 118.929  0.00  0.00     0.109 C 
ATOM     16  O   LIG d   1       6.602  90.270 116.581  0.00  0.00    -0.276 OA
ATOM     17  H   LIG d   1       5.244  88.726 118.980  0.00  0.00     0.149 HD
ENDBRANCH   6  13
BRANCH   5  18
ATOM     18  N   LIG d   1       6.142  86.394 116.563  0.00  0.00     0.381 N 
ATOM     19  H   LIG d   1       6.865  86.098 115.938  0.00  0.00    -0.090 HD
ATOM     20  H   LIG d   1       5.513  85.624 116.705  0.00  0.00    -0.090 HD
ATOM     21  H   LIG d   1       6.539  86.673 117.434  0.00  0.00    -0.090 HD
ENDBRANCH   5  18
BRANCH   3  22
ATOM     22  C   LIG d   1       3.179  87.713 113.040  0.00  0.00     0.382 C 
ATOM     23  O   LIG d   1       2.425  88.560 112.501  0.00  0.00    -0.241 OA
ATOM     24  O   LIG d   1       3.511  86.695 112.404  0.00  0.00    -0.241 OA
ENDBRANCH   3  22
TORSDOF 7
ENDMDL
MODEL 8
REMARK VINA RESULT:      -3.7      1.937      4.067
REMARK  7 active torsions:
REMARK  status: ('A' for Active; 'I' for Inactive)
REMARK    1  A    between atoms: C_2  and  C_3 
REMARK    2  A    between atoms: C_3  and  O_6 
REMARK    3  A    between atoms: C_3  and  C_4 
REMARK    4  A    between atoms: C_7  and  O_6 
REMARK    5  A    between atoms: C_9  and  C_10 
REMARK    6  A    between atoms: N_15  and  C_14 
REMARK    7  A    between atoms: N_20  and  C_19 
REMARK       I    between atoms: C_22  and  N_20 
ROOT
ATOM      1  C   LIG d   1       2.286  89.239 116.602  0.00  0.00     0.161 C 
ATOM      2  C   LIG d   1       1.018  89.572 117.105  0.00  0.00     0.016 C 
ATOM      3  C   LIG d   1      -0.058  88.657 117.173  0.00  0.00     0.038 C 
ATOM      4  C   LIG d   1       0.109  87.295 116.882  0.00  0.00     0.028 C 
ATOM      5  C   LIG d   1       1.236  87.021 115.892  0.00  0.00    -0.047 C 
ATOM      6  C   LIG d   1       2.519  87.729 116.383  0.00  0.00     0.091 C 
ENDROOT
BRANCH   1   7
ATOM      7  O   LIG d   1       3.310  89.784 117.458  0.00  0.00    -0.368 OA
BRANCH   7   8
ATOM      8  C   LIG d   1       4.061  90.901 116.922  0.00  0.00     0.119 C 
BRANCH   8   9
ATOM      9  C   LIG d   1       5.494  90.405 116.646  0.00  0.00     0.028 C 
ATOM     10  C   LIG d   1       5.937  89.311 117.633  0.00  0.00     0.006 C 
ENDBRANCH   8   9
BRANCH   8  11
ATOM     11  C   LIG d   1       4.212  92.020 117.956  0.00  0.00     0.028 C 
ATOM     12  C   LIG d   1       2.953  92.207 118.818  0.00  0.00     0.006 C 
ENDBRANCH   8  11
ENDBRANCH   7   8
ENDBRANCH   1   7
BRANCH   6  13
ATOM     13  N   LIG d   1       3.648  87.582 115.429  0.00  0.00    -0.311 N 
ATOM     14  C   LIG d   1       3.648  88.109 114.206  0.00  0.00     0.210 C 
ATOM     15  C   LIG d   1       4.904  87.821 113.377  0.00  0.00     0.109 C 
ATOM     16  O   LIG d   1       2.742  88.816 113.740  0.00  0.00    -0.276 OA
ATOM     17  H   LIG d   1       4.439  87.050 115.736  0.00  0.00     0.149 HD
ENDBRANCH   6  13
BRANCH   5  18
ATOM     18  N   LIG d   1       1.388  85.557 115.784  0.00  0.00     0.381 N 
ATOM     19  H   LIG d   1       2.125  85.249 116.386  0.00  0.00    -0.090 HD
ATOM     20  H   LIG d   1       1.635  85.325 114.838  0.00  0.00    -0.090 HD
ATOM     21  H   LIG d   1       0.535  85.106 116.034  0.00  0.00    -0.090 HD
ENDBRANCH   5  18
BRANCH   3  22
ATOM     22  C   LIG d   1      -1.327  89.111 117.499  0.00  0.00     0.382 C 
ATOM     23  O   LIG d   1      -2.200  88.301 117.894  0.00  0.00    -0.241 OA
ATOM     24  O   LIG d   1      -1.622  90.313 117.362  0.00  0.00    -0.241 OA
ENDBRANCH   3  22
TORSDOF 7
ENDMDL
MODEL 9
REMARK VINA RESULT:      -3.4      5.991      9.038
REMARK  7 active torsions:
REMARK  status: ('A' for Active; 'I' for Inactive)
REMARK    1  A    between atoms: C_2  and  C_3 
REMARK    2  A    between atoms: C_3  and  O_6 
REMARK    3  A    between atoms: C_3  and  C_4 
REMARK    4  A    between atoms: C_7  and  O_6 
REMARK    5  A    between atoms: C_9  and  C_10 
REMARK    6  A    between atoms: N_15  and  C_14 
REMARK    7  A    between atoms: N_20  and  C_19 
REMARK       I    between atoms: C_22  and  N_20 
ROOT
ATOM      1  C   LIG d   1      -6.299  91.183 118.367  0.00  0.00     0.161 C 
ATOM      2  C   LIG d   1      -7.285  92.183 118.343  0.00  0.00     0.016 C 
ATOM      3  C   LIG d   1      -6.995  93.564 118.426  0.00  0.00     0.038 C 
ATOM      4  C   LIG d   1      -5.679  94.049 118.387  0.00  0.00     0.028 C 
ATOM      5  C   LIG d   1      -4.651  93.056 118.920  0.00  0.00    -0.047 C 
ATOM      6  C   LIG d   1      -4.852  91.697 118.212  0.00  0.00     0.091 C 
ENDROOT
BRANCH   1   7
ATOM      7  O   LIG d   1      -6.587  90.188 117.364  0.00  0.00    -0.368 OA
BRANCH   7   8
ATOM      8  C   LIG d   1      -7.477  90.598 116.297  0.00  0.00     0.119 C 
BRANCH   8   9
ATOM      9  C   LIG d   1      -8.565  89.516 116.159  0.00  0.00     0.028 C 
ATOM     10  C   LIG d   1      -9.471  89.746 114.938  0.00  0.00     0.006 C 
ENDBRANCH   8   9
BRANCH   8  11
ATOM     11  C   LIG d   1      -6.755  90.621 114.947  0.00  0.00     0.028 C 
ATOM     12  C   LIG d   1      -6.335  92.037 114.520  0.00  0.00     0.006 C 
ENDBRANCH   8  11
ENDBRANCH   7   8
ENDBRANCH   1   7
BRANCH   6  13
ATOM     13  N   LIG d   1      -3.942  90.645 118.735  0.00  0.00    -0.311 N 
ATOM     14  C   LIG d   1      -3.231  89.836 117.952  0.00  0.00     0.210 C 
ATOM     15  C   LIG d   1      -2.371  88.808 118.696  0.00  0.00     0.109 C 
ATOM     16  O   LIG d   1      -3.204  89.893 116.714  0.00  0.00    -0.276 OA
ATOM     17  H   LIG d   1      -3.879  90.550 119.730  0.00  0.00     0.149 HD
ENDBRANCH   6  13
BRANCH   5  18
ATOM     18  N   LIG d   1      -3.313  93.634 118.693  0.00  0.00     0.381 N 
ATOM     19  H   LIG d   1      -2.767  93.013 118.131  0.00  0.00    -0.090 HD
ATOM     20  H   LIG d   1      -2.853  93.745 119.579  0.00  0.00    -0.090 HD
ATOM     21  H   LIG d   1      -3.396  94.518 118.241  0.00  0.00    -0.090 HD
ENDBRANCH   5  18
BRANCH   3  22
ATOM     22  C   LIG d   1      -8.027  94.475 118.591  0.00  0.00     0.382 C 
ATOM     23  O   LIG d   1      -9.182  94.070 118.869  0.00  0.00    -0.241 OA
ATOM     24  O   LIG d   1      -7.829  95.693 118.421  0.00  0.00    -0.241 OA
ENDBRANCH   3  22
TORSDOF 7
ENDMDL
