MODEL 1
REMARK VINA RESULT:      -4.9      0.000      0.000
REMARK  7 active torsions:
REMARK  status: ('A' for Active; 'I' for Inactive)
REMARK    1  A    between atoms: C_2  and  C_3 
REMARK    2  A    between atoms: C_3  and  O_6 
REMARK    3  A    between atoms: C_3  and  C_4 
REMARK    4  A    between atoms: C_7  and  O_6 
REMARK    5  A    between atoms: C_9  and  C_10 
REMARK    6  A    between atoms: N_15  and  C_14 
REMARK    7  A    between atoms: N_20  and  C_19 
REMARK       I    between atoms: C_22  and  N_20 
ROOT
ATOM      1  C   LIG d   1       2.801  88.027 115.386  0.00  0.00     0.161 C 
ATOM      2  C   LIG d   1       2.904  89.030 116.364  0.00  0.00     0.016 C 
ATOM      3  C   LIG d   1       3.764  90.146 116.248  0.00  0.00     0.038 C 
ATOM      4  C   LIG d   1       4.473  90.415 115.068  0.00  0.00     0.028 C 
ATOM      5  C   LIG d   1       4.788  89.166 114.252  0.00  0.00    -0.047 C 
ATOM      6  C   LIG d   1       3.484  88.362 114.043  0.00  0.00     0.091 C 
ENDROOT
BRANCH   1   7
ATOM      7  O   LIG d   1       1.416  87.692 115.174  0.00  0.00    -0.368 OA
BRANCH   7   8
ATOM      8  C   LIG d   1       0.880  86.638 116.010  0.00  0.00     0.119 C 
BRANCH   8   9
ATOM      9  C   LIG d   1       2.049  85.708 116.390  0.00  0.00     0.028 C 
ATOM     10  C   LIG d   1       2.187  85.531 117.912  0.00  0.00     0.006 C 
ENDBRANCH   8   9
BRANCH   8  11
ATOM     11  C   LIG d   1      -0.104  85.756 115.235  0.00  0.00     0.028 C 
ATOM     12  C   LIG d   1       0.275  85.602 113.753  0.00  0.00     0.006 C 
ENDBRANCH   8  11
ENDBRANCH   7   8
ENDBRANCH   1   7
BRANCH   6  13
ATOM     13  N   LIG d   1       3.717  87.081 113.326  0.00  0.00    -0.311 N 
ATOM     14  C   LIG d   1       3.228  86.819 112.116  0.00  0.00     0.210 C 
ATOM     15  C   LIG d   1       3.570  85.431 111.566  0.00  0.00     0.109 C 
ATOM     16  O   LIG d   1       2.569  87.617 111.431  0.00  0.00    -0.276 OA
ATOM     17  H   LIG d   1       4.267  86.389 113.796  0.00  0.00     0.149 HD
ENDBRANCH   6  13
BRANCH   5  18
ATOM     18  N   LIG d   1       5.405  89.604 112.986  0.00  0.00     0.381 N 
ATOM     19  H   LIG d   1       4.757  89.483 112.233  0.00  0.00    -0.090 HD
ATOM     20  H   LIG d   1       6.211  89.034 112.803  0.00  0.00    -0.090 HD
ATOM     21  H   LIG d   1       5.674  90.561 113.051  0.00  0.00    -0.090 HD
ENDBRANCH   5  18
BRANCH   3  22
ATOM     22  C   LIG d   1       3.951  90.986 117.335  0.00  0.00     0.382 C 
ATOM     23  O   LIG d   1       4.174  90.502 118.470  0.00  0.00    -0.241 OA
ATOM     24  O   LIG d   1       3.857  92.221 117.203  0.00  0.00    -0.241 OA
ENDBRANCH   3  22
TORSDOF 7
ENDMDL
MODEL 2
REMARK VINA RESULT:      -4.6      2.376      5.555
REMARK  7 active torsions:
REMARK  status: ('A' for Active; 'I' for Inactive)
REMARK    1  A    between atoms: C_2  and  C_3 
REMARK    2  A    between atoms: C_3  and  O_6 
REMARK    3  A    between atoms: C_3  and  C_4 
REMARK    4  A    between atoms: C_7  and  O_6 
REMARK    5  A    between atoms: C_9  and  C_10 
REMARK    6  A    between atoms: N_15  and  C_14 
REMARK    7  A    between atoms: N_20  and  C_19 
REMARK       I    between atoms: C_22  and  N_20 
ROOT
ATOM      1  C   LIG d   1       4.578  89.755 114.672  0.00  0.00     0.161 C 
ATOM      2  C   LIG d   1       3.883  89.176 113.596  0.00  0.00     0.016 C 
ATOM      3  C   LIG d   1       3.943  87.799 113.282  0.00  0.00     0.038 C 
ATOM      4  C   LIG d   1       4.586  86.875 114.118  0.00  0.00     0.028 C 
ATOM      5  C   LIG d   1       5.721  87.484 114.935  0.00  0.00    -0.047 C 
ATOM      6  C   LIG d   1       5.196  88.744 115.661  0.00  0.00     0.091 C 
ENDROOT
BRANCH   1   7
ATOM      7  O   LIG d   1       3.718  90.677 115.370  0.00  0.00    -0.368 OA
BRANCH   7   8
ATOM      8  C   LIG d   1       3.138  90.196 116.607  0.00  0.00     0.119 C 
BRANCH   8   9
ATOM      9  C   LIG d   1       1.664  89.849 116.324  0.00  0.00     0.028 C 
ATOM     10  C   LIG d   1       1.386  88.340 116.425  0.00  0.00     0.006 C 
ENDBRANCH   8   9
BRANCH   8  11
ATOM     11  C   LIG d   1       3.098  91.299 117.670  0.00  0.00     0.028 C 
ATOM     12  C   LIG d   1       1.753  92.041 117.707  0.00  0.00     0.006 C 
ENDBRANCH   8  11
ENDBRANCH   7   8
ENDBRANCH   1   7
BRANCH   6  13
ATOM     13  N   LIG d   1       6.264  89.450 116.416  0.00  0.00    -0.311 N 
ATOM     14  C   LIG d   1       6.513  89.235 117.707  0.00  0.00     0.210 C 
ATOM     15  C   LIG d   1       7.644  90.082 118.297  0.00  0.00     0.109 C 
ATOM     16  O   LIG d   1       5.925  88.400 118.411  0.00  0.00    -0.276 OA
ATOM     17  H   LIG d   1       6.809  90.122 115.914  0.00  0.00     0.149 HD
ENDBRANCH   6  13
BRANCH   5  18
ATOM     18  N   LIG d   1       6.211  86.446 115.861  0.00  0.00     0.381 N 
ATOM     19  H   LIG d   1       5.846  86.610 116.778  0.00  0.00    -0.090 HD
ATOM     20  H   LIG d   1       7.213  86.498 115.906  0.00  0.00    -0.090 HD
ATOM     21  H   LIG d   1       5.932  85.545 115.541  0.00  0.00    -0.090 HD
ENDBRANCH   5  18
BRANCH   3  22
ATOM     22  C   LIG d   1       3.388  87.340 112.097  0.00  0.00     0.382 C 
ATOM     23  O   LIG d   1       2.445  87.971 111.561  0.00  0.00    -0.241 OA
ATOM     24  O   LIG d   1       3.788  86.280 111.581  0.00  0.00    -0.241 OA
ENDBRANCH   3  22
TORSDOF 7
ENDMDL
MODEL 3
REMARK VINA RESULT:      -4.4      2.683      3.176
REMARK  7 active torsions:
REMARK  status: ('A' for Active; 'I' for Inactive)
REMARK    1  A    between atoms: C_2  and  C_3 
REMARK    2  A    between atoms: C_3  and  O_6 
REMARK    3  A    between atoms: C_3  and  C_4 
REMARK    4  A    between atoms: C_7  and  O_6 
REMARK    5  A    between atoms: C_9  and  C_10 
REMARK    6  A    between atoms: N_15  and  C_14 
REMARK    7  A    between atoms: N_20  and  C_19 
REMARK       I    between atoms: C_22  and  N_20 
ROOT
ATOM      1  C   LIG d   1       4.422  86.168 115.491  0.00  0.00     0.161 C 
ATOM      2  C   LIG d   1       5.491  86.264 116.399  0.00  0.00     0.016 C 
ATOM      3  C   LIG d   1       6.588  87.137 116.219  0.00  0.00     0.038 C 
ATOM      4  C   LIG d   1       6.617  88.089 115.189  0.00  0.00     0.028 C 
ATOM      5  C   LIG d   1       5.803  87.682 113.965  0.00  0.00    -0.047 C 
ATOM      6  C   LIG d   1       4.382  87.277 114.420  0.00  0.00     0.091 C 
ENDROOT
BRANCH   1   7
ATOM      7  O   LIG d   1       3.174  86.120 116.210  0.00  0.00    -0.368 OA
BRANCH   7   8
ATOM      8  C   LIG d   1       2.452  87.371 116.317  0.00  0.00     0.119 C 
BRANCH   8   9
ATOM      9  C   LIG d   1       2.512  87.816 117.791  0.00  0.00     0.028 C 
ATOM     10  C   LIG d   1       3.582  88.893 118.036  0.00  0.00     0.006 C 
ENDBRANCH   8   9
BRANCH   8  11
ATOM     11  C   LIG d   1       0.963  87.183 116.010  0.00  0.00     0.028 C 
ATOM     12  C   LIG d   1       0.668  85.866 115.275  0.00  0.00     0.006 C 
ENDBRANCH   8  11
ENDBRANCH   7   8
ENDBRANCH   1   7
BRANCH   6  13
ATOM     13  N   LIG d   1       3.546  86.785 113.294  0.00  0.00    -0.311 N 
ATOM     14  C   LIG d   1       2.812  87.584 112.522  0.00  0.00     0.210 C 
ATOM     15  C   LIG d   1       2.008  86.870 111.431  0.00  0.00     0.109 C 
ATOM     16  O   LIG d   1       2.776  88.820 112.616  0.00  0.00    -0.276 OA
ATOM     17  H   LIG d   1       3.541  85.798 113.127  0.00  0.00     0.149 HD
ENDBRANCH   6  13
BRANCH   5  18
ATOM     18  N   LIG d   1       5.808  88.821 113.028  0.00  0.00     0.381 N 
ATOM     19  H   LIG d   1       5.679  88.490 112.092  0.00  0.00    -0.090 HD
ATOM     20  H   LIG d   1       6.699  89.281 113.080  0.00  0.00    -0.090 HD
ATOM     21  H   LIG d   1       5.081  89.460 113.265  0.00  0.00    -0.090 HD
ENDBRANCH   5  18
BRANCH   3  22
ATOM     22  C   LIG d   1       7.691  87.036 117.053  0.00  0.00     0.382 C 
ATOM     23  O   LIG d   1       7.684  86.219 118.006  0.00  0.00    -0.241 OA
ATOM     24  O   LIG d   1       8.675  87.782 116.892  0.00  0.00    -0.241 OA
ENDBRANCH   3  22
TORSDOF 7
ENDMDL
MODEL 4
REMARK VINA RESULT:      -4.4      4.353      6.122
REMARK  7 active torsions:
REMARK  status: ('A' for Active; 'I' for Inactive)
REMARK    1  A    between atoms: C_2  and  C_3 
REMARK    2  A    between atoms: C_3  and  O_6 
REMARK    3  A    between atoms: C_3  and  C_4 
REMARK    4  A    between atoms: C_7  and  O_6 
REMARK    5  A    between atoms: C_9  and  C_10 
REMARK    6  A    between atoms: N_15  and  C_14 
REMARK    7  A    between atoms: N_20  and  C_19 
REMARK       I    between atoms: C_22  and  N_20 
ROOT
ATOM      1  C   LIG d   1       0.138  89.900 117.377  0.00  0.00     0.161 C 
ATOM      2  C   LIG d   1      -1.260  89.894 117.242  0.00  0.00     0.016 C 
ATOM      3  C   LIG d   1      -2.076  91.010 117.541  0.00  0.00     0.038 C 
ATOM      4  C   LIG d   1      -1.530  92.264 117.854  0.00  0.00     0.028 C 
ATOM      5  C   LIG d   1      -0.148  92.181 118.492  0.00  0.00    -0.047 C 
ATOM      6  C   LIG d   1       0.760  91.293 117.610  0.00  0.00     0.091 C 
ENDROOT
BRANCH   1   7
ATOM      7  O   LIG d   1       0.742  89.267 116.232  0.00  0.00    -0.368 OA
BRANCH   7   8
ATOM      8  C   LIG d   1       1.338  87.967 116.463  0.00  0.00     0.119 C 
BRANCH   8   9
ATOM      9  C   LIG d   1       2.665  87.920 115.679  0.00  0.00     0.028 C 
ATOM     10  C   LIG d   1       3.101  89.308 115.182  0.00  0.00     0.006 C 
ENDBRANCH   8   9
BRANCH   8  11
ATOM     11  C   LIG d   1       0.478  86.846 115.871  0.00  0.00     0.028 C 
ATOM     12  C   LIG d   1       1.269  85.919 114.934  0.00  0.00     0.006 C 
ENDBRANCH   8  11
ENDBRANCH   7   8
ENDBRANCH   1   7
BRANCH   6  13
ATOM     13  N   LIG d   1       2.106  91.090 118.206  0.00  0.00    -0.311 N 
ATOM     14  C   LIG d   1       3.153  91.866 117.932  0.00  0.00     0.210 C 
ATOM     15  C   LIG d   1       4.454  91.471 118.638  0.00  0.00     0.109 C 
ATOM     16  O   LIG d   1       3.121  92.863 117.195  0.00  0.00    -0.276 OA
ATOM     17  H   LIG d   1       2.214  90.322 118.839  0.00  0.00     0.149 HD
ENDBRANCH   6  13
BRANCH   5  18
ATOM     18  N   LIG d   1       0.359  93.559 118.638  0.00  0.00     0.381 N 
ATOM     19  H   LIG d   1       1.054  93.740 117.942  0.00  0.00    -0.090 HD
ATOM     20  H   LIG d   1       0.786  93.654 119.543  0.00  0.00    -0.090 HD
ATOM     21  H   LIG d   1      -0.390  94.209 118.547  0.00  0.00    -0.090 HD
ENDBRANCH   5  18
BRANCH   3  22
ATOM     22  C   LIG d   1      -3.454  90.866 117.568  0.00  0.00     0.382 C 
ATOM     23  O   LIG d   1      -4.002  89.947 116.911  0.00  0.00    -0.241 OA
ATOM     24  O   LIG d   1      -4.161  91.670 118.204  0.00  0.00    -0.241 OA
ENDBRANCH   3  22
TORSDOF 7
ENDMDL
MODEL 5
REMARK VINA RESULT:      -4.3      3.414      4.707
REMARK  7 active torsions:
REMARK  status: ('A' for Active; 'I' for Inactive)
REMARK    1  A    between atoms: C_2  and  C_3 
REMARK    2  A    between atoms: C_3  and  O_6 
REMARK    3  A    between atoms: C_3  and  C_4 
REMARK    4  A    between atoms: C_7  and  O_6 
REMARK    5  A    between atoms: C_9  and  C_10 
REMARK    6  A    between atoms: N_15  and  C_14 
REMARK    7  A    between atoms: N_20  and  C_19 
REMARK       I    between atoms: C_22  and  N_20 
ROOT
ATOM      1  C   LIG d   1       1.308  89.158 116.715  0.00  0.00     0.161 C 
ATOM      2  C   LIG d   1      -0.077  89.346 116.858  0.00  0.00     0.016 C 
ATOM      3  C   LIG d   1      -0.653  90.539 117.349  0.00  0.00     0.038 C 
ATOM      4  C   LIG d   1       0.114  91.689 117.592  0.00  0.00     0.028 C 
ATOM      5  C   LIG d   1       1.566  91.384 117.943  0.00  0.00    -0.047 C 
ATOM      6  C   LIG d   1       2.154  90.440 116.870  0.00  0.00     0.091 C 
ENDROOT
BRANCH   1   7
ATOM      7  O   LIG d   1       1.588  88.523 115.452  0.00  0.00    -0.368 OA
BRANCH   7   8
ATOM      8  C   LIG d   1       2.121  87.177 115.520  0.00  0.00     0.119 C 
BRANCH   8   9
ATOM      9  C   LIG d   1       3.439  87.161 114.722  0.00  0.00     0.028 C 
ATOM     10  C   LIG d   1       4.528  86.315 115.404  0.00  0.00     0.006 C 
ENDBRANCH   8   9
BRANCH   8  11
ATOM     11  C   LIG d   1       1.204  86.178 114.809  0.00  0.00     0.028 C 
ATOM     12  C   LIG d   1      -0.034  85.809 115.641  0.00  0.00     0.006 C 
ENDBRANCH   8  11
ENDBRANCH   7   8
ENDBRANCH   1   7
BRANCH   6  13
ATOM     13  N   LIG d   1       3.547  90.024 117.182  0.00  0.00    -0.311 N 
ATOM     14  C   LIG d   1       4.574  90.228 116.359  0.00  0.00     0.210 C 
ATOM     15  C   LIG d   1       5.922  89.704 116.866  0.00  0.00     0.109 C 
ATOM     16  O   LIG d   1       4.503  90.822 115.272  0.00  0.00    -0.276 OA
ATOM     17  H   LIG d   1       3.700  89.563 118.057  0.00  0.00     0.149 HD
ENDBRANCH   6  13
BRANCH   5  18
ATOM     18  N   LIG d   1       2.281  92.671 118.034  0.00  0.00     0.381 N 
ATOM     19  H   LIG d   1       3.233  92.551 117.749  0.00  0.00    -0.090 HD
ATOM     20  H   LIG d   1       2.275  92.979 118.991  0.00  0.00    -0.090 HD
ATOM     21  H   LIG d   1       1.837  93.350 117.456  0.00  0.00    -0.090 HD
ENDBRANCH   5  18
BRANCH   3  22
ATOM     22  C   LIG d   1      -2.008  90.578 117.642  0.00  0.00     0.382 C 
ATOM     23  O   LIG d   1      -2.820  89.926 116.941  0.00  0.00    -0.241 OA
ATOM     24  O   LIG d   1      -2.435  91.292 118.569  0.00  0.00    -0.241 OA
ENDBRANCH   3  22
TORSDOF 7
ENDMDL
MODEL 6
REMARK VINA RESULT:      -4.2      2.147      5.020
REMARK  7 active torsions:
REMARK  status: ('A' for Active; 'I' for Inactive)
REMARK    1  A    between atoms: C_2  and  C_3 
REMARK    2  A    between atoms: C_3  and  O_6 
REMARK    3  A    between atoms: C_3  and  C_4 
REMARK    4  A    between atoms: C_7  and  O_6 
REMARK    5  A    between atoms: C_9  and  C_10 
REMARK    6  A    between atoms: N_15  and  C_14 
REMARK    7  A    between atoms: N_20  and  C_19 
REMARK       I    between atoms: C_22  and  N_20 
ROOT
ATOM      1  C   LIG d   1       3.582  89.506 115.275  0.00  0.00     0.161 C 
ATOM      2  C   LIG d   1       3.001  88.797 114.211  0.00  0.00     0.016 C 
ATOM      3  C   LIG d   1       3.690  87.817 113.460  0.00  0.00     0.038 C 
ATOM      4  C   LIG d   1       4.968  87.368 113.824  0.00  0.00     0.028 C 
ATOM      5  C   LIG d   1       5.784  88.411 114.581  0.00  0.00    -0.047 C 
ATOM      6  C   LIG d   1       4.939  88.951 115.757  0.00  0.00     0.091 C 
ENDROOT
BRANCH   1   7
ATOM      7  O   LIG d   1       2.653  89.584 116.375  0.00  0.00    -0.368 OA
BRANCH   7   8
ATOM      8  C   LIG d   1       1.529  88.671 116.325  0.00  0.00     0.119 C 
BRANCH   8   9
ATOM      9  C   LIG d   1       0.280  89.451 116.780  0.00  0.00     0.028 C 
ATOM     10  C   LIG d   1       0.613  90.884 117.229  0.00  0.00     0.006 C 
ENDBRANCH   8   9
BRANCH   8  11
ATOM     11  C   LIG d   1       1.688  87.535 117.339  0.00  0.00     0.028 C 
ATOM     12  C   LIG d   1       1.528  86.144 116.706  0.00  0.00     0.006 C 
ENDBRANCH   8  11
ENDBRANCH   7   8
ENDBRANCH   1   7
BRANCH   6  13
ATOM     13  N   LIG d   1       5.630  90.037 116.500  0.00  0.00    -0.311 N 
ATOM     14  C   LIG d   1       6.396  89.822 117.568  0.00  0.00     0.210 C 
ATOM     15  C   LIG d   1       6.999  91.083 118.195  0.00  0.00     0.109 C 
ATOM     16  O   LIG d   1       6.661  88.704 118.035  0.00  0.00    -0.276 OA
ATOM     17  H   LIG d   1       5.496  90.973 116.170  0.00  0.00     0.149 HD
ENDBRANCH   6  13
BRANCH   5  18
ATOM     18  N   LIG d   1       7.036  87.766 115.017  0.00  0.00     0.381 N 
ATOM     19  H   LIG d   1       6.890  87.297 115.889  0.00  0.00    -0.090 HD
ATOM     20  H   LIG d   1       7.736  88.475 115.154  0.00  0.00    -0.090 HD
ATOM     21  H   LIG d   1       7.343  87.115 114.328  0.00  0.00    -0.090 HD
ENDBRANCH   5  18
BRANCH   3  22
ATOM     22  C   LIG d   1       3.114  87.303 112.308  0.00  0.00     0.382 C 
ATOM     23  O   LIG d   1       3.320  86.109 111.984  0.00  0.00    -0.241 OA
ATOM     24  O   LIG d   1       2.428  88.031 111.566  0.00  0.00    -0.241 OA
ENDBRANCH   3  22
TORSDOF 7
ENDMDL
MODEL 7
REMARK VINA RESULT:      -4.2      2.961      4.279
REMARK  7 active torsions:
REMARK  status: ('A' for Active; 'I' for Inactive)
REMARK    1  A    between atoms: C_2  and  C_3 
REMARK    2  A    between atoms: C_3  and  O_6 
REMARK    3  A    between atoms: C_3  and  C_4 
REMARK    4  A    between atoms: C_7  and  O_6 
REMARK    5  A    between atoms: C_9  and  C_10 
REMARK    6  A    between atoms: N_15  and  C_14 
REMARK    7  A    between atoms: N_20  and  C_19 
REMARK       I    between atoms: C_22  and  N_20 
ROOT
ATOM      1  C   LIG d   1       4.211  88.594 116.734  0.00  0.00     0.161 C 
ATOM      2  C   LIG d   1       3.461  89.780 116.809  0.00  0.00     0.016 C 
ATOM      3  C   LIG d   1       4.030  91.045 117.079  0.00  0.00     0.038 C 
ATOM      4  C   LIG d   1       5.418  91.235 117.144  0.00  0.00     0.028 C 
ATOM      5  C   LIG d   1       6.180  89.987 117.577  0.00  0.00    -0.047 C 
ATOM      6  C   LIG d   1       5.740  88.798 116.693  0.00  0.00     0.091 C 
ENDROOT
BRANCH   1   7
ATOM      7  O   LIG d   1       3.779  87.812 115.603  0.00  0.00    -0.368 OA
BRANCH   7   8
ATOM      8  C   LIG d   1       4.560  87.959 114.392  0.00  0.00     0.119 C 
BRANCH   8   9
ATOM      9  C   LIG d   1       3.677  88.685 113.357  0.00  0.00     0.028 C 
ATOM     10  C   LIG d   1       3.162  87.740 112.259  0.00  0.00     0.006 C 
ENDBRANCH   8   9
BRANCH   8  11
ATOM     11  C   LIG d   1       4.881  86.598 113.767  0.00  0.00     0.028 C 
ATOM     12  C   LIG d   1       4.683  85.431 114.747  0.00  0.00     0.006 C 
ENDBRANCH   8  11
ENDBRANCH   7   8
ENDBRANCH   1   7
BRANCH   6  13
ATOM     13  N   LIG d   1       6.376  87.520 117.105  0.00  0.00    -0.311 N 
ATOM     14  C   LIG d   1       7.515  87.066 116.584  0.00  0.00     0.210 C 
ATOM     15  C   LIG d   1       7.986  85.717 117.135  0.00  0.00     0.109 C 
ATOM     16  O   LIG d   1       8.196  87.669 115.741  0.00  0.00    -0.276 OA
ATOM     17  H   LIG d   1       5.906  86.982 117.806  0.00  0.00     0.149 HD
ENDBRANCH   6  13
BRANCH   5  18
ATOM     18  N   LIG d   1       7.621  90.286 117.470  0.00  0.00     0.381 N 
ATOM     19  H   LIG d   1       8.142  89.432 117.437  0.00  0.00    -0.090 HD
ATOM     20  H   LIG d   1       7.908  90.800 118.284  0.00  0.00    -0.090 HD
ATOM     21  H   LIG d   1       7.798  90.823 116.649  0.00  0.00    -0.090 HD
ENDBRANCH   5  18
BRANCH   3  22
ATOM     22  C   LIG d   1       3.204  92.131 117.327  0.00  0.00     0.382 C 
ATOM     23  O   LIG d   1       1.969  91.960 117.468  0.00  0.00    -0.241 OA
ATOM     24  O   LIG d   1       3.672  93.285 117.366  0.00  0.00    -0.241 OA
ENDBRANCH   3  22
TORSDOF 7
ENDMDL
MODEL 8
REMARK VINA RESULT:      -4.1      2.708      5.396
REMARK  7 active torsions:
REMARK  status: ('A' for Active; 'I' for Inactive)
REMARK    1  A    between atoms: C_2  and  C_3 
REMARK    2  A    between atoms: C_3  and  O_6 
REMARK    3  A    between atoms: C_3  and  C_4 
REMARK    4  A    between atoms: C_7  and  O_6 
REMARK    5  A    between atoms: C_9  and  C_10 
REMARK    6  A    between atoms: N_15  and  C_14 
REMARK    7  A    between atoms: N_20  and  C_19 
REMARK       I    between atoms: C_22  and  N_20 
ROOT
ATOM      1  C   LIG d   1       3.278  89.288 116.229  0.00  0.00     0.161 C 
ATOM      2  C   LIG d   1       2.929  88.859 114.937  0.00  0.00     0.016 C 
ATOM      3  C   LIG d   1       3.839  88.242 114.049  0.00  0.00     0.038 C 
ATOM      4  C   LIG d   1       5.132  87.873 114.451  0.00  0.00     0.028 C 
ATOM      5  C   LIG d   1       5.687  88.739 115.577  0.00  0.00    -0.047 C 
ATOM      6  C   LIG d   1       4.653  88.794 116.725  0.00  0.00     0.091 C 
ENDROOT
BRANCH   1   7
ATOM      7  O   LIG d   1       2.245  88.917 117.163  0.00  0.00    -0.368 OA
BRANCH   7   8
ATOM      8  C   LIG d   1       1.381  89.988 117.617  0.00  0.00     0.119 C 
BRANCH   8   9
ATOM      9  C   LIG d   1       0.004  89.783 116.956  0.00  0.00     0.028 C 
ATOM     10  C   LIG d   1      -1.116  90.542 117.687  0.00  0.00     0.006 C 
ENDBRANCH   8   9
BRANCH   8  11
ATOM     11  C   LIG d   1       1.872  91.350 117.116  0.00  0.00     0.028 C 
ATOM     12  C   LIG d   1       2.004  92.387 118.243  0.00  0.00     0.006 C 
ENDBRANCH   8  11
ENDBRANCH   7   8
ENDBRANCH   1   7
BRANCH   6  13
ATOM     13  N   LIG d   1       5.081  89.689 117.831  0.00  0.00    -0.311 N 
ATOM     14  C   LIG d   1       5.370  90.978 117.661  0.00  0.00     0.210 C 
ATOM     15  C   LIG d   1       5.810  91.715 118.929  0.00  0.00     0.109 C 
ATOM     16  O   LIG d   1       5.273  91.589 116.586  0.00  0.00    -0.276 OA
ATOM     17  H   LIG d   1       5.156  89.283 118.743  0.00  0.00     0.149 HD
ENDBRANCH   6  13
BRANCH   5  18
ATOM     18  N   LIG d   1       6.979  88.160 115.990  0.00  0.00     0.381 N 
ATOM     19  H   LIG d   1       6.858  87.194 116.222  0.00  0.00    -0.090 HD
ATOM     20  H   LIG d   1       7.305  88.643 116.808  0.00  0.00    -0.090 HD
ATOM     21  H   LIG d   1       7.644  88.251 115.254  0.00  0.00    -0.090 HD
ENDBRANCH   5  18
BRANCH   3  22
ATOM     22  C   LIG d   1       3.472  88.024 112.730  0.00  0.00     0.382 C 
ATOM     23  O   LIG d   1       4.073  87.161 112.047  0.00  0.00    -0.241 OA
ATOM     24  O   LIG d   1       2.578  88.711 112.202  0.00  0.00    -0.241 OA
ENDBRANCH   3  22
TORSDOF 7
ENDMDL
MODEL 9
REMARK VINA RESULT:      -3.9      2.631      4.414
REMARK  7 active torsions:
REMARK  status: ('A' for Active; 'I' for Inactive)
REMARK    1  A    between atoms: C_2  and  C_3 
REMARK    2  A    between atoms: C_3  and  O_6 
REMARK    3  A    between atoms: C_3  and  C_4 
REMARK    4  A    between atoms: C_7  and  O_6 
REMARK    5  A    between atoms: C_9  and  C_10 
REMARK    6  A    between atoms: N_15  and  C_14 
REMARK    7  A    between atoms: N_20  and  C_19 
REMARK       I    between atoms: C_22  and  N_20 
ROOT
ATOM      1  C   LIG d   1       3.672  88.468 116.814  0.00  0.00     0.161 C 
ATOM      2  C   LIG d   1       5.013  88.846 116.997  0.00  0.00     0.016 C 
ATOM      3  C   LIG d   1       6.102  88.156 116.417  0.00  0.00     0.038 C 
ATOM      4  C   LIG d   1       5.915  87.125 115.485  0.00  0.00     0.028 C 
ATOM      5  C   LIG d   1       4.593  86.383 115.659  0.00  0.00    -0.047 C 
ATOM      6  C   LIG d   1       3.443  87.414 115.710  0.00  0.00     0.091 C 
ENDROOT
BRANCH   1   7
ATOM      7  O   LIG d   1       2.866  89.637 116.566  0.00  0.00    -0.368 OA
BRANCH   7   8
ATOM      8  C   LIG d   1       2.462  90.392 117.734  0.00  0.00     0.119 C 
BRANCH   8   9
ATOM      9  C   LIG d   1       0.970  90.100 117.982  0.00  0.00     0.028 C 
ATOM     10  C   LIG d   1       0.212  89.772 116.685  0.00  0.00     0.006 C 
ENDBRANCH   8   9
BRANCH   8  11
ATOM     11  C   LIG d   1       2.543  91.900 117.478  0.00  0.00     0.028 C 
ATOM     12  C   LIG d   1       1.658  92.715 118.435  0.00  0.00     0.006 C 
ENDBRANCH   8  11
ENDBRANCH   7   8
ENDBRANCH   1   7
BRANCH   6  13
ATOM     13  N   LIG d   1       2.123  86.779 115.963  0.00  0.00    -0.311 N 
ATOM     14  C   LIG d   1       1.279  86.432 114.994  0.00  0.00     0.210 C 
ATOM     15  C   LIG d   1      -0.036  85.809 115.473  0.00  0.00     0.109 C 
ATOM     16  O   LIG d   1       1.508  86.550 113.780  0.00  0.00    -0.276 OA
ATOM     17  H   LIG d   1       1.871  86.617 116.918  0.00  0.00     0.149 HD
ENDBRANCH   6  13
BRANCH   5  18
ATOM     18  N   LIG d   1       4.466  85.430 114.540  0.00  0.00     0.381 N 
ATOM     19  H   LIG d   1       5.086  85.692 113.800  0.00  0.00    -0.090 HD
ATOM     20  H   LIG d   1       3.525  85.464 114.190  0.00  0.00    -0.090 HD
ATOM     21  H   LIG d   1       4.680  84.509 114.851  0.00  0.00    -0.090 HD
ENDBRANCH   5  18
BRANCH   3  22
ATOM     22  C   LIG d   1       7.397  88.470 116.800  0.00  0.00     0.382 C 
ATOM     23  O   LIG d   1       8.334  87.671 116.559  0.00  0.00    -0.241 OA
ATOM     24  O   LIG d   1       7.634  89.522 117.423  0.00  0.00    -0.241 OA
ENDBRANCH   3  22
TORSDOF 7
ENDMDL
