MODEL 1
REMARK VINA RESULT:      -5.9      0.000      0.000
REMARK  7 active torsions:
REMARK  status: ('A' for Active; 'I' for Inactive)
REMARK    1  A    between atoms: C_2  and  C_3 
REMARK    2  A    between atoms: C_3  and  O_6 
REMARK    3  A    between atoms: C_3  and  C_4 
REMARK    4  A    between atoms: C_7  and  O_6 
REMARK    5  A    between atoms: C_9  and  C_10 
REMARK    6  A    between atoms: N_15  and  C_14 
REMARK    7  A    between atoms: N_20  and  C_19 
REMARK       I    between atoms: C_22  and  N_20 
ROOT
ATOM      1  C   LIG d   1      -5.004  91.128 116.536  0.00  0.00     0.161 C 
ATOM      2  C   LIG d   1      -4.356  90.048 115.913  0.00  0.00     0.016 C 
ATOM      3  C   LIG d   1      -4.926  89.305 114.854  0.00  0.00     0.038 C 
ATOM      4  C   LIG d   1      -6.127  89.690 114.241  0.00  0.00     0.028 C 
ATOM      5  C   LIG d   1      -7.057  90.469 115.165  0.00  0.00    -0.047 C 
ATOM      6  C   LIG d   1      -6.267  91.632 115.808  0.00  0.00     0.091 C 
ENDROOT
BRANCH   1   7
ATOM      7  O   LIG d   1      -4.073  92.210 116.731  0.00  0.00    -0.368 OA
BRANCH   7   8
ATOM      8  C   LIG d   1      -3.653  92.452 118.097  0.00  0.00     0.119 C 
BRANCH   8   9
ATOM      9  C   LIG d   1      -4.161  93.850 118.497  0.00  0.00     0.028 C 
ATOM     10  C   LIG d   1      -3.167  94.964 118.128  0.00  0.00     0.006 C 
ENDBRANCH   8   9
BRANCH   8  11
ATOM     11  C   LIG d   1      -2.127  92.529 118.205  0.00  0.00     0.028 C 
ATOM     12  C   LIG d   1      -1.428  91.262 117.686  0.00  0.00     0.006 C 
ENDBRANCH   8  11
ENDBRANCH   7   8
ENDBRANCH   1   7
BRANCH   6  13
ATOM     13  N   LIG d   1      -7.080  92.394 116.791  0.00  0.00    -0.311 N 
ATOM     14  C   LIG d   1      -7.310  93.702 116.695  0.00  0.00     0.210 C 
ATOM     15  C   LIG d   1      -8.157  94.295 117.826  0.00  0.00     0.109 C 
ATOM     16  O   LIG d   1      -6.921  94.422 115.763  0.00  0.00    -0.276 OA
ATOM     17  H   LIG d   1      -7.461  91.882 117.563  0.00  0.00     0.149 HD
ENDBRANCH   6  13
BRANCH   5  18
ATOM     18  N   LIG d   1      -8.206  90.925 114.361  0.00  0.00     0.381 N 
ATOM     19  H   LIG d   1      -9.033  90.437 114.644  0.00  0.00    -0.090 HD
ATOM     20  H   LIG d   1      -8.031  90.713 113.394  0.00  0.00    -0.090 HD
ATOM     21  H   LIG d   1      -8.335  91.906 114.476  0.00  0.00    -0.090 HD
ENDBRANCH   5  18
BRANCH   3  22
ATOM     22  C   LIG d   1      -4.311  88.140 114.424  0.00  0.00     0.382 C 
ATOM     23  O   LIG d   1      -4.572  87.675 113.288  0.00  0.00    -0.241 OA
ATOM     24  O   LIG d   1      -3.531  87.522 115.174  0.00  0.00    -0.241 OA
ENDBRANCH   3  22
TORSDOF 7
ENDMDL
MODEL 2
REMARK VINA RESULT:      -5.8      0.992      1.874
REMARK  7 active torsions:
REMARK  status: ('A' for Active; 'I' for Inactive)
REMARK    1  A    between atoms: C_2  and  C_3 
REMARK    2  A    between atoms: C_3  and  O_6 
REMARK    3  A    between atoms: C_3  and  C_4 
REMARK    4  A    between atoms: C_7  and  O_6 
REMARK    5  A    between atoms: C_9  and  C_10 
REMARK    6  A    between atoms: N_15  and  C_14 
REMARK    7  A    between atoms: N_20  and  C_19 
REMARK       I    between atoms: C_22  and  N_20 
ROOT
ATOM      1  C   LIG d   1      -5.378  91.246 117.699  0.00  0.00     0.161 C 
ATOM      2  C   LIG d   1      -4.717  90.213 117.015  0.00  0.00     0.016 C 
ATOM      3  C   LIG d   1      -4.983  89.877 115.667  0.00  0.00     0.038 C 
ATOM      4  C   LIG d   1      -5.827  90.657 114.862  0.00  0.00     0.028 C 
ATOM      5  C   LIG d   1      -6.897  91.403 115.651  0.00  0.00    -0.047 C 
ATOM      6  C   LIG d   1      -6.221  92.179 116.805  0.00  0.00     0.091 C 
ENDROOT
BRANCH   1   7
ATOM      7  O   LIG d   1      -4.427  92.011 118.465  0.00  0.00    -0.368 OA
BRANCH   7   8
ATOM      8  C   LIG d   1      -3.319  92.577 117.722  0.00  0.00     0.119 C 
BRANCH   8   9
ATOM      9  C   LIG d   1      -2.022  92.193 118.460  0.00  0.00     0.028 C 
ATOM     10  C   LIG d   1      -1.153  91.216 117.650  0.00  0.00     0.006 C 
ENDBRANCH   8   9
BRANCH   8  11
ATOM     11  C   LIG d   1      -3.359  94.108 117.742  0.00  0.00     0.028 C 
ATOM     12  C   LIG d   1      -4.186  94.667 118.911  0.00  0.00     0.006 C 
ENDBRANCH   8  11
ENDBRANCH   7   8
ENDBRANCH   1   7
BRANCH   6  13
ATOM     13  N   LIG d   1      -7.206  92.869 117.677  0.00  0.00    -0.311 N 
ATOM     14  C   LIG d   1      -7.566  94.141 117.513  0.00  0.00     0.210 C 
ATOM     15  C   LIG d   1      -8.581  94.663 118.535  0.00  0.00     0.109 C 
ATOM     16  O   LIG d   1      -7.166  94.877 116.599  0.00  0.00    -0.276 OA
ATOM     17  H   LIG d   1      -7.605  92.337 118.426  0.00  0.00     0.149 HD
ENDBRANCH   6  13
BRANCH   5  18
ATOM     18  N   LIG d   1      -7.616  92.281 114.708  0.00  0.00     0.381 N 
ATOM     19  H   LIG d   1      -7.710  93.196 115.101  0.00  0.00    -0.090 HD
ATOM     20  H   LIG d   1      -8.536  91.908 114.553  0.00  0.00    -0.090 HD
ATOM     21  H   LIG d   1      -7.121  92.332 113.844  0.00  0.00    -0.090 HD
ENDBRANCH   5  18
BRANCH   3  22
ATOM     22  C   LIG d   1      -4.432  88.727 115.123  0.00  0.00     0.382 C 
ATOM     23  O   LIG d   1      -4.663  88.426 113.927  0.00  0.00    -0.241 OA
ATOM     24  O   LIG d   1      -3.744  87.963 115.826  0.00  0.00    -0.241 OA
ENDBRANCH   3  22
TORSDOF 7
ENDMDL
MODEL 3
REMARK VINA RESULT:      -5.3      1.983      5.277
REMARK  7 active torsions:
REMARK  status: ('A' for Active; 'I' for Inactive)
REMARK    1  A    between atoms: C_2  and  C_3 
REMARK    2  A    between atoms: C_3  and  O_6 
REMARK    3  A    between atoms: C_3  and  C_4 
REMARK    4  A    between atoms: C_7  and  O_6 
REMARK    5  A    between atoms: C_9  and  C_10 
REMARK    6  A    between atoms: N_15  and  C_14 
REMARK    7  A    between atoms: N_20  and  C_19 
REMARK       I    between atoms: C_22  and  N_20 
ROOT
ATOM      1  C   LIG d   1      -4.814  92.711 117.153  0.00  0.00     0.161 C 
ATOM      2  C   LIG d   1      -5.169  93.928 117.758  0.00  0.00     0.016 C 
ATOM      3  C   LIG d   1      -6.326  94.662 117.409  0.00  0.00     0.038 C 
ATOM      4  C   LIG d   1      -7.291  94.151 116.529  0.00  0.00     0.028 C 
ATOM      5  C   LIG d   1      -6.725  93.160 115.518  0.00  0.00    -0.047 C 
ATOM      6  C   LIG d   1      -5.913  92.082 116.271  0.00  0.00     0.091 C 
ENDROOT
BRANCH   1   7
ATOM      7  O   LIG d   1      -4.381  91.773 118.159  0.00  0.00    -0.368 OA
BRANCH   7   8
ATOM      8  C   LIG d   1      -3.036  91.256 118.011  0.00  0.00     0.119 C 
BRANCH   8   9
ATOM      9  C   LIG d   1      -3.007  89.853 118.647  0.00  0.00     0.028 C 
ATOM     10  C   LIG d   1      -2.583  88.763 117.648  0.00  0.00     0.006 C 
ENDBRANCH   8   9
BRANCH   8  11
ATOM     11  C   LIG d   1      -2.029  92.086 118.812  0.00  0.00     0.028 C 
ATOM     12  C   LIG d   1      -0.583  91.905 118.321  0.00  0.00     0.006 C 
ENDBRANCH   8  11
ENDBRANCH   7   8
ENDBRANCH   1   7
BRANCH   6  13
ATOM     13  N   LIG d   1      -5.254  91.121 115.349  0.00  0.00    -0.311 N 
ATOM     14  C   LIG d   1      -5.400  89.800 115.440  0.00  0.00     0.210 C 
ATOM     15  C   LIG d   1      -4.618  88.990 114.402  0.00  0.00     0.109 C 
ATOM     16  O   LIG d   1      -6.129  89.224 116.261  0.00  0.00    -0.276 OA
ATOM     17  H   LIG d   1      -4.669  91.504 114.632  0.00  0.00     0.149 HD
ENDBRANCH   6  13
BRANCH   5  18
ATOM     18  N   LIG d   1      -7.859  92.603 114.757  0.00  0.00     0.381 N 
ATOM     19  H   LIG d   1      -8.298  93.327 114.224  0.00  0.00    -0.090 HD
ATOM     20  H   LIG d   1      -8.534  92.234 115.403  0.00  0.00    -0.090 HD
ATOM     21  H   LIG d   1      -7.540  91.880 114.149  0.00  0.00    -0.090 HD
ENDBRANCH   5  18
BRANCH   3  22
ATOM     22  C   LIG d   1      -6.505  95.942 117.911  0.00  0.00     0.382 C 
ATOM     23  O   LIG d   1      -5.871  96.310 118.930  0.00  0.00    -0.241 OA
ATOM     24  O   LIG d   1      -7.324  96.719 117.385  0.00  0.00    -0.241 OA
ENDBRANCH   3  22
TORSDOF 7
ENDMDL
MODEL 4
REMARK VINA RESULT:      -5.2      2.103      4.938
REMARK  7 active torsions:
REMARK  status: ('A' for Active; 'I' for Inactive)
REMARK    1  A    between atoms: C_2  and  C_3 
REMARK    2  A    between atoms: C_3  and  O_6 
REMARK    3  A    between atoms: C_3  and  C_4 
REMARK    4  A    between atoms: C_7  and  O_6 
REMARK    5  A    between atoms: C_9  and  C_10 
REMARK    6  A    between atoms: N_15  and  C_14 
REMARK    7  A    between atoms: N_20  and  C_19 
REMARK       I    between atoms: C_22  and  N_20 
ROOT
ATOM      1  C   LIG d   1      -4.446  91.507 116.888  0.00  0.00     0.161 C 
ATOM      2  C   LIG d   1      -3.191  91.089 117.359  0.00  0.00     0.016 C 
ATOM      3  C   LIG d   1      -2.266  91.956 117.985  0.00  0.00     0.038 C 
ATOM      4  C   LIG d   1      -2.598  93.277 118.321  0.00  0.00     0.028 C 
ATOM      5  C   LIG d   1      -3.664  93.882 117.414  0.00  0.00    -0.047 C 
ATOM      6  C   LIG d   1      -4.870  92.919 117.345  0.00  0.00     0.091 C 
ENDROOT
BRANCH   1   7
ATOM      7  O   LIG d   1      -5.451  90.540 117.251  0.00  0.00    -0.368 OA
BRANCH   7   8
ATOM      8  C   LIG d   1      -5.927  89.684 116.183  0.00  0.00     0.119 C 
BRANCH   8   9
ATOM      9  C   LIG d   1      -5.047  89.954 114.947  0.00  0.00     0.028 C 
ATOM     10  C   LIG d   1      -4.320  88.690 114.457  0.00  0.00     0.006 C 
ENDBRANCH   8   9
BRANCH   8  11
ATOM     11  C   LIG d   1      -7.349  90.061 115.759  0.00  0.00     0.028 C 
ATOM     12  C   LIG d   1      -7.409  90.669 114.348  0.00  0.00     0.006 C 
ENDBRANCH   8  11
ENDBRANCH   7   8
ENDBRANCH   1   7
BRANCH   6  13
ATOM     13  N   LIG d   1      -5.924  93.396 116.412  0.00  0.00    -0.311 N 
ATOM     14  C   LIG d   1      -7.197  93.564 116.767  0.00  0.00     0.210 C 
ATOM     15  C   LIG d   1      -8.123  94.045 115.646  0.00  0.00     0.109 C 
ATOM     16  O   LIG d   1      -7.640  93.393 117.913  0.00  0.00    -0.276 OA
ATOM     17  H   LIG d   1      -5.646  93.589 115.470  0.00  0.00     0.149 HD
ENDBRANCH   6  13
BRANCH   5  18
ATOM     18  N   LIG d   1      -4.012  95.208 117.959  0.00  0.00     0.381 N 
ATOM     19  H   LIG d   1      -4.516  95.099 118.817  0.00  0.00    -0.090 HD
ATOM     20  H   LIG d   1      -4.606  95.683 117.303  0.00  0.00    -0.090 HD
ATOM     21  H   LIG d   1      -3.185  95.740 118.117  0.00  0.00    -0.090 HD
ENDBRANCH   5  18
BRANCH   3  22
ATOM     22  C   LIG d   1      -0.978  91.514 118.246  0.00  0.00     0.382 C 
ATOM     23  O   LIG d   1       0.002  92.262 118.011  0.00  0.00    -0.241 OA
ATOM     24  O   LIG d   1      -0.780  90.360 118.672  0.00  0.00    -0.241 OA
ENDBRANCH   3  22
TORSDOF 7
ENDMDL
MODEL 5
REMARK VINA RESULT:      -4.7      2.381      4.563
REMARK  7 active torsions:
REMARK  status: ('A' for Active; 'I' for Inactive)
REMARK    1  A    between atoms: C_2  and  C_3 
REMARK    2  A    between atoms: C_3  and  O_6 
REMARK    3  A    between atoms: C_3  and  C_4 
REMARK    4  A    between atoms: C_7  and  O_6 
REMARK    5  A    between atoms: C_9  and  C_10 
REMARK    6  A    between atoms: N_15  and  C_14 
REMARK    7  A    between atoms: N_20  and  C_19 
REMARK       I    between atoms: C_22  and  N_20 
ROOT
ATOM      1  C   LIG d   1      -6.037  91.523 117.850  0.00  0.00     0.161 C 
ATOM      2  C   LIG d   1      -4.822  92.081 118.281  0.00  0.00     0.016 C 
ATOM      3  C   LIG d   1      -3.565  91.715 117.748  0.00  0.00     0.038 C 
ATOM      4  C   LIG d   1      -3.449  90.869 116.635  0.00  0.00     0.028 C 
ATOM      5  C   LIG d   1      -4.612  89.893 116.493  0.00  0.00    -0.047 C 
ATOM      6  C   LIG d   1      -5.940  90.681 116.560  0.00  0.00     0.091 C 
ENDROOT
BRANCH   1   7
ATOM      7  O   LIG d   1      -7.025  92.561 117.697  0.00  0.00    -0.368 OA
BRANCH   7   8
ATOM      8  C   LIG d   1      -6.515  93.905 117.516  0.00  0.00     0.119 C 
BRANCH   8   9
ATOM      9  C   LIG d   1      -7.083  94.773 118.655  0.00  0.00     0.028 C 
ATOM     10  C   LIG d   1      -7.107  96.269 118.296  0.00  0.00     0.006 C 
ENDBRANCH   8   9
BRANCH   8  11
ATOM     11  C   LIG d   1      -7.045  94.532 116.223  0.00  0.00     0.028 C 
ATOM     12  C   LIG d   1      -8.087  93.651 115.517  0.00  0.00     0.006 C 
ENDBRANCH   8  11
ENDBRANCH   7   8
ENDBRANCH   1   7
BRANCH   6  13
ATOM     13  N   LIG d   1      -7.130  89.791 116.513  0.00  0.00    -0.311 N 
ATOM     14  C   LIG d   1      -7.962  89.734 115.475  0.00  0.00     0.210 C 
ATOM     15  C   LIG d   1      -9.137  88.765 115.640  0.00  0.00     0.109 C 
ATOM     16  O   LIG d   1      -7.821  90.371 114.420  0.00  0.00    -0.276 OA
ATOM     17  H   LIG d   1      -7.302  89.217 117.315  0.00  0.00     0.149 HD
ENDBRANCH   6  13
BRANCH   5  18
ATOM     18  N   LIG d   1      -4.433  89.169 115.220  0.00  0.00     0.381 N 
ATOM     19  H   LIG d   1      -3.526  89.364 114.844  0.00  0.00    -0.090 HD
ATOM     20  H   LIG d   1      -5.122  89.491 114.563  0.00  0.00    -0.090 HD
ATOM     21  H   LIG d   1      -4.536  88.189 115.367  0.00  0.00    -0.090 HD
ENDBRANCH   5  18
BRANCH   3  22
ATOM     22  C   LIG d   1      -2.403  92.166 118.357  0.00  0.00     0.382 C 
ATOM     23  O   LIG d   1      -2.113  93.386 118.327  0.00  0.00    -0.241 OA
ATOM     24  O   LIG d   1      -1.619  91.362 118.896  0.00  0.00    -0.241 OA
ENDBRANCH   3  22
TORSDOF 7
ENDMDL
MODEL 6
REMARK VINA RESULT:      -4.7      2.481      5.918
REMARK  7 active torsions:
REMARK  status: ('A' for Active; 'I' for Inactive)
REMARK    1  A    between atoms: C_2  and  C_3 
REMARK    2  A    between atoms: C_3  and  O_6 
REMARK    3  A    between atoms: C_3  and  C_4 
REMARK    4  A    between atoms: C_7  and  O_6 
REMARK    5  A    between atoms: C_9  and  C_10 
REMARK    6  A    between atoms: N_15  and  C_14 
REMARK    7  A    between atoms: N_20  and  C_19 
REMARK       I    between atoms: C_22  and  N_20 
ROOT
ATOM      1  C   LIG d   1      -5.329  91.214 117.679  0.00  0.00     0.161 C 
ATOM      2  C   LIG d   1      -6.380  92.112 117.431  0.00  0.00     0.016 C 
ATOM      3  C   LIG d   1      -6.213  93.515 117.392  0.00  0.00     0.038 C 
ATOM      4  C   LIG d   1      -4.945  94.113 117.451  0.00  0.00     0.028 C 
ATOM      5  C   LIG d   1      -3.916  93.278 118.206  0.00  0.00    -0.047 C 
ATOM      6  C   LIG d   1      -3.919  91.841 117.635  0.00  0.00     0.091 C 
ENDROOT
BRANCH   1   7
ATOM      7  O   LIG d   1      -5.411  90.101 116.767  0.00  0.00    -0.368 OA
BRANCH   7   8
ATOM      8  C   LIG d   1      -4.851  90.315 115.448  0.00  0.00     0.119 C 
BRANCH   8   9
ATOM      9  C   LIG d   1      -5.942  90.978 114.585  0.00  0.00     0.028 C 
ATOM     10  C   LIG d   1      -6.960  89.960 114.042  0.00  0.00     0.006 C 
ENDBRANCH   8   9
BRANCH   8  11
ATOM     11  C   LIG d   1      -4.536  88.987 114.754  0.00  0.00     0.028 C 
ATOM     12  C   LIG d   1      -3.545  88.121 115.548  0.00  0.00     0.006 C 
ENDBRANCH   8  11
ENDBRANCH   7   8
ENDBRANCH   1   7
BRANCH   6  13
ATOM     13  N   LIG d   1      -3.001  90.936 118.374  0.00  0.00    -0.311 N 
ATOM     14  C   LIG d   1      -1.740  90.713 118.008  0.00  0.00     0.210 C 
ATOM     15  C   LIG d   1      -0.973  89.728 118.897  0.00  0.00     0.109 C 
ATOM     16  O   LIG d   1      -1.174  91.261 117.050  0.00  0.00    -0.276 OA
ATOM     17  H   LIG d   1      -3.369  90.473 119.182  0.00  0.00     0.149 HD
ENDBRANCH   6  13
BRANCH   5  18
ATOM     18  N   LIG d   1      -2.610  93.950 118.072  0.00  0.00     0.381 N 
ATOM     19  H   LIG d   1      -1.919  93.458 118.601  0.00  0.00    -0.090 HD
ATOM     20  H   LIG d   1      -2.685  94.882 118.440  0.00  0.00    -0.090 HD
ATOM     21  H   LIG d   1      -2.342  93.985 117.113  0.00  0.00    -0.090 HD
ENDBRANCH   5  18
BRANCH   3  22
ATOM     22  C   LIG d   1      -7.327  94.339 117.334  0.00  0.00     0.382 C 
ATOM     23  O   LIG d   1      -8.476  93.850 117.455  0.00  0.00    -0.241 OA
ATOM     24  O   LIG d   1      -7.200  95.559 117.118  0.00  0.00    -0.241 OA
ENDBRANCH   3  22
TORSDOF 7
ENDMDL
MODEL 7
REMARK VINA RESULT:      -4.5      7.645     10.281
REMARK  7 active torsions:
REMARK  status: ('A' for Active; 'I' for Inactive)
REMARK    1  A    between atoms: C_2  and  C_3 
REMARK    2  A    between atoms: C_3  and  O_6 
REMARK    3  A    between atoms: C_3  and  C_4 
REMARK    4  A    between atoms: C_7  and  O_6 
REMARK    5  A    between atoms: C_9  and  C_10 
REMARK    6  A    between atoms: N_15  and  C_14 
REMARK    7  A    between atoms: N_20  and  C_19 
REMARK       I    between atoms: C_22  and  N_20 
ROOT
ATOM      1  C   LIG d   1       2.688  88.345 115.472  0.00  0.00     0.161 C 
ATOM      2  C   LIG d   1       2.796  89.320 116.478  0.00  0.00     0.016 C 
ATOM      3  C   LIG d   1       3.688  90.415 116.408  0.00  0.00     0.038 C 
ATOM      4  C   LIG d   1       4.429  90.695 115.250  0.00  0.00     0.028 C 
ATOM      5  C   LIG d   1       4.728  89.458 114.409  0.00  0.00    -0.047 C 
ATOM      6  C   LIG d   1       3.408  88.695 114.153  0.00  0.00     0.091 C 
ENDROOT
BRANCH   1   7
ATOM      7  O   LIG d   1       1.299  88.053 115.222  0.00  0.00    -0.368 OA
BRANCH   7   8
ATOM      8  C   LIG d   1       0.735  86.950 115.973  0.00  0.00     0.119 C 
BRANCH   8   9
ATOM      9  C   LIG d   1       0.585  85.760 115.006  0.00  0.00     0.028 C 
ATOM     10  C   LIG d   1       0.038  86.184 113.633  0.00  0.00     0.006 C 
ENDBRANCH   8   9
BRANCH   8  11
ATOM     11  C   LIG d   1      -0.687  87.268 116.447  0.00  0.00     0.028 C 
ATOM     12  C   LIG d   1      -1.325  86.113 117.235  0.00  0.00     0.006 C 
ENDBRANCH   8  11
ENDBRANCH   7   8
ENDBRANCH   1   7
BRANCH   6  13
ATOM     13  N   LIG d   1       3.622  87.427 113.408  0.00  0.00    -0.311 N 
ATOM     14  C   LIG d   1       3.245  87.247 112.143  0.00  0.00     0.210 C 
ATOM     15  C   LIG d   1       3.542  85.857 111.571  0.00  0.00     0.109 C 
ATOM     16  O   LIG d   1       2.721  88.117 111.431  0.00  0.00    -0.276 OA
ATOM     17  H   LIG d   1       4.069  86.678 113.900  0.00  0.00     0.149 HD
ENDBRANCH   6  13
BRANCH   5  18
ATOM     18  N   LIG d   1       5.384  89.911 113.168  0.00  0.00     0.381 N 
ATOM     19  H   LIG d   1       5.963  90.704 113.360  0.00  0.00    -0.090 HD
ATOM     20  H   LIG d   1       4.677  90.190 112.509  0.00  0.00    -0.090 HD
ATOM     21  H   LIG d   1       5.933  89.175 112.784  0.00  0.00    -0.090 HD
ENDBRANCH   5  18
BRANCH   3  22
ATOM     22  C   LIG d   1       3.874  91.222 117.520  0.00  0.00     0.382 C 
ATOM     23  O   LIG d   1       3.320  92.346 117.579  0.00  0.00    -0.241 OA
ATOM     24  O   LIG d   1       4.625  90.858 118.445  0.00  0.00    -0.241 OA
ENDBRANCH   3  22
TORSDOF 7
ENDMDL
MODEL 8
REMARK VINA RESULT:      -4.4      6.501      9.252
REMARK  7 active torsions:
REMARK  status: ('A' for Active; 'I' for Inactive)
REMARK    1  A    between atoms: C_2  and  C_3 
REMARK    2  A    between atoms: C_3  and  O_6 
REMARK    3  A    between atoms: C_3  and  C_4 
REMARK    4  A    between atoms: C_7  and  O_6 
REMARK    5  A    between atoms: C_9  and  C_10 
REMARK    6  A    between atoms: N_15  and  C_14 
REMARK    7  A    between atoms: N_20  and  C_19 
REMARK       I    between atoms: C_22  and  N_20 
ROOT
ATOM      1  C   LIG d   1       1.272  87.249 115.156  0.00  0.00     0.161 C 
ATOM      2  C   LIG d   1       0.029  86.889 115.702  0.00  0.00     0.016 C 
ATOM      3  C   LIG d   1      -0.572  87.570 116.785  0.00  0.00     0.038 C 
ATOM      4  C   LIG d   1      -0.037  88.759 117.302  0.00  0.00     0.028 C 
ATOM      5  C   LIG d   1       1.473  88.874 117.118  0.00  0.00    -0.047 C 
ATOM      6  C   LIG d   1       1.818  88.611 115.634  0.00  0.00     0.091 C 
ENDROOT
BRANCH   1   7
ATOM      7  O   LIG d   1       1.202  87.215 113.717  0.00  0.00    -0.368 OA
BRANCH   7   8
ATOM      8  C   LIG d   1       1.583  85.966 113.090  0.00  0.00     0.119 C 
BRANCH   8   9
ATOM      9  C   LIG d   1       3.097  86.032 112.808  0.00  0.00     0.028 C 
ATOM     10  C   LIG d   1       3.428  86.908 111.587  0.00  0.00     0.006 C 
ENDBRANCH   8   9
BRANCH   8  11
ATOM     11  C   LIG d   1       0.922  85.806 111.717  0.00  0.00     0.028 C 
ATOM     12  C   LIG d   1      -0.590  86.084 111.749  0.00  0.00     0.006 C 
ENDBRANCH   8  11
ENDBRANCH   7   8
ENDBRANCH   1   7
BRANCH   6  13
ATOM     13  N   LIG d   1       3.283  88.621 115.383  0.00  0.00    -0.311 N 
ATOM     14  C   LIG d   1       3.850  89.290 114.380  0.00  0.00     0.210 C 
ATOM     15  C   LIG d   1       5.373  89.150 114.289  0.00  0.00     0.109 C 
ATOM     16  O   LIG d   1       3.240  90.012 113.578  0.00  0.00    -0.276 OA
ATOM     17  H   LIG d   1       3.856  88.087 116.005  0.00  0.00     0.149 HD
ENDBRANCH   6  13
BRANCH   5  18
ATOM     18  N   LIG d   1       1.877  90.217 117.576  0.00  0.00     0.381 N 
ATOM     19  H   LIG d   1       1.316  90.491 118.358  0.00  0.00    -0.090 HD
ATOM     20  H   LIG d   1       1.723  90.874 116.832  0.00  0.00    -0.090 HD
ATOM     21  H   LIG d   1       2.839  90.214 117.833  0.00  0.00    -0.090 HD
ENDBRANCH   5  18
BRANCH   3  22
ATOM     22  C   LIG d   1      -1.702  87.039 117.390  0.00  0.00     0.382 C 
ATOM     23  O   LIG d   1      -2.709  87.762 117.580  0.00  0.00    -0.241 OA
ATOM     24  O   LIG d   1      -1.710  85.859 117.787  0.00  0.00    -0.241 OA
ENDBRANCH   3  22
TORSDOF 7
ENDMDL
MODEL 9
REMARK VINA RESULT:      -4.4      2.650      5.323
REMARK  7 active torsions:
REMARK  status: ('A' for Active; 'I' for Inactive)
REMARK    1  A    between atoms: C_2  and  C_3 
REMARK    2  A    between atoms: C_3  and  O_6 
REMARK    3  A    between atoms: C_3  and  C_4 
REMARK    4  A    between atoms: C_7  and  O_6 
REMARK    5  A    between atoms: C_9  and  C_10 
REMARK    6  A    between atoms: N_15  and  C_14 
REMARK    7  A    between atoms: N_20  and  C_19 
REMARK       I    between atoms: C_22  and  N_20 
ROOT
ATOM      1  C   LIG d   1      -3.173  90.416 116.779  0.00  0.00     0.161 C 
ATOM      2  C   LIG d   1      -2.100  90.995 117.476  0.00  0.00     0.016 C 
ATOM      3  C   LIG d   1      -2.173  92.259 118.106  0.00  0.00     0.038 C 
ATOM      4  C   LIG d   1      -3.380  92.967 118.210  0.00  0.00     0.028 C 
ATOM      5  C   LIG d   1      -4.363  92.656 117.087  0.00  0.00    -0.047 C 
ATOM      6  C   LIG d   1      -4.530  91.123 116.976  0.00  0.00     0.091 C 
ENDROOT
BRANCH   1   7
ATOM      7  O   LIG d   1      -3.281  89.020 117.120  0.00  0.00    -0.368 OA
BRANCH   7   8
ATOM      8  C   LIG d   1      -2.040  88.345 117.445  0.00  0.00     0.119 C 
BRANCH   8   9
ATOM      9  C   LIG d   1      -1.937  87.104 116.538  0.00  0.00     0.028 C 
ATOM     10  C   LIG d   1      -2.981  87.114 115.408  0.00  0.00     0.006 C 
ENDBRANCH   8   9
BRANCH   8  11
ATOM     11  C   LIG d   1      -2.060  87.801 118.876  0.00  0.00     0.028 C 
ATOM     12  C   LIG d   1      -2.050  86.265 118.930  0.00  0.00     0.006 C 
ENDBRANCH   8  11
ENDBRANCH   7   8
ENDBRANCH   1   7
BRANCH   6  13
ATOM     13  N   LIG d   1      -5.411  90.729 115.846  0.00  0.00    -0.311 N 
ATOM     14  C   LIG d   1      -6.714  90.489 115.981  0.00  0.00     0.210 C 
ATOM     15  C   LIG d   1      -7.433  90.077 114.693  0.00  0.00     0.109 C 
ATOM     16  O   LIG d   1      -7.349  90.609 117.040  0.00  0.00    -0.276 OA
ATOM     17  H   LIG d   1      -4.984  90.639 114.945  0.00  0.00     0.149 HD
ENDBRANCH   6  13
BRANCH   5  18
ATOM     18  N   LIG d   1      -5.626  93.354 117.394  0.00  0.00     0.381 N 
ATOM     19  H   LIG d   1      -5.989  93.028 118.267  0.00  0.00    -0.090 HD
ATOM     20  H   LIG d   1      -6.296  93.145 116.675  0.00  0.00    -0.090 HD
ATOM     21  H   LIG d   1      -5.470  94.337 117.437  0.00  0.00    -0.090 HD
ENDBRANCH   5  18
BRANCH   3  22
ATOM     22  C   LIG d   1      -1.020  92.846 118.606  0.00  0.00     0.382 C 
ATOM     23  O   LIG d   1      -0.036  92.131 118.913  0.00  0.00    -0.241 OA
ATOM     24  O   LIG d   1      -0.968  94.076 118.796  0.00  0.00    -0.241 OA
ENDBRANCH   3  22
TORSDOF 7
ENDMDL
