MODEL 1
REMARK VINA RESULT:      -4.6      0.000      0.000
REMARK  7 active torsions:
REMARK  status: ('A' for Active; 'I' for Inactive)
REMARK    1  A    between atoms: C_2  and  C_3 
REMARK    2  A    between atoms: C_3  and  O_6 
REMARK    3  A    between atoms: C_3  and  C_4 
REMARK    4  A    between atoms: C_7  and  O_6 
REMARK    5  A    between atoms: C_9  and  C_10 
REMARK    6  A    between atoms: N_15  and  C_14 
REMARK    7  A    between atoms: N_20  and  C_19 
REMARK       I    between atoms: C_22  and  N_20 
ROOT
ATOM      1  C   LIG d   1       3.392  88.518 115.565  0.00  0.00     0.161 C 
ATOM      2  C   LIG d   1       2.570  87.941 114.582  0.00  0.00     0.016 C 
ATOM      3  C   LIG d   1       3.023  87.615 113.283  0.00  0.00     0.038 C 
ATOM      4  C   LIG d   1       4.376  87.706 112.925  0.00  0.00     0.028 C 
ATOM      5  C   LIG d   1       5.144  88.755 113.721  0.00  0.00    -0.047 C 
ATOM      6  C   LIG d   1       4.898  88.521 115.229  0.00  0.00     0.091 C 
ENDROOT
BRANCH   1   7
ATOM      7  O   LIG d   1       3.164  87.872 116.834  0.00  0.00    -0.368 OA
BRANCH   7   8
ATOM      8  C   LIG d   1       2.482  88.664 117.838  0.00  0.00     0.119 C 
BRANCH   8   9
ATOM      9  C   LIG d   1       1.024  88.170 117.905  0.00  0.00     0.028 C 
ATOM     10  C   LIG d   1       0.053  89.107 117.167  0.00  0.00     0.006 C 
ENDBRANCH   8   9
BRANCH   8  11
ATOM     11  C   LIG d   1       2.394  90.135 117.422  0.00  0.00     0.028 C 
ATOM     12  C   LIG d   1       3.102  91.076 118.410  0.00  0.00     0.006 C 
ENDBRANCH   8  11
ENDBRANCH   7   8
ENDBRANCH   1   7
BRANCH   6  13
ATOM     13  N   LIG d   1       5.546  89.556 116.076  0.00  0.00    -0.311 N 
ATOM     14  C   LIG d   1       6.294  89.269 117.140  0.00  0.00     0.210 C 
ATOM     15  C   LIG d   1       6.852  90.485 117.886  0.00  0.00     0.109 C 
ATOM     16  O   LIG d   1       6.576  88.121 117.518  0.00  0.00    -0.276 OA
ATOM     17  H   LIG d   1       5.395  90.513 115.823  0.00  0.00     0.149 HD
ENDBRANCH   6  13
BRANCH   5  18
ATOM     18  N   LIG d   1       6.566  88.648 113.344  0.00  0.00     0.381 N 
ATOM     19  H   LIG d   1       6.727  89.136 112.486  0.00  0.00    -0.090 HD
ATOM     20  H   LIG d   1       6.793  87.679 113.202  0.00  0.00    -0.090 HD
ATOM     21  H   LIG d   1       7.140  89.029 114.064  0.00  0.00    -0.090 HD
ENDBRANCH   5  18
BRANCH   3  22
ATOM     22  C   LIG d   1       2.109  87.230 112.314  0.00  0.00     0.382 C 
ATOM     23  O   LIG d   1       2.086  86.043 111.910  0.00  0.00    -0.241 OA
ATOM     24  O   LIG d   1       1.337  88.066 111.806  0.00  0.00    -0.241 OA
ENDBRANCH   3  22
TORSDOF 7
ENDMDL
MODEL 2
REMARK VINA RESULT:      -4.5      1.434      4.670
REMARK  7 active torsions:
REMARK  status: ('A' for Active; 'I' for Inactive)
REMARK    1  A    between atoms: C_2  and  C_3 
REMARK    2  A    between atoms: C_3  and  O_6 
REMARK    3  A    between atoms: C_3  and  C_4 
REMARK    4  A    between atoms: C_7  and  O_6 
REMARK    5  A    between atoms: C_9  and  C_10 
REMARK    6  A    between atoms: N_15  and  C_14 
REMARK    7  A    between atoms: N_20  and  C_19 
REMARK       I    between atoms: C_22  and  N_20 
ROOT
ATOM      1  C   LIG d   1       3.581  87.609 115.798  0.00  0.00     0.161 C 
ATOM      2  C   LIG d   1       4.332  88.013 116.914  0.00  0.00     0.016 C 
ATOM      3  C   LIG d   1       5.551  88.723 116.816  0.00  0.00     0.038 C 
ATOM      4  C   LIG d   1       6.028  89.213 115.591  0.00  0.00     0.028 C 
ATOM      5  C   LIG d   1       5.564  88.395 114.391  0.00  0.00    -0.047 C 
ATOM      6  C   LIG d   1       4.028  88.231 114.458  0.00  0.00     0.091 C 
ENDROOT
BRANCH   1   7
ATOM      7  O   LIG d   1       2.183  87.871 116.030  0.00  0.00    -0.368 OA
BRANCH   7   8
ATOM      8  C   LIG d   1       1.879  88.858 117.046  0.00  0.00     0.119 C 
BRANCH   8   9
ATOM      9  C   LIG d   1       0.577  88.418 117.744  0.00  0.00     0.028 C 
ATOM     10  C   LIG d   1      -0.536  89.473 117.631  0.00  0.00     0.006 C 
ENDBRANCH   8   9
BRANCH   8  11
ATOM     11  C   LIG d   1       1.563  90.221 116.422  0.00  0.00     0.028 C 
ATOM     12  C   LIG d   1       2.608  91.292 116.771  0.00  0.00     0.006 C 
ENDBRANCH   8  11
ENDBRANCH   7   8
ENDBRANCH   1   7
BRANCH   6  13
ATOM     13  N   LIG d   1       3.501  87.372 113.366  0.00  0.00    -0.311 N 
ATOM     14  C   LIG d   1       2.500  87.735 112.566  0.00  0.00     0.210 C 
ATOM     15  C   LIG d   1       2.099  86.692 111.518  0.00  0.00     0.109 C 
ATOM     16  O   LIG d   1       1.928  88.835 112.604  0.00  0.00    -0.276 OA
ATOM     17  H   LIG d   1       3.929  86.475 113.244  0.00  0.00     0.149 HD
ENDBRANCH   6  13
BRANCH   5  18
ATOM     18  N   LIG d   1       6.017  89.094 113.173  0.00  0.00     0.381 N 
ATOM     19  H   LIG d   1       6.318  88.426 112.492  0.00  0.00    -0.090 HD
ATOM     20  H   LIG d   1       6.799  89.680 113.407  0.00  0.00    -0.090 HD
ATOM     21  H   LIG d   1       5.277  89.648 112.802  0.00  0.00    -0.090 HD
ENDBRANCH   5  18
BRANCH   3  22
ATOM     22  C   LIG d   1       6.327  88.916 117.949  0.00  0.00     0.382 C 
ATOM     23  O   LIG d   1       6.164  89.941 118.654  0.00  0.00    -0.241 OA
ATOM     24  O   LIG d   1       7.218  88.099 118.251  0.00  0.00    -0.241 OA
ENDBRANCH   3  22
TORSDOF 7
ENDMDL
MODEL 3
REMARK VINA RESULT:      -4.3      2.162      4.593
REMARK  7 active torsions:
REMARK  status: ('A' for Active; 'I' for Inactive)
REMARK    1  A    between atoms: C_2  and  C_3 
REMARK    2  A    between atoms: C_3  and  O_6 
REMARK    3  A    between atoms: C_3  and  C_4 
REMARK    4  A    between atoms: C_7  and  O_6 
REMARK    5  A    between atoms: C_9  and  C_10 
REMARK    6  A    between atoms: N_15  and  C_14 
REMARK    7  A    between atoms: N_20  and  C_19 
REMARK       I    between atoms: C_22  and  N_20 
ROOT
ATOM      1  C   LIG d   1       3.164  87.781 116.073  0.00  0.00     0.161 C 
ATOM      2  C   LIG d   1       2.238  88.836 116.014  0.00  0.00     0.016 C 
ATOM      3  C   LIG d   1       2.504  90.133 116.509  0.00  0.00     0.038 C 
ATOM      4  C   LIG d   1       3.778  90.507 116.963  0.00  0.00     0.028 C 
ATOM      5  C   LIG d   1       4.593  89.339 117.508  0.00  0.00    -0.047 C 
ATOM      6  C   LIG d   1       4.597  88.199 116.463  0.00  0.00     0.091 C 
ENDROOT
BRANCH   1   7
ATOM      7  O   LIG d   1       3.173  87.069 114.820  0.00  0.00    -0.368 OA
BRANCH   7   8
ATOM      8  C   LIG d   1       3.278  87.882 113.625  0.00  0.00     0.119 C 
BRANCH   8   9
ATOM      9  C   LIG d   1       2.250  87.348 112.610  0.00  0.00     0.028 C 
ATOM     10  C   LIG d   1       2.878  86.383 111.591  0.00  0.00     0.006 C 
ENDBRANCH   8   9
BRANCH   8  11
ATOM     11  C   LIG d   1       4.642  87.708 112.951  0.00  0.00     0.028 C 
ATOM     12  C   LIG d   1       5.600  88.877 113.233  0.00  0.00     0.006 C 
ENDBRANCH   8  11
ENDBRANCH   7   8
ENDBRANCH   1   7
BRANCH   6  13
ATOM     13  N   LIG d   1       5.302  86.985 116.951  0.00  0.00    -0.311 N 
ATOM     14  C   LIG d   1       6.595  86.751 116.732  0.00  0.00     0.210 C 
ATOM     15  C   LIG d   1       7.119  85.430 117.305  0.00  0.00     0.109 C 
ATOM     16  O   LIG d   1       7.365  87.526 116.145  0.00  0.00    -0.276 OA
ATOM     17  H   LIG d   1       4.760  86.318 117.464  0.00  0.00     0.149 HD
ENDBRANCH   6  13
BRANCH   5  18
ATOM     18  N   LIG d   1       5.944  89.844 117.816  0.00  0.00     0.381 N 
ATOM     19  H   LIG d   1       5.887  90.562 118.511  0.00  0.00    -0.090 HD
ATOM     20  H   LIG d   1       6.341  90.242 116.983  0.00  0.00    -0.090 HD
ATOM     21  H   LIG d   1       6.520  89.100 118.144  0.00  0.00    -0.090 HD
ENDBRANCH   5  18
BRANCH   3  22
ATOM     22  C   LIG d   1       1.478  91.062 116.590  0.00  0.00     0.382 C 
ATOM     23  O   LIG d   1       1.703  92.206 117.052  0.00  0.00    -0.241 OA
ATOM     24  O   LIG d   1       0.320  90.755 116.248  0.00  0.00    -0.241 OA
ENDBRANCH   3  22
TORSDOF 7
ENDMDL
MODEL 4
REMARK VINA RESULT:      -4.3      2.360      4.540
REMARK  7 active torsions:
REMARK  status: ('A' for Active; 'I' for Inactive)
REMARK    1  A    between atoms: C_2  and  C_3 
REMARK    2  A    between atoms: C_3  and  O_6 
REMARK    3  A    between atoms: C_3  and  C_4 
REMARK    4  A    between atoms: C_7  and  O_6 
REMARK    5  A    between atoms: C_9  and  C_10 
REMARK    6  A    between atoms: N_15  and  C_14 
REMARK    7  A    between atoms: N_20  and  C_19 
REMARK       I    between atoms: C_22  and  N_20 
ROOT
ATOM      1  C   LIG d   1       4.429  87.640 116.407  0.00  0.00     0.161 C 
ATOM      2  C   LIG d   1       3.496  88.685 116.311  0.00  0.00     0.016 C 
ATOM      3  C   LIG d   1       3.814  90.039 116.565  0.00  0.00     0.038 C 
ATOM      4  C   LIG d   1       5.134  90.461 116.787  0.00  0.00     0.028 C 
ATOM      5  C   LIG d   1       6.022  89.378 117.390  0.00  0.00    -0.047 C 
ATOM      6  C   LIG d   1       5.898  88.094 116.539  0.00  0.00     0.091 C 
ENDROOT
BRANCH   1   7
ATOM      7  O   LIG d   1       4.280  86.747 115.285  0.00  0.00    -0.368 OA
BRANCH   7   8
ATOM      8  C   LIG d   1       3.643  87.303 114.108  0.00  0.00     0.119 C 
BRANCH   8   9
ATOM      9  C   LIG d   1       2.635  86.259 113.591  0.00  0.00     0.028 C 
ATOM     10  C   LIG d   1       1.770  86.799 112.439  0.00  0.00     0.006 C 
ENDBRANCH   8   9
BRANCH   8  11
ATOM     11  C   LIG d   1       4.648  87.495 112.969  0.00  0.00     0.028 C 
ATOM     12  C   LIG d   1       5.493  88.770 113.128  0.00  0.00     0.006 C 
ENDBRANCH   8  11
ENDBRANCH   7   8
ENDBRANCH   1   7
BRANCH   6  13
ATOM     13  N   LIG d   1       6.670  86.960 117.108  0.00  0.00    -0.311 N 
ATOM     14  C   LIG d   1       7.908  86.650 116.725  0.00  0.00     0.210 C 
ATOM     15  C   LIG d   1       8.515  85.430 117.425  0.00  0.00     0.109 C 
ATOM     16  O   LIG d   1       8.572  87.289 115.896  0.00  0.00    -0.276 OA
ATOM     17  H   LIG d   1       6.219  86.407 117.810  0.00  0.00     0.149 HD
ENDBRANCH   6  13
BRANCH   5  18
ATOM     18  N   LIG d   1       7.398  89.908 117.440  0.00  0.00     0.381 N 
ATOM     19  H   LIG d   1       8.022  89.273 116.983  0.00  0.00    -0.090 HD
ATOM     20  H   LIG d   1       7.680  89.990 118.401  0.00  0.00    -0.090 HD
ATOM     21  H   LIG d   1       7.437  90.800 116.997  0.00  0.00    -0.090 HD
ENDBRANCH   5  18
BRANCH   3  22
ATOM     22  C   LIG d   1       2.800  90.982 116.639  0.00  0.00     0.382 C 
ATOM     23  O   LIG d   1       3.082  92.194 116.794  0.00  0.00    -0.241 OA
ATOM     24  O   LIG d   1       1.606  90.630 116.596  0.00  0.00    -0.241 OA
ENDBRANCH   3  22
TORSDOF 7
ENDMDL
MODEL 5
REMARK VINA RESULT:      -4.2      1.392      1.990
REMARK  7 active torsions:
REMARK  status: ('A' for Active; 'I' for Inactive)
REMARK    1  A    between atoms: C_2  and  C_3 
REMARK    2  A    between atoms: C_3  and  O_6 
REMARK    3  A    between atoms: C_3  and  C_4 
REMARK    4  A    between atoms: C_7  and  O_6 
REMARK    5  A    between atoms: C_9  and  C_10 
REMARK    6  A    between atoms: N_15  and  C_14 
REMARK    7  A    between atoms: N_20  and  C_19 
REMARK       I    between atoms: C_22  and  N_20 
ROOT
ATOM      1  C   LIG d   1       3.016  88.062 115.526  0.00  0.00     0.161 C 
ATOM      2  C   LIG d   1       2.369  87.527 114.399  0.00  0.00     0.016 C 
ATOM      3  C   LIG d   1       2.984  87.412 113.131  0.00  0.00     0.038 C 
ATOM      4  C   LIG d   1       4.346  87.686 112.939  0.00  0.00     0.028 C 
ATOM      5  C   LIG d   1       4.904  88.705 113.928  0.00  0.00    -0.047 C 
ATOM      6  C   LIG d   1       4.537  88.264 115.363  0.00  0.00     0.091 C 
ENDROOT
BRANCH   1   7
ATOM      7  O   LIG d   1       2.739  87.246 116.681  0.00  0.00    -0.368 OA
BRANCH   7   8
ATOM      8  C   LIG d   1       2.100  87.916 117.796  0.00  0.00     0.119 C 
BRANCH   8   9
ATOM      9  C   LIG d   1       1.295  86.857 118.573  0.00  0.00     0.028 C 
ATOM     10  C   LIG d   1       1.542  85.432 118.050  0.00  0.00     0.006 C 
ENDBRANCH   8   9
BRANCH   8  11
ATOM     11  C   LIG d   1       1.067  88.938 117.314  0.00  0.00     0.028 C 
ATOM     12  C   LIG d   1      -0.195  88.969 118.191  0.00  0.00     0.006 C 
ENDBRANCH   8  11
ENDBRANCH   7   8
ENDBRANCH   1   7
BRANCH   6  13
ATOM     13  N   LIG d   1       4.972  89.249 116.388  0.00  0.00    -0.311 N 
ATOM     14  C   LIG d   1       4.457  90.473 116.492  0.00  0.00     0.210 C 
ATOM     15  C   LIG d   1       5.062  91.335 117.605  0.00  0.00     0.109 C 
ATOM     16  O   LIG d   1       3.535  90.915 115.791  0.00  0.00    -0.276 OA
ATOM     17  H   LIG d   1       5.695  88.962 117.019  0.00  0.00     0.149 HD
ENDBRANCH   6  13
BRANCH   5  18
ATOM     18  N   LIG d   1       6.359  88.793 113.704  0.00  0.00     0.381 N 
ATOM     19  H   LIG d   1       6.571  89.612 113.170  0.00  0.00    -0.090 HD
ATOM     20  H   LIG d   1       6.657  87.989 113.180  0.00  0.00    -0.090 HD
ATOM     21  H   LIG d   1       6.837  88.824 114.578  0.00  0.00    -0.090 HD
ENDBRANCH   5  18
BRANCH   3  22
ATOM     22  C   LIG d   1       2.223  87.055 112.028  0.00  0.00     0.382 C 
ATOM     23  O   LIG d   1       1.308  87.814 111.626  0.00  0.00    -0.241 OA
ATOM     24  O   LIG d   1       2.410  85.964 111.457  0.00  0.00    -0.241 OA
ENDBRANCH   3  22
TORSDOF 7
ENDMDL
MODEL 6
REMARK VINA RESULT:      -4.2      1.935      2.442
REMARK  7 active torsions:
REMARK  status: ('A' for Active; 'I' for Inactive)
REMARK    1  A    between atoms: C_2  and  C_3 
REMARK    2  A    between atoms: C_3  and  O_6 
REMARK    3  A    between atoms: C_3  and  C_4 
REMARK    4  A    between atoms: C_7  and  O_6 
REMARK    5  A    between atoms: C_9  and  C_10 
REMARK    6  A    between atoms: N_15  and  C_14 
REMARK    7  A    between atoms: N_20  and  C_19 
REMARK       I    between atoms: C_22  and  N_20 
ROOT
ATOM      1  C   LIG d   1       2.696  89.548 116.403  0.00  0.00     0.161 C 
ATOM      2  C   LIG d   1       2.389  88.998 115.148  0.00  0.00     0.016 C 
ATOM      3  C   LIG d   1       3.366  88.491 114.261  0.00  0.00     0.038 C 
ATOM      4  C   LIG d   1       4.712  88.361 114.635  0.00  0.00     0.028 C 
ATOM      5  C   LIG d   1       5.145  89.366 115.697  0.00  0.00    -0.047 C 
ATOM      6  C   LIG d   1       4.146  89.313 116.875  0.00  0.00     0.091 C 
ENDROOT
BRANCH   1   7
ATOM      7  O   LIG d   1       1.763  89.064 117.390  0.00  0.00    -0.368 OA
BRANCH   7   8
ATOM      8  C   LIG d   1       1.002  90.074 118.097  0.00  0.00     0.119 C 
BRANCH   8   9
ATOM      9  C   LIG d   1      -0.141  89.355 118.840  0.00  0.00     0.028 C 
ATOM     10  C   LIG d   1      -1.520  89.659 118.230  0.00  0.00     0.006 C 
ENDBRANCH   8   9
BRANCH   8  11
ATOM     11  C   LIG d   1       0.312  91.034 117.123  0.00  0.00     0.028 C 
ATOM     12  C   LIG d   1       0.572  92.511 117.458  0.00  0.00     0.006 C 
ENDBRANCH   8  11
ENDBRANCH   7   8
ENDBRANCH   1   7
BRANCH   6  13
ATOM     13  N   LIG d   1       4.449  90.325 117.921  0.00  0.00    -0.311 N 
ATOM     14  C   LIG d   1       4.327  91.638 117.727  0.00  0.00     0.210 C 
ATOM     15  C   LIG d   1       4.709  92.507 118.930  0.00  0.00     0.109 C 
ATOM     16  O   LIG d   1       3.907  92.163 116.685  0.00  0.00    -0.276 OA
ATOM     17  H   LIG d   1       4.765  89.985 118.807  0.00  0.00     0.149 HD
ENDBRANCH   6  13
BRANCH   5  18
ATOM     18  N   LIG d   1       6.525  89.030 116.093  0.00  0.00     0.381 N 
ATOM     19  H   LIG d   1       6.521  88.222 116.683  0.00  0.00    -0.090 HD
ATOM     20  H   LIG d   1       6.911  89.798 116.613  0.00  0.00    -0.090 HD
ATOM     21  H   LIG d   1       7.079  88.856 115.283  0.00  0.00    -0.090 HD
ENDBRANCH   5  18
BRANCH   3  22
ATOM     22  C   LIG d   1       3.006  88.144 112.967  0.00  0.00     0.382 C 
ATOM     23  O   LIG d   1       1.956  88.610 112.462  0.00  0.00    -0.241 OA
ATOM     24  O   LIG d   1       3.694  87.337 112.315  0.00  0.00    -0.241 OA
ENDBRANCH   3  22
TORSDOF 7
ENDMDL
MODEL 7
REMARK VINA RESULT:      -4.0      2.638      4.989
REMARK  7 active torsions:
REMARK  status: ('A' for Active; 'I' for Inactive)
REMARK    1  A    between atoms: C_2  and  C_3 
REMARK    2  A    between atoms: C_3  and  O_6 
REMARK    3  A    between atoms: C_3  and  C_4 
REMARK    4  A    between atoms: C_7  and  O_6 
REMARK    5  A    between atoms: C_9  and  C_10 
REMARK    6  A    between atoms: N_15  and  C_14 
REMARK    7  A    between atoms: N_20  and  C_19 
REMARK       I    between atoms: C_22  and  N_20 
ROOT
ATOM      1  C   LIG d   1       1.990  89.077 116.087  0.00  0.00     0.161 C 
ATOM      2  C   LIG d   1       0.757  89.693 116.360  0.00  0.00     0.016 C 
ATOM      3  C   LIG d   1       0.640  90.989 116.914  0.00  0.00     0.038 C 
ATOM      4  C   LIG d   1       1.755  91.822 117.092  0.00  0.00     0.028 C 
ATOM      5  C   LIG d   1       3.056  91.055 117.303  0.00  0.00    -0.047 C 
ATOM      6  C   LIG d   1       3.213  90.013 116.172  0.00  0.00     0.091 C 
ENDROOT
BRANCH   1   7
ATOM      7  O   LIG d   1       1.940  88.433 114.798  0.00  0.00    -0.368 OA
BRANCH   7   8
ATOM      8  C   LIG d   1       1.560  87.035 114.799  0.00  0.00     0.119 C 
BRANCH   8   9
ATOM      9  C   LIG d   1       2.384  86.332 115.894  0.00  0.00     0.028 C 
ATOM     10  C   LIG d   1       3.534  85.491 115.315  0.00  0.00     0.006 C 
ENDBRANCH   8   9
BRANCH   8  11
ATOM     11  C   LIG d   1       1.959  86.349 113.488  0.00  0.00     0.028 C 
ATOM     12  C   LIG d   1       2.058  87.330 112.309  0.00  0.00     0.006 C 
ENDBRANCH   8  11
ENDBRANCH   7   8
ENDBRANCH   1   7
BRANCH   6  13
ATOM     13  N   LIG d   1       4.419  89.163 116.348  0.00  0.00    -0.311 N 
ATOM     14  C   LIG d   1       5.251  88.854 115.354  0.00  0.00     0.210 C 
ATOM     15  C   LIG d   1       6.421  87.948 115.748  0.00  0.00     0.109 C 
ATOM     16  O   LIG d   1       5.148  89.271 114.191  0.00  0.00    -0.276 OA
ATOM     17  H   LIG d   1       4.596  88.807 117.267  0.00  0.00     0.149 HD
ENDBRANCH   6  13
BRANCH   5  18
ATOM     18  N   LIG d   1       4.153  92.041 117.337  0.00  0.00     0.381 N 
ATOM     19  H   LIG d   1       4.802  91.801 118.059  0.00  0.00    -0.090 HD
ATOM     20  H   LIG d   1       3.770  92.946 117.545  0.00  0.00    -0.090 HD
ATOM     21  H   LIG d   1       4.619  92.064 116.456  0.00  0.00    -0.090 HD
ENDBRANCH   5  18
BRANCH   3  22
ATOM     22  C   LIG d   1      -0.599  91.448 117.332  0.00  0.00     0.382 C 
ATOM     23  O   LIG d   1      -0.822  92.681 117.396  0.00  0.00    -0.241 OA
ATOM     24  O   LIG d   1      -1.483  90.646 117.689  0.00  0.00    -0.241 OA
ENDBRANCH   3  22
TORSDOF 7
ENDMDL
MODEL 8
REMARK VINA RESULT:      -4.0      1.803      2.608
REMARK  7 active torsions:
REMARK  status: ('A' for Active; 'I' for Inactive)
REMARK    1  A    between atoms: C_2  and  C_3 
REMARK    2  A    between atoms: C_3  and  O_6 
REMARK    3  A    between atoms: C_3  and  C_4 
REMARK    4  A    between atoms: C_7  and  O_6 
REMARK    5  A    between atoms: C_9  and  C_10 
REMARK    6  A    between atoms: N_15  and  C_14 
REMARK    7  A    between atoms: N_20  and  C_19 
REMARK       I    between atoms: C_22  and  N_20 
ROOT
ATOM      1  C   LIG d   1       2.795  89.526 116.902  0.00  0.00     0.161 C 
ATOM      2  C   LIG d   1       2.273  88.899 115.758  0.00  0.00     0.016 C 
ATOM      3  C   LIG d   1       3.079  88.402 114.707  0.00  0.00     0.038 C 
ATOM      4  C   LIG d   1       4.478  88.362 114.800  0.00  0.00     0.028 C 
ATOM      5  C   LIG d   1       5.055  89.440 115.712  0.00  0.00    -0.047 C 
ATOM      6  C   LIG d   1       4.323  89.392 117.072  0.00  0.00     0.091 C 
ENDROOT
BRANCH   1   7
ATOM      7  O   LIG d   1       2.115  89.042 118.077  0.00  0.00    -0.368 OA
BRANCH   7   8
ATOM      8  C   LIG d   1       0.972  88.183 117.843  0.00  0.00     0.119 C 
BRANCH   8   9
ATOM      9  C   LIG d   1      -0.240  88.824 118.547  0.00  0.00     0.028 C 
ATOM     10  C   LIG d   1      -0.894  89.929 117.700  0.00  0.00     0.006 C 
ENDBRANCH   8   9
BRANCH   8  11
ATOM     11  C   LIG d   1       1.154  86.818 118.513  0.00  0.00     0.028 C 
ATOM     12  C   LIG d   1       2.001  85.849 117.671  0.00  0.00     0.006 C 
ENDBRANCH   8  11
ENDBRANCH   7   8
ENDBRANCH   1   7
BRANCH   6  13
ATOM     13  N   LIG d   1       4.768  90.469 117.994  0.00  0.00    -0.311 N 
ATOM     14  C   LIG d   1       4.531  91.762 117.780  0.00  0.00     0.210 C 
ATOM     15  C   LIG d   1       5.095  92.708 118.845  0.00  0.00     0.109 C 
ATOM     16  O   LIG d   1       3.879  92.213 116.827  0.00  0.00    -0.276 OA
ATOM     17  H   LIG d   1       5.277  90.189 118.810  0.00  0.00     0.149 HD
ENDBRANCH   6  13
BRANCH   5  18
ATOM     18  N   LIG d   1       6.505  89.197 115.826  0.00  0.00     0.381 N 
ATOM     19  H   LIG d   1       7.008  89.919 115.350  0.00  0.00    -0.090 HD
ATOM     20  H   LIG d   1       6.723  88.320 115.389  0.00  0.00    -0.090 HD
ATOM     21  H   LIG d   1       6.772  89.174 116.786  0.00  0.00    -0.090 HD
ENDBRANCH   5  18
BRANCH   3  22
ATOM     22  C   LIG d   1       2.485  87.974 113.530  0.00  0.00     0.382 C 
ATOM     23  O   LIG d   1       2.381  86.747 113.290  0.00  0.00    -0.241 OA
ATOM     24  O   LIG d   1       2.092  88.799 112.684  0.00  0.00    -0.241 OA
ENDBRANCH   3  22
TORSDOF 7
ENDMDL
MODEL 9
REMARK VINA RESULT:      -3.9      1.852      2.628
REMARK  7 active torsions:
REMARK  status: ('A' for Active; 'I' for Inactive)
REMARK    1  A    between atoms: C_2  and  C_3 
REMARK    2  A    between atoms: C_3  and  O_6 
REMARK    3  A    between atoms: C_3  and  C_4 
REMARK    4  A    between atoms: C_7  and  O_6 
REMARK    5  A    between atoms: C_9  and  C_10 
REMARK    6  A    between atoms: N_15  and  C_14 
REMARK    7  A    between atoms: N_20  and  C_19 
REMARK       I    between atoms: C_22  and  N_20 
ROOT
ATOM      1  C   LIG d   1       2.884  90.301 116.301  0.00  0.00     0.161 C 
ATOM      2  C   LIG d   1       2.341  89.437 115.336  0.00  0.00     0.016 C 
ATOM      3  C   LIG d   1       3.107  88.482 114.628  0.00  0.00     0.038 C 
ATOM      4  C   LIG d   1       4.447  88.222 114.947  0.00  0.00     0.028 C 
ATOM      5  C   LIG d   1       5.166  89.417 115.565  0.00  0.00    -0.047 C 
ATOM      6  C   LIG d   1       4.322  89.956 116.743  0.00  0.00     0.091 C 
ENDROOT
BRANCH   1   7
ATOM      7  O   LIG d   1       2.011  90.366 117.446  0.00  0.00    -0.368 OA
BRANCH   7   8
ATOM      8  C   LIG d   1       0.589  90.336 117.166  0.00  0.00     0.119 C 
BRANCH   8   9
ATOM      9  C   LIG d   1       0.106  91.796 117.068  0.00  0.00     0.028 C 
ATOM     10  C   LIG d   1       0.838  92.724 118.052  0.00  0.00     0.006 C 
ENDBRANCH   8   9
BRANCH   8  11
ATOM     11  C   LIG d   1      -0.196  89.727 118.331  0.00  0.00     0.028 C 
ATOM     12  C   LIG d   1      -1.716  89.765 118.110  0.00  0.00     0.006 C 
ENDBRANCH   8  11
ENDBRANCH   7   8
ENDBRANCH   1   7
BRANCH   6  13
ATOM     13  N   LIG d   1       4.911  91.178 117.350  0.00  0.00    -0.311 N 
ATOM     14  C   LIG d   1       5.748  91.151 118.386  0.00  0.00     0.210 C 
ATOM     15  C   LIG d   1       6.223  92.525 118.869  0.00  0.00     0.109 C 
ATOM     16  O   LIG d   1       6.167  90.119 118.930  0.00  0.00    -0.276 OA
ATOM     17  H   LIG d   1       4.649  92.058 116.950  0.00  0.00     0.149 HD
ENDBRANCH   6  13
BRANCH   5  18
ATOM     18  N   LIG d   1       6.509  88.967 115.975  0.00  0.00     0.381 N 
ATOM     19  H   LIG d   1       7.001  89.722 116.410  0.00  0.00    -0.090 HD
ATOM     20  H   LIG d   1       7.021  88.686 115.157  0.00  0.00    -0.090 HD
ATOM     21  H   LIG d   1       6.434  88.201 116.607  0.00  0.00    -0.090 HD
ENDBRANCH   5  18
BRANCH   3  22
ATOM     22  C   LIG d   1       2.541  87.803 113.559  0.00  0.00     0.382 C 
ATOM     23  O   LIG d   1       3.153  87.731 112.467  0.00  0.00    -0.241 OA
ATOM     24  O   LIG d   1       1.406  87.300 113.661  0.00  0.00    -0.241 OA
ENDBRANCH   3  22
TORSDOF 7
ENDMDL
