MODEL 1
REMARK VINA RESULT:      -5.2      0.000      0.000
REMARK  7 active torsions:
REMARK  status: ('A' for Active; 'I' for Inactive)
REMARK    1  A    between atoms: C_2  and  C_3 
REMARK    2  A    between atoms: C_3  and  O_6 
REMARK    3  A    between atoms: C_3  and  C_4 
REMARK    4  A    between atoms: C_7  and  O_6 
REMARK    5  A    between atoms: C_9  and  C_10 
REMARK    6  A    between atoms: N_15  and  C_14 
REMARK    7  A    between atoms: N_20  and  C_19 
REMARK       I    between atoms: C_22  and  N_20 
ROOT
ATOM      1  C   LIG d   1       3.490  89.431 115.440  0.00  0.00     0.161 C 
ATOM      2  C   LIG d   1       2.315  90.062 115.882  0.00  0.00     0.016 C 
ATOM      3  C   LIG d   1       2.292  91.024 116.918  0.00  0.00     0.038 C 
ATOM      4  C   LIG d   1       3.470  91.534 117.484  0.00  0.00     0.028 C 
ATOM      5  C   LIG d   1       4.642  90.561 117.421  0.00  0.00    -0.047 C 
ATOM      6  C   LIG d   1       4.798  90.056 115.969  0.00  0.00     0.091 C 
ENDROOT
BRANCH   1   7
ATOM      7  O   LIG d   1       3.505  89.380 114.000  0.00  0.00    -0.368 OA
BRANCH   7   8
ATOM      8  C   LIG d   1       3.149  88.109 113.403  0.00  0.00     0.119 C 
BRANCH   8   9
ATOM      9  C   LIG d   1       2.990  87.089 114.547  0.00  0.00     0.028 C 
ATOM     10  C   LIG d   1       3.789  85.799 114.299  0.00  0.00     0.006 C 
ENDBRANCH   8   9
BRANCH   8  11
ATOM     11  C   LIG d   1       4.285  87.566 112.531  0.00  0.00     0.028 C 
ATOM     12  C   LIG d   1       5.505  88.498 112.493  0.00  0.00     0.006 C 
ENDBRANCH   8  11
ENDBRANCH   7   8
ENDBRANCH   1   7
BRANCH   6  13
ATOM     13  N   LIG d   1       5.870  89.034 115.836  0.00  0.00    -0.311 N 
ATOM     14  C   LIG d   1       5.918  87.923 116.569  0.00  0.00     0.210 C 
ATOM     15  C   LIG d   1       7.119  87.015 116.286  0.00  0.00     0.109 C 
ATOM     16  O   LIG d   1       5.064  87.588 117.403  0.00  0.00    -0.276 OA
ATOM     17  H   LIG d   1       6.587  89.211 115.160  0.00  0.00     0.149 HD
ENDBRANCH   6  13
BRANCH   5  18
ATOM     18  N   LIG d   1       5.837  91.270 117.918  0.00  0.00     0.381 N 
ATOM     19  H   LIG d   1       6.354  91.644 117.148  0.00  0.00    -0.090 HD
ATOM     20  H   LIG d   1       6.424  90.615 118.405  0.00  0.00    -0.090 HD
ATOM     21  H   LIG d   1       5.565  92.005 118.534  0.00  0.00    -0.090 HD
ENDBRANCH   5  18
BRANCH   3  22
ATOM     22  C   LIG d   1       1.076  91.457 117.426  0.00  0.00     0.382 C 
ATOM     23  O   LIG d   1       0.272  92.075 116.688  0.00  0.00    -0.241 OA
ATOM     24  O   LIG d   1       0.793  91.276 118.626  0.00  0.00    -0.241 OA
ENDBRANCH   3  22
TORSDOF 7
ENDMDL
MODEL 2
REMARK VINA RESULT:      -5.0      1.891      2.373
REMARK  7 active torsions:
REMARK  status: ('A' for Active; 'I' for Inactive)
REMARK    1  A    between atoms: C_2  and  C_3 
REMARK    2  A    between atoms: C_3  and  O_6 
REMARK    3  A    between atoms: C_3  and  C_4 
REMARK    4  A    between atoms: C_7  and  O_6 
REMARK    5  A    between atoms: C_9  and  C_10 
REMARK    6  A    between atoms: N_15  and  C_14 
REMARK    7  A    between atoms: N_20  and  C_19 
REMARK       I    between atoms: C_22  and  N_20 
ROOT
ATOM      1  C   LIG d   1       4.471  87.212 115.874  0.00  0.00     0.161 C 
ATOM      2  C   LIG d   1       3.438  88.155 115.745  0.00  0.00     0.016 C 
ATOM      3  C   LIG d   1       3.579  89.517 116.098  0.00  0.00     0.038 C 
ATOM      4  C   LIG d   1       4.818  90.063 116.467  0.00  0.00     0.028 C 
ATOM      5  C   LIG d   1       5.765  89.046 117.095  0.00  0.00    -0.047 C 
ATOM      6  C   LIG d   1       5.862  87.811 116.169  0.00  0.00     0.091 C 
ENDROOT
BRANCH   1   7
ATOM      7  O   LIG d   1       4.523  86.380 114.699  0.00  0.00    -0.368 OA
BRANCH   7   8
ATOM      8  C   LIG d   1       3.704  86.803 113.581  0.00  0.00     0.119 C 
BRANCH   8   9
ATOM      9  C   LIG d   1       2.844  85.598 113.154  0.00  0.00     0.028 C 
ATOM     10  C   LIG d   1       1.356  85.790 113.489  0.00  0.00     0.006 C 
ENDBRANCH   8   9
BRANCH   8  11
ATOM     11  C   LIG d   1       4.562  87.143 112.359  0.00  0.00     0.028 C 
ATOM     12  C   LIG d   1       5.371  88.437 112.540  0.00  0.00     0.006 C 
ENDBRANCH   8  11
ENDBRANCH   7   8
ENDBRANCH   1   7
BRANCH   6  13
ATOM     13  N   LIG d   1       6.703  86.732 116.750  0.00  0.00    -0.311 N 
ATOM     14  C   LIG d   1       8.013  86.628 116.534  0.00  0.00     0.210 C 
ATOM     15  C   LIG d   1       8.686  85.430 117.211  0.00  0.00     0.109 C 
ATOM     16  O   LIG d   1       8.687  87.433 115.873  0.00  0.00    -0.276 OA
ATOM     17  H   LIG d   1       6.242  86.054 117.324  0.00  0.00     0.149 HD
ENDBRANCH   6  13
BRANCH   5  18
ATOM     18  N   LIG d   1       7.063  89.715 117.303  0.00  0.00     0.381 N 
ATOM     19  H   LIG d   1       7.649  89.146 117.881  0.00  0.00    -0.090 HD
ATOM     20  H   LIG d   1       6.907  90.588 117.775  0.00  0.00    -0.090 HD
ATOM     21  H   LIG d   1       7.507  89.879 116.426  0.00  0.00    -0.090 HD
ENDBRANCH   5  18
BRANCH   3  22
ATOM     22  C   LIG d   1       2.463  90.340 116.124  0.00  0.00     0.382 C 
ATOM     23  O   LIG d   1       2.595  91.568 116.342  0.00  0.00    -0.241 OA
ATOM     24  O   LIG d   1       1.323  89.862 115.975  0.00  0.00    -0.241 OA
ENDBRANCH   3  22
TORSDOF 7
ENDMDL
MODEL 3
REMARK VINA RESULT:      -4.9      2.030      4.210
REMARK  7 active torsions:
REMARK  status: ('A' for Active; 'I' for Inactive)
REMARK    1  A    between atoms: C_2  and  C_3 
REMARK    2  A    between atoms: C_3  and  O_6 
REMARK    3  A    between atoms: C_3  and  C_4 
REMARK    4  A    between atoms: C_7  and  O_6 
REMARK    5  A    between atoms: C_9  and  C_10 
REMARK    6  A    between atoms: N_15  and  C_14 
REMARK    7  A    between atoms: N_20  and  C_19 
REMARK       I    between atoms: C_22  and  N_20 
ROOT
ATOM      1  C   LIG d   1       4.196  89.264 115.160  0.00  0.00     0.161 C 
ATOM      2  C   LIG d   1       3.510  90.143 116.015  0.00  0.00     0.016 C 
ATOM      3  C   LIG d   1       2.276  89.828 116.629  0.00  0.00     0.038 C 
ATOM      4  C   LIG d   1       1.715  88.545 116.549  0.00  0.00     0.028 C 
ATOM      5  C   LIG d   1       2.114  87.786 115.287  0.00  0.00    -0.047 C 
ATOM      6  C   LIG d   1       3.654  87.819 115.149  0.00  0.00     0.091 C 
ENDROOT
BRANCH   1   7
ATOM      7  O   LIG d   1       5.601  89.269 115.478  0.00  0.00    -0.368 OA
BRANCH   7   8
ATOM      8  C   LIG d   1       5.936  89.264 116.888  0.00  0.00     0.119 C 
BRANCH   8   9
ATOM      9  C   LIG d   1       7.059  90.297 117.101  0.00  0.00     0.028 C 
ATOM     10  C   LIG d   1       6.739  91.289 118.232  0.00  0.00     0.006 C 
ENDBRANCH   8   9
BRANCH   8  11
ATOM     11  C   LIG d   1       6.534  87.920 117.314  0.00  0.00     0.028 C 
ATOM     12  C   LIG d   1       7.423  87.293 116.228  0.00  0.00     0.006 C 
ENDBRANCH   8  11
ENDBRANCH   7   8
ENDBRANCH   1   7
BRANCH   6  13
ATOM     13  N   LIG d   1       4.124  87.172 113.897  0.00  0.00    -0.311 N 
ATOM     14  C   LIG d   1       3.741  87.561 112.682  0.00  0.00     0.210 C 
ATOM     15  C   LIG d   1       4.329  86.745 111.526  0.00  0.00     0.109 C 
ATOM     16  O   LIG d   1       2.996  88.525 112.450  0.00  0.00    -0.276 OA
ATOM     17  H   LIG d   1       4.756  86.401 113.991  0.00  0.00     0.149 HD
ENDBRANCH   6  13
BRANCH   5  18
ATOM     18  N   LIG d   1       1.573  86.419 115.399  0.00  0.00     0.381 N 
ATOM     19  H   LIG d   1       2.067  85.807 114.781  0.00  0.00    -0.090 HD
ATOM     20  H   LIG d   1       0.606  86.429 115.126  0.00  0.00    -0.090 HD
ATOM     21  H   LIG d   1       1.657  86.094 116.337  0.00  0.00    -0.090 HD
ENDBRANCH   5  18
BRANCH   3  22
ATOM     22  C   LIG d   1       1.571  90.815 117.301  0.00  0.00     0.382 C 
ATOM     23  O   LIG d   1       1.353  90.702 118.531  0.00  0.00    -0.241 OA
ATOM     24  O   LIG d   1       1.112  91.794 116.683  0.00  0.00    -0.241 OA
ENDBRANCH   3  22
TORSDOF 7
ENDMDL
MODEL 4
REMARK VINA RESULT:      -4.8      2.363      4.892
REMARK  7 active torsions:
REMARK  status: ('A' for Active; 'I' for Inactive)
REMARK    1  A    between atoms: C_2  and  C_3 
REMARK    2  A    between atoms: C_3  and  O_6 
REMARK    3  A    between atoms: C_3  and  C_4 
REMARK    4  A    between atoms: C_7  and  O_6 
REMARK    5  A    between atoms: C_9  and  C_10 
REMARK    6  A    between atoms: N_15  and  C_14 
REMARK    7  A    between atoms: N_20  and  C_19 
REMARK       I    between atoms: C_22  and  N_20 
ROOT
ATOM      1  C   LIG d   1       2.193  88.759 115.476  0.00  0.00     0.161 C 
ATOM      2  C   LIG d   1       2.679  88.374 114.215  0.00  0.00     0.016 C 
ATOM      3  C   LIG d   1       4.053  88.367 113.880  0.00  0.00     0.038 C 
ATOM      4  C   LIG d   1       5.051  88.601 114.837  0.00  0.00     0.028 C 
ATOM      5  C   LIG d   1       4.589  89.485 115.991  0.00  0.00    -0.047 C 
ATOM      6  C   LIG d   1       3.274  88.911 116.567  0.00  0.00     0.091 C 
ENDROOT
BRANCH   1   7
ATOM      7  O   LIG d   1       1.172  87.839 115.907  0.00  0.00    -0.368 OA
BRANCH   7   8
ATOM      8  C   LIG d   1       1.369  86.451 115.542  0.00  0.00     0.119 C 
BRANCH   8   9
ATOM      9  C   LIG d   1       0.005  85.893 115.089  0.00  0.00     0.028 C 
ATOM     10  C   LIG d   1      -0.030  85.580 113.583  0.00  0.00     0.006 C 
ENDBRANCH   8   9
BRANCH   8  11
ATOM     11  C   LIG d   1       1.769  85.606 116.755  0.00  0.00     0.028 C 
ATOM     12  C   LIG d   1       1.145  86.112 118.065  0.00  0.00     0.006 C 
ENDBRANCH   8  11
ENDBRANCH   7   8
ENDBRANCH   1   7
BRANCH   6  13
ATOM     13  N   LIG d   1       2.708  89.763 117.645  0.00  0.00    -0.311 N 
ATOM     14  C   LIG d   1       2.397  91.047 117.477  0.00  0.00     0.210 C 
ATOM     15  C   LIG d   1       1.845  91.747 118.724  0.00  0.00     0.109 C 
ATOM     16  O   LIG d   1       2.495  91.665 116.406  0.00  0.00    -0.276 OA
ATOM     17  H   LIG d   1       2.566  89.334 118.538  0.00  0.00     0.149 HD
ENDBRANCH   6  13
BRANCH   5  18
ATOM     18  N   LIG d   1       5.681  89.533 116.981  0.00  0.00     0.381 N 
ATOM     19  H   LIG d   1       5.479  90.224 117.675  0.00  0.00    -0.090 HD
ATOM     20  H   LIG d   1       6.532  89.795 116.514  0.00  0.00    -0.090 HD
ATOM     21  H   LIG d   1       5.791  88.642 117.411  0.00  0.00    -0.090 HD
ENDBRANCH   5  18
BRANCH   3  22
ATOM     22  C   LIG d   1       4.438  88.162 112.563  0.00  0.00     0.382 C 
ATOM     23  O   LIG d   1       3.619  87.693 111.737  0.00  0.00    -0.241 OA
ATOM     24  O   LIG d   1       5.606  88.399 112.203  0.00  0.00    -0.241 OA
ENDBRANCH   3  22
TORSDOF 7
ENDMDL
MODEL 5
REMARK VINA RESULT:      -4.7      2.178      4.469
REMARK  7 active torsions:
REMARK  status: ('A' for Active; 'I' for Inactive)
REMARK    1  A    between atoms: C_2  and  C_3 
REMARK    2  A    between atoms: C_3  and  O_6 
REMARK    3  A    between atoms: C_3  and  C_4 
REMARK    4  A    between atoms: C_7  and  O_6 
REMARK    5  A    between atoms: C_9  and  C_10 
REMARK    6  A    between atoms: N_15  and  C_14 
REMARK    7  A    between atoms: N_20  and  C_19 
REMARK       I    between atoms: C_22  and  N_20 
ROOT
ATOM      1  C   LIG d   1       4.403  89.626 116.110  0.00  0.00     0.161 C 
ATOM      2  C   LIG d   1       5.788  89.486 116.296  0.00  0.00     0.016 C 
ATOM      3  C   LIG d   1       6.518  90.197 117.277  0.00  0.00     0.038 C 
ATOM      4  C   LIG d   1       5.882  90.989 118.244  0.00  0.00     0.028 C 
ATOM      5  C   LIG d   1       4.544  91.555 117.780  0.00  0.00    -0.047 C 
ATOM      6  C   LIG d   1       3.675  90.401 117.228  0.00  0.00     0.091 C 
ENDROOT
BRANCH   1   7
ATOM      7  O   LIG d   1       3.801  88.329 115.926  0.00  0.00    -0.368 OA
BRANCH   7   8
ATOM      8  C   LIG d   1       3.243  88.066 114.616  0.00  0.00     0.119 C 
BRANCH   8   9
ATOM      9  C   LIG d   1       1.915  87.310 114.821  0.00  0.00     0.028 C 
ATOM     10  C   LIG d   1       1.525  87.204 116.305  0.00  0.00     0.006 C 
ENDBRANCH   8   9
BRANCH   8  11
ATOM     11  C   LIG d   1       4.132  87.112 113.812  0.00  0.00     0.028 C 
ATOM     12  C   LIG d   1       5.096  87.849 112.869  0.00  0.00     0.006 C 
ENDBRANCH   8  11
ENDBRANCH   7   8
ENDBRANCH   1   7
BRANCH   6  13
ATOM     13  N   LIG d   1       2.382  90.880 116.675  0.00  0.00    -0.311 N 
ATOM     14  C   LIG d   1       1.270  90.989 117.400  0.00  0.00     0.210 C 
ATOM     15  C   LIG d   1       0.042  91.484 116.630  0.00  0.00     0.109 C 
ATOM     16  O   LIG d   1       1.192  90.754 118.615  0.00  0.00    -0.276 OA
ATOM     17  H   LIG d   1       2.363  91.123 115.704  0.00  0.00     0.149 HD
ENDBRANCH   6  13
BRANCH   5  18
ATOM     18  N   LIG d   1       3.928  92.244 118.930  0.00  0.00     0.381 N 
ATOM     19  H   LIG d   1       4.587  92.306 119.680  0.00  0.00    -0.090 HD
ATOM     20  H   LIG d   1       3.140  91.706 119.246  0.00  0.00    -0.090 HD
ATOM     21  H   LIG d   1       3.631  93.156 118.662  0.00  0.00    -0.090 HD
ENDBRANCH   5  18
BRANCH   3  22
ATOM     22  C   LIG d   1       7.903  90.150 117.271  0.00  0.00     0.382 C 
ATOM     23  O   LIG d   1       8.566  91.215 117.250  0.00  0.00    -0.241 OA
ATOM     24  O   LIG d   1       8.499  89.057 117.241  0.00  0.00    -0.241 OA
ENDBRANCH   3  22
TORSDOF 7
ENDMDL
MODEL 6
REMARK VINA RESULT:      -4.4      3.314      4.774
REMARK  7 active torsions:
REMARK  status: ('A' for Active; 'I' for Inactive)
REMARK    1  A    between atoms: C_2  and  C_3 
REMARK    2  A    between atoms: C_3  and  O_6 
REMARK    3  A    between atoms: C_3  and  C_4 
REMARK    4  A    between atoms: C_7  and  O_6 
REMARK    5  A    between atoms: C_9  and  C_10 
REMARK    6  A    between atoms: N_15  and  C_14 
REMARK    7  A    between atoms: N_20  and  C_19 
REMARK       I    between atoms: C_22  and  N_20 
ROOT
ATOM      1  C   LIG d   1       2.762  85.746 115.055  0.00  0.00     0.161 C 
ATOM      2  C   LIG d   1       1.559  85.818 114.334  0.00  0.00     0.016 C 
ATOM      3  C   LIG d   1       0.289  85.926 114.948  0.00  0.00     0.038 C 
ATOM      4  C   LIG d   1       0.148  86.122 116.329  0.00  0.00     0.028 C 
ATOM      5  C   LIG d   1       1.303  85.550 117.144  0.00  0.00    -0.047 C 
ATOM      6  C   LIG d   1       2.636  86.071 116.558  0.00  0.00     0.091 C 
ENDROOT
BRANCH   1   7
ATOM      7  O   LIG d   1       3.751  86.595 114.440  0.00  0.00    -0.368 OA
BRANCH   7   8
ATOM      8  C   LIG d   1       3.262  87.834 113.870  0.00  0.00     0.119 C 
BRANCH   8   9
ATOM      9  C   LIG d   1       4.025  88.070 112.552  0.00  0.00     0.028 C 
ATOM     10  C   LIG d   1       4.252  86.769 111.764  0.00  0.00     0.006 C 
ENDBRANCH   8   9
BRANCH   8  11
ATOM     11  C   LIG d   1       3.608  89.032 114.759  0.00  0.00     0.028 C 
ATOM     12  C   LIG d   1       2.402  89.551 115.557  0.00  0.00     0.006 C 
ENDBRANCH   8  11
ENDBRANCH   7   8
ENDBRANCH   1   7
BRANCH   6  13
ATOM     13  N   LIG d   1       3.821  85.493 117.244  0.00  0.00    -0.311 N 
ATOM     14  C   LIG d   1       4.808  86.231 117.749  0.00  0.00     0.210 C 
ATOM     15  C   LIG d   1       5.944  85.434 118.397  0.00  0.00     0.109 C 
ATOM     16  O   LIG d   1       4.835  87.471 117.751  0.00  0.00    -0.276 OA
ATOM     17  H   LIG d   1       3.865  84.495 117.315  0.00  0.00     0.149 HD
ENDBRANCH   6  13
BRANCH   5  18
ATOM     18  N   LIG d   1       1.096  85.946 118.550  0.00  0.00     0.381 N 
ATOM     19  H   LIG d   1       1.925  85.763 119.079  0.00  0.00    -0.090 HD
ATOM     20  H   LIG d   1       0.349  85.396 118.935  0.00  0.00    -0.090 HD
ATOM     21  H   LIG d   1       0.867  86.914 118.602  0.00  0.00    -0.090 HD
ENDBRANCH   5  18
BRANCH   3  22
ATOM     22  C   LIG d   1      -0.858  85.797 114.180  0.00  0.00     0.382 C 
ATOM     23  O   LIG d   1      -0.813  86.011 112.945  0.00  0.00    -0.241 OA
ATOM     24  O   LIG d   1      -1.947  85.512 114.714  0.00  0.00    -0.241 OA
ENDBRANCH   3  22
TORSDOF 7
ENDMDL
MODEL 7
REMARK VINA RESULT:      -4.4      1.667      2.211
REMARK  7 active torsions:
REMARK  status: ('A' for Active; 'I' for Inactive)
REMARK    1  A    between atoms: C_2  and  C_3 
REMARK    2  A    between atoms: C_3  and  O_6 
REMARK    3  A    between atoms: C_3  and  C_4 
REMARK    4  A    between atoms: C_7  and  O_6 
REMARK    5  A    between atoms: C_9  and  C_10 
REMARK    6  A    between atoms: N_15  and  C_14 
REMARK    7  A    between atoms: N_20  and  C_19 
REMARK       I    between atoms: C_22  and  N_20 
ROOT
ATOM      1  C   LIG d   1       2.252  88.777 116.404  0.00  0.00     0.161 C 
ATOM      2  C   LIG d   1       1.240  89.717 116.661  0.00  0.00     0.016 C 
ATOM      3  C   LIG d   1       1.487  90.995 117.212  0.00  0.00     0.038 C 
ATOM      4  C   LIG d   1       2.789  91.481 117.404  0.00  0.00     0.028 C 
ATOM      5  C   LIG d   1       3.819  90.380 117.632  0.00  0.00    -0.047 C 
ATOM      6  C   LIG d   1       3.689  89.331 116.504  0.00  0.00     0.091 C 
ENDROOT
BRANCH   1   7
ATOM      7  O   LIG d   1       2.039  88.169 115.115  0.00  0.00    -0.368 OA
BRANCH   7   8
ATOM      8  C   LIG d   1       1.539  86.809 115.127  0.00  0.00     0.119 C 
BRANCH   8   9
ATOM      9  C   LIG d   1       1.578  86.314 116.586  0.00  0.00     0.028 C 
ATOM     10  C   LIG d   1       0.271  85.620 117.005  0.00  0.00     0.006 C 
ENDBRANCH   8   9
BRANCH   8  11
ATOM     11  C   LIG d   1       2.467  85.867 114.354  0.00  0.00     0.028 C 
ATOM     12  C   LIG d   1       2.408  86.088 112.834  0.00  0.00     0.006 C 
ENDBRANCH   8  11
ENDBRANCH   7   8
ENDBRANCH   1   7
BRANCH   6  13
ATOM     13  N   LIG d   1       4.604  88.176 116.696  0.00  0.00    -0.311 N 
ATOM     14  C   LIG d   1       5.358  87.667 115.723  0.00  0.00     0.210 C 
ATOM     15  C   LIG d   1       6.214  86.464 116.130  0.00  0.00     0.109 C 
ATOM     16  O   LIG d   1       5.423  88.118 114.570  0.00  0.00    -0.276 OA
ATOM     17  H   LIG d   1       4.637  87.767 117.610  0.00  0.00     0.149 HD
ENDBRANCH   6  13
BRANCH   5  18
ATOM     18  N   LIG d   1       5.149  91.016 117.680  0.00  0.00     0.381 N 
ATOM     19  H   LIG d   1       5.804  90.399 118.117  0.00  0.00    -0.090 HD
ATOM     20  H   LIG d   1       5.088  91.854 118.232  0.00  0.00    -0.090 HD
ATOM     21  H   LIG d   1       5.454  91.238 116.758  0.00  0.00    -0.090 HD
ENDBRANCH   5  18
BRANCH   3  22
ATOM     22  C   LIG d   1       0.422  91.788 117.614  0.00  0.00     0.382 C 
ATOM     23  O   LIG d   1       0.044  91.769 118.810  0.00  0.00    -0.241 OA
ATOM     24  O   LIG d   1      -0.193  92.486 116.786  0.00  0.00    -0.241 OA
ENDBRANCH   3  22
TORSDOF 7
ENDMDL
MODEL 8
REMARK VINA RESULT:      -4.3      2.325      4.818
REMARK  7 active torsions:
REMARK  status: ('A' for Active; 'I' for Inactive)
REMARK    1  A    between atoms: C_2  and  C_3 
REMARK    2  A    between atoms: C_3  and  O_6 
REMARK    3  A    between atoms: C_3  and  C_4 
REMARK    4  A    between atoms: C_7  and  O_6 
REMARK    5  A    between atoms: C_9  and  C_10 
REMARK    6  A    between atoms: N_15  and  C_14 
REMARK    7  A    between atoms: N_20  and  C_19 
REMARK       I    between atoms: C_22  and  N_20 
ROOT
ATOM      1  C   LIG d   1       4.053  89.739 116.037  0.00  0.00     0.161 C 
ATOM      2  C   LIG d   1       5.438  89.555 116.190  0.00  0.00     0.016 C 
ATOM      3  C   LIG d   1       6.208  90.220 117.172  0.00  0.00     0.038 C 
ATOM      4  C   LIG d   1       5.616  91.005 118.172  0.00  0.00     0.028 C 
ATOM      5  C   LIG d   1       4.286  91.621 117.750  0.00  0.00    -0.047 C 
ATOM      6  C   LIG d   1       3.372  90.507 117.190  0.00  0.00     0.091 C 
ENDROOT
BRANCH   1   7
ATOM      7  O   LIG d   1       3.410  88.465 115.835  0.00  0.00    -0.368 OA
BRANCH   7   8
ATOM      8  C   LIG d   1       3.076  87.722 117.033  0.00  0.00     0.119 C 
BRANCH   8   9
ATOM      9  C   LIG d   1       3.810  86.369 116.958  0.00  0.00     0.028 C 
ATOM     10  C   LIG d   1       4.444  86.121 115.579  0.00  0.00     0.006 C 
ENDBRANCH   8   9
BRANCH   8  11
ATOM     11  C   LIG d   1       1.586  87.374 117.075  0.00  0.00     0.028 C 
ATOM     12  C   LIG d   1       1.079  86.766 115.758  0.00  0.00     0.006 C 
ENDBRANCH   8  11
ENDBRANCH   7   8
ENDBRANCH   1   7
BRANCH   6  13
ATOM     13  N   LIG d   1       2.082  91.037 116.676  0.00  0.00    -0.311 N 
ATOM     14  C   LIG d   1       1.005  91.209 117.440  0.00  0.00     0.210 C 
ATOM     15  C   LIG d   1      -0.228  91.748 116.707  0.00  0.00     0.109 C 
ATOM     16  O   LIG d   1       0.962  90.998 118.662  0.00  0.00    -0.276 OA
ATOM     17  H   LIG d   1       2.037  91.264 115.702  0.00  0.00     0.149 HD
ENDBRANCH   6  13
BRANCH   5  18
ATOM     18  N   LIG d   1       3.714  92.298 118.930  0.00  0.00     0.381 N 
ATOM     19  H   LIG d   1       2.715  92.259 118.892  0.00  0.00    -0.090 HD
ATOM     20  H   LIG d   1       3.993  93.263 118.917  0.00  0.00    -0.090 HD
ATOM     21  H   LIG d   1       4.040  91.862 119.764  0.00  0.00    -0.090 HD
ENDBRANCH   5  18
BRANCH   3  22
ATOM     22  C   LIG d   1       7.591  90.133 117.135  0.00  0.00     0.382 C 
ATOM     23  O   LIG d   1       8.284  91.179 117.102  0.00  0.00    -0.241 OA
ATOM     24  O   LIG d   1       8.154  89.023 117.089  0.00  0.00    -0.241 OA
ENDBRANCH   3  22
TORSDOF 7
ENDMDL
MODEL 9
REMARK VINA RESULT:      -4.3      2.953      3.526
REMARK  7 active torsions:
REMARK  status: ('A' for Active; 'I' for Inactive)
REMARK    1  A    between atoms: C_2  and  C_3 
REMARK    2  A    between atoms: C_3  and  O_6 
REMARK    3  A    between atoms: C_3  and  C_4 
REMARK    4  A    between atoms: C_7  and  O_6 
REMARK    5  A    between atoms: C_9  and  C_10 
REMARK    6  A    between atoms: N_15  and  C_14 
REMARK    7  A    between atoms: N_20  and  C_19 
REMARK       I    between atoms: C_22  and  N_20 
ROOT
ATOM      1  C   LIG d   1       3.860  86.236 115.775  0.00  0.00     0.161 C 
ATOM      2  C   LIG d   1       2.515  85.878 115.581  0.00  0.00     0.016 C 
ATOM      3  C   LIG d   1       1.429  86.628 116.087  0.00  0.00     0.038 C 
ATOM      4  C   LIG d   1       1.612  87.877 116.698  0.00  0.00     0.028 C 
ATOM      5  C   LIG d   1       2.976  88.033 117.362  0.00  0.00    -0.047 C 
ATOM      6  C   LIG d   1       4.076  87.654 116.343  0.00  0.00     0.091 C 
ENDROOT
BRANCH   1   7
ATOM      7  O   LIG d   1       4.592  86.072 114.545  0.00  0.00    -0.368 OA
BRANCH   7   8
ATOM      8  C   LIG d   1       4.176  86.912 113.439  0.00  0.00     0.119 C 
BRANCH   8   9
ATOM      9  C   LIG d   1       4.092  86.019 112.186  0.00  0.00     0.028 C 
ATOM     10  C   LIG d   1       2.678  85.986 111.583  0.00  0.00     0.006 C 
ENDBRANCH   8   9
BRANCH   8  11
ATOM     11  C   LIG d   1       5.235  87.969 113.114  0.00  0.00     0.028 C 
ATOM     12  C   LIG d   1       4.661  89.395 113.075  0.00  0.00     0.006 C 
ENDBRANCH   8  11
ENDBRANCH   7   8
ENDBRANCH   1   7
BRANCH   6  13
ATOM     13  N   LIG d   1       5.438  87.698 116.937  0.00  0.00    -0.311 N 
ATOM     14  C   LIG d   1       6.257  88.741 116.814  0.00  0.00     0.210 C 
ATOM     15  C   LIG d   1       7.623  88.572 117.486  0.00  0.00     0.109 C 
ATOM     16  O   LIG d   1       5.970  89.802 116.240  0.00  0.00    -0.276 OA
ATOM     17  H   LIG d   1       5.740  86.891 117.446  0.00  0.00     0.149 HD
ENDBRANCH   6  13
BRANCH   5  18
ATOM     18  N   LIG d   1       3.084  89.426 117.837  0.00  0.00     0.381 N 
ATOM     19  H   LIG d   1       2.392  89.599 118.538  0.00  0.00    -0.090 HD
ATOM     20  H   LIG d   1       2.914  90.047 117.065  0.00  0.00    -0.090 HD
ATOM     21  H   LIG d   1       3.993  89.589 118.210  0.00  0.00    -0.090 HD
ENDBRANCH   5  18
BRANCH   3  22
ATOM     22  C   LIG d   1       0.145  86.109 116.020  0.00  0.00     0.382 C 
ATOM     23  O   LIG d   1      -0.580  86.356 115.026  0.00  0.00    -0.241 OA
ATOM     24  O   LIG d   1      -0.314  85.434 116.961  0.00  0.00    -0.241 OA
ENDBRANCH   3  22
TORSDOF 7
ENDMDL
