MODEL 1
REMARK VINA RESULT:      -4.7      0.000      0.000
REMARK  7 active torsions:
REMARK  status: ('A' for Active; 'I' for Inactive)
REMARK    1  A    between atoms: C_2  and  C_3 
REMARK    2  A    between atoms: C_3  and  O_6 
REMARK    3  A    between atoms: C_3  and  C_4 
REMARK    4  A    between atoms: C_7  and  O_6 
REMARK    5  A    between atoms: C_9  and  C_10 
REMARK    6  A    between atoms: N_15  and  C_14 
REMARK    7  A    between atoms: N_20  and  C_19 
REMARK       I    between atoms: C_22  and  N_20 
ROOT
ATOM      1  C   LIG d   1       4.166  88.427 115.468  0.00  0.00     0.161 C 
ATOM      2  C   LIG d   1       4.771  89.080 116.555  0.00  0.00     0.016 C 
ATOM      3  C   LIG d   1       5.977  89.810 116.451  0.00  0.00     0.038 C 
ATOM      4  C   LIG d   1       6.585  90.065 115.213  0.00  0.00     0.028 C 
ATOM      5  C   LIG d   1       6.285  89.003 114.161  0.00  0.00    -0.047 C 
ATOM      6  C   LIG d   1       4.756  88.787 114.088  0.00  0.00     0.091 C 
ENDROOT
BRANCH   1   7
ATOM      7  O   LIG d   1       2.745  88.666 115.483  0.00  0.00    -0.368 OA
BRANCH   7   8
ATOM      8  C   LIG d   1       1.942  87.689 116.190  0.00  0.00     0.119 C 
BRANCH   8   9
ATOM      9  C   LIG d   1       1.263  86.796 115.134  0.00  0.00     0.028 C 
ATOM     10  C   LIG d   1       1.974  85.443 114.965  0.00  0.00     0.006 C 
ENDBRANCH   8   9
BRANCH   8  11
ATOM     11  C   LIG d   1       0.794  88.358 116.953  0.00  0.00     0.028 C 
ATOM     12  C   LIG d   1      -0.563  87.682 116.701  0.00  0.00     0.006 C 
ENDBRANCH   8  11
ENDBRANCH   7   8
ENDBRANCH   1   7
BRANCH   6  13
ATOM     13  N   LIG d   1       4.381  87.703 113.142  0.00  0.00    -0.311 N 
ATOM     14  C   LIG d   1       3.329  87.772 112.329  0.00  0.00     0.210 C 
ATOM     15  C   LIG d   1       3.110  86.538 111.449  0.00  0.00     0.109 C 
ATOM     16  O   LIG d   1       2.575  88.752 112.228  0.00  0.00    -0.276 OA
ATOM     17  H   LIG d   1       4.957  86.884 113.136  0.00  0.00     0.149 HD
ENDBRANCH   6  13
BRANCH   5  18
ATOM     18  N   LIG d   1       6.865  89.463 112.885  0.00  0.00     0.381 N 
ATOM     19  H   LIG d   1       6.419  90.311 112.596  0.00  0.00    -0.090 HD
ATOM     20  H   LIG d   1       6.699  88.765 112.182  0.00  0.00    -0.090 HD
ATOM     21  H   LIG d   1       7.844  89.614 112.990  0.00  0.00    -0.090 HD
ENDBRANCH   5  18
BRANCH   3  22
ATOM     22  C   LIG d   1       6.609  90.260 117.601  0.00  0.00     0.382 C 
ATOM     23  O   LIG d   1       7.434  89.523 118.192  0.00  0.00    -0.241 OA
ATOM     24  O   LIG d   1       6.332  91.377 118.078  0.00  0.00    -0.241 OA
ENDBRANCH   3  22
TORSDOF 7
ENDMDL
MODEL 2
REMARK VINA RESULT:      -4.6      1.840      4.950
REMARK  7 active torsions:
REMARK  status: ('A' for Active; 'I' for Inactive)
REMARK    1  A    between atoms: C_2  and  C_3 
REMARK    2  A    between atoms: C_3  and  O_6 
REMARK    3  A    between atoms: C_3  and  C_4 
REMARK    4  A    between atoms: C_7  and  O_6 
REMARK    5  A    between atoms: C_9  and  C_10 
REMARK    6  A    between atoms: N_15  and  C_14 
REMARK    7  A    between atoms: N_20  and  C_19 
REMARK       I    between atoms: C_22  and  N_20 
ROOT
ATOM      1  C   LIG d   1       3.419  89.206 115.243  0.00  0.00     0.161 C 
ATOM      2  C   LIG d   1       2.896  88.394 114.222  0.00  0.00     0.016 C 
ATOM      3  C   LIG d   1       3.627  88.026 113.069  0.00  0.00     0.038 C 
ATOM      4  C   LIG d   1       4.991  88.322 112.930  0.00  0.00     0.028 C 
ATOM      5  C   LIG d   1       5.421  89.568 113.697  0.00  0.00    -0.047 C 
ATOM      6  C   LIG d   1       4.941  89.446 115.161  0.00  0.00     0.091 C 
ENDROOT
BRANCH   1   7
ATOM      7  O   LIG d   1       3.066  88.661 116.529  0.00  0.00    -0.368 OA
BRANCH   7   8
ATOM      8  C   LIG d   1       2.066  89.394 117.279  0.00  0.00     0.119 C 
BRANCH   8   9
ATOM      9  C   LIG d   1       0.760  88.577 117.232  0.00  0.00     0.028 C 
ATOM     10  C   LIG d   1      -0.424  89.395 116.690  0.00  0.00     0.006 C 
ENDBRANCH   8   9
BRANCH   8  11
ATOM     11  C   LIG d   1       1.733  90.729 116.607  0.00  0.00     0.028 C 
ATOM     12  C   LIG d   1       2.180  91.942 117.439  0.00  0.00     0.006 C 
ENDBRANCH   8  11
ENDBRANCH   7   8
ENDBRANCH   1   7
BRANCH   6  13
ATOM     13  N   LIG d   1       5.247  90.661 115.961  0.00  0.00    -0.311 N 
ATOM     14  C   LIG d   1       5.733  90.619 117.201  0.00  0.00     0.210 C 
ATOM     15  C   LIG d   1       5.959  91.987 117.853  0.00  0.00     0.109 C 
ATOM     16  O   LIG d   1       6.029  89.580 117.810  0.00  0.00    -0.276 OA
ATOM     17  H   LIG d   1       5.066  91.547 115.532  0.00  0.00     0.149 HD
ENDBRANCH   6  13
BRANCH   5  18
ATOM     18  N   LIG d   1       6.887  89.681 113.577  0.00  0.00     0.381 N 
ATOM     19  H   LIG d   1       7.199  90.524 114.017  0.00  0.00    -0.090 HD
ATOM     20  H   LIG d   1       7.131  89.724 112.604  0.00  0.00    -0.090 HD
ATOM     21  H   LIG d   1       7.326  88.894 114.003  0.00  0.00    -0.090 HD
ENDBRANCH   5  18
BRANCH   3  22
ATOM     22  C   LIG d   1       2.981  87.387 112.021  0.00  0.00     0.382 C 
ATOM     23  O   LIG d   1       3.378  86.262 111.633  0.00  0.00    -0.241 OA
ATOM     24  O   LIG d   1       2.035  87.941 111.430  0.00  0.00    -0.241 OA
ENDBRANCH   3  22
TORSDOF 7
ENDMDL
MODEL 3
REMARK VINA RESULT:      -4.6      6.392      9.506
REMARK  7 active torsions:
REMARK  status: ('A' for Active; 'I' for Inactive)
REMARK    1  A    between atoms: C_2  and  C_3 
REMARK    2  A    between atoms: C_3  and  O_6 
REMARK    3  A    between atoms: C_3  and  C_4 
REMARK    4  A    between atoms: C_7  and  O_6 
REMARK    5  A    between atoms: C_9  and  C_10 
REMARK    6  A    between atoms: N_15  and  C_14 
REMARK    7  A    between atoms: N_20  and  C_19 
REMARK       I    between atoms: C_22  and  N_20 
ROOT
ATOM      1  C   LIG d   1      -2.763  92.098 117.536  0.00  0.00     0.161 C 
ATOM      2  C   LIG d   1      -4.045  92.669 117.481  0.00  0.00     0.016 C 
ATOM      3  C   LIG d   1      -5.158  92.026 116.892  0.00  0.00     0.038 C 
ATOM      4  C   LIG d   1      -5.098  90.696 116.449  0.00  0.00     0.028 C 
ATOM      5  C   LIG d   1      -3.699  90.261 116.026  0.00  0.00    -0.047 C 
ATOM      6  C   LIG d   1      -2.704  90.603 117.158  0.00  0.00     0.091 C 
ENDROOT
BRANCH   1   7
ATOM      7  O   LIG d   1      -2.190  92.307 118.842  0.00  0.00    -0.368 OA
BRANCH   7   8
ATOM      8  C   LIG d   1      -1.053  93.202 118.903  0.00  0.00     0.119 C 
BRANCH   8   9
ATOM      9  C   LIG d   1      -1.026  94.007 117.589  0.00  0.00     0.028 C 
ATOM     10  C   LIG d   1      -1.314  95.502 117.811  0.00  0.00     0.006 C 
ENDBRANCH   8   9
BRANCH   8  11
ATOM     11  C   LIG d   1       0.267  92.426 118.930  0.00  0.00     0.028 C 
ATOM     12  C   LIG d   1       1.402  93.153 118.192  0.00  0.00     0.006 C 
ENDBRANCH   8  11
ENDBRANCH   7   8
ENDBRANCH   1   7
BRANCH   6  13
ATOM     13  N   LIG d   1      -1.299  90.287 116.791  0.00  0.00    -0.311 N 
ATOM     14  C   LIG d   1      -0.721  89.114 117.046  0.00  0.00     0.210 C 
ATOM     15  C   LIG d   1       0.742  89.004 116.602  0.00  0.00     0.109 C 
ATOM     16  O   LIG d   1      -1.290  88.143 117.567  0.00  0.00    -0.276 OA
ATOM     17  H   LIG d   1      -0.773  91.007 116.336  0.00  0.00     0.149 HD
ENDBRANCH   6  13
BRANCH   5  18
ATOM     18  N   LIG d   1      -3.755  88.820 115.720  0.00  0.00     0.381 N 
ATOM     19  H   LIG d   1      -3.046  88.588 115.053  0.00  0.00    -0.090 HD
ATOM     20  H   LIG d   1      -4.650  88.607 115.316  0.00  0.00    -0.090 HD
ATOM     21  H   LIG d   1      -3.623  88.289 116.553  0.00  0.00    -0.090 HD
ENDBRANCH   5  18
BRANCH   3  22
ATOM     22  C   LIG d   1      -6.338  92.730 116.704  0.00  0.00     0.382 C 
ATOM     23  O   LIG d   1      -6.583  93.741 117.406  0.00  0.00    -0.241 OA
ATOM     24  O   LIG d   1      -7.181  92.341 115.874  0.00  0.00    -0.241 OA
ENDBRANCH   3  22
TORSDOF 7
ENDMDL
MODEL 4
REMARK VINA RESULT:      -4.5      3.078      5.047
REMARK  7 active torsions:
REMARK  status: ('A' for Active; 'I' for Inactive)
REMARK    1  A    between atoms: C_2  and  C_3 
REMARK    2  A    between atoms: C_3  and  O_6 
REMARK    3  A    between atoms: C_3  and  C_4 
REMARK    4  A    between atoms: C_7  and  O_6 
REMARK    5  A    between atoms: C_9  and  C_10 
REMARK    6  A    between atoms: N_15  and  C_14 
REMARK    7  A    between atoms: N_20  and  C_19 
REMARK       I    between atoms: C_22  and  N_20 
ROOT
ATOM      1  C   LIG d   1       3.647  90.052 115.730  0.00  0.00     0.161 C 
ATOM      2  C   LIG d   1       2.547  90.879 116.011  0.00  0.00     0.016 C 
ATOM      3  C   LIG d   1       2.466  91.706 117.155  0.00  0.00     0.038 C 
ATOM      4  C   LIG d   1       3.554  91.877 118.024  0.00  0.00     0.028 C 
ATOM      5  C   LIG d   1       4.498  90.680 118.057  0.00  0.00    -0.047 C 
ATOM      6  C   LIG d   1       4.890  90.310 116.608  0.00  0.00     0.091 C 
ENDROOT
BRANCH   1   7
ATOM      7  O   LIG d   1       3.991  90.153 114.334  0.00  0.00    -0.368 OA
BRANCH   7   8
ATOM      8  C   LIG d   1       3.787  88.959 113.540  0.00  0.00     0.119 C 
BRANCH   8   9
ATOM      9  C   LIG d   1       3.151  87.896 114.456  0.00  0.00     0.028 C 
ATOM     10  C   LIG d   1       3.970  86.595 114.503  0.00  0.00     0.006 C 
ENDBRANCH   8   9
BRANCH   8  11
ATOM     11  C   LIG d   1       5.121  88.357 113.086  0.00  0.00     0.028 C 
ATOM     12  C   LIG d   1       6.266  89.382 113.082  0.00  0.00     0.006 C 
ENDBRANCH   8  11
ENDBRANCH   7   8
ENDBRANCH   1   7
BRANCH   6  13
ATOM     13  N   LIG d   1       5.745  89.096 116.545  0.00  0.00    -0.311 N 
ATOM     14  C   LIG d   1       7.076  89.136 116.528  0.00  0.00     0.210 C 
ATOM     15  C   LIG d   1       7.764  87.770 116.441  0.00  0.00     0.109 C 
ATOM     16  O   LIG d   1       7.753  90.172 116.611  0.00  0.00    -0.276 OA
ATOM     17  H   LIG d   1       5.278  88.211 116.507  0.00  0.00     0.149 HD
ENDBRANCH   6  13
BRANCH   5  18
ATOM     18  N   LIG d   1       5.656  91.047 118.893  0.00  0.00     0.381 N 
ATOM     19  H   LIG d   1       6.482  90.610 118.538  0.00  0.00    -0.090 HD
ATOM     20  H   LIG d   1       5.500  90.714 119.829  0.00  0.00    -0.090 HD
ATOM     21  H   LIG d   1       5.771  92.037 118.900  0.00  0.00    -0.090 HD
ENDBRANCH   5  18
BRANCH   3  22
ATOM     22  C   LIG d   1       1.273  92.342 117.460  0.00  0.00     0.382 C 
ATOM     23  O   LIG d   1       0.192  91.904 116.997  0.00  0.00    -0.241 OA
ATOM     24  O   LIG d   1       1.267  93.374 118.158  0.00  0.00    -0.241 OA
ENDBRANCH   3  22
TORSDOF 7
ENDMDL
MODEL 5
REMARK VINA RESULT:      -4.4      3.248      5.350
REMARK  7 active torsions:
REMARK  status: ('A' for Active; 'I' for Inactive)
REMARK    1  A    between atoms: C_2  and  C_3 
REMARK    2  A    between atoms: C_3  and  O_6 
REMARK    3  A    between atoms: C_3  and  C_4 
REMARK    4  A    between atoms: C_7  and  O_6 
REMARK    5  A    between atoms: C_9  and  C_10 
REMARK    6  A    between atoms: N_15  and  C_14 
REMARK    7  A    between atoms: N_20  and  C_19 
REMARK       I    between atoms: C_22  and  N_20 
ROOT
ATOM      1  C   LIG d   1       1.935  89.078 115.959  0.00  0.00     0.161 C 
ATOM      2  C   LIG d   1       2.845  89.501 114.976  0.00  0.00     0.016 C 
ATOM      3  C   LIG d   1       3.343  88.653 113.960  0.00  0.00     0.038 C 
ATOM      4  C   LIG d   1       2.845  87.356 113.767  0.00  0.00     0.028 C 
ATOM      5  C   LIG d   1       2.298  86.721 115.040  0.00  0.00    -0.047 C 
ATOM      6  C   LIG d   1       1.296  87.698 115.697  0.00  0.00     0.091 C 
ENDROOT
BRANCH   1   7
ATOM      7  O   LIG d   1       0.912  90.077 116.140  0.00  0.00    -0.368 OA
BRANCH   7   8
ATOM      8  C   LIG d   1       0.916  90.769 117.413  0.00  0.00     0.119 C 
BRANCH   8   9
ATOM      9  C   LIG d   1      -0.552  90.989 117.826  0.00  0.00     0.028 C 
ATOM     10  C   LIG d   1      -0.965  92.469 117.761  0.00  0.00     0.006 C 
ENDBRANCH   8   9
BRANCH   8  11
ATOM     11  C   LIG d   1       1.515  92.173 117.282  0.00  0.00     0.028 C 
ATOM     12  C   LIG d   1       3.022  92.209 117.582  0.00  0.00     0.006 C 
ENDBRANCH   8  11
ENDBRANCH   7   8
ENDBRANCH   1   7
BRANCH   6  13
ATOM     13  N   LIG d   1       0.776  87.190 116.994  0.00  0.00    -0.311 N 
ATOM     14  C   LIG d   1      -0.501  87.287 117.360  0.00  0.00     0.210 C 
ATOM     15  C   LIG d   1      -0.821  86.717 118.746  0.00  0.00     0.109 C 
ATOM     16  O   LIG d   1      -1.405  87.761 116.656  0.00  0.00    -0.276 OA
ATOM     17  H   LIG d   1       1.436  86.761 117.613  0.00  0.00     0.149 HD
ENDBRANCH   6  13
BRANCH   5  18
ATOM     18  N   LIG d   1       1.688  85.430 114.668  0.00  0.00     0.381 N 
ATOM     19  H   LIG d   1       1.354  85.473 113.726  0.00  0.00    -0.090 HD
ATOM     20  H   LIG d   1       0.905  85.255 115.273  0.00  0.00    -0.090 HD
ATOM     21  H   LIG d   1       2.357  84.698 114.759  0.00  0.00    -0.090 HD
ENDBRANCH   5  18
BRANCH   3  22
ATOM     22  C   LIG d   1       4.380  89.088 113.149  0.00  0.00     0.382 C 
ATOM     23  O   LIG d   1       4.504  90.310 112.891  0.00  0.00    -0.241 OA
ATOM     24  O   LIG d   1       5.166  88.270 112.635  0.00  0.00    -0.241 OA
ENDBRANCH   3  22
TORSDOF 7
ENDMDL
MODEL 6
REMARK VINA RESULT:      -4.4      2.747      4.705
REMARK  7 active torsions:
REMARK  status: ('A' for Active; 'I' for Inactive)
REMARK    1  A    between atoms: C_2  and  C_3 
REMARK    2  A    between atoms: C_3  and  O_6 
REMARK    3  A    between atoms: C_3  and  C_4 
REMARK    4  A    between atoms: C_7  and  O_6 
REMARK    5  A    between atoms: C_9  and  C_10 
REMARK    6  A    between atoms: N_15  and  C_14 
REMARK    7  A    between atoms: N_20  and  C_19 
REMARK       I    between atoms: C_22  and  N_20 
ROOT
ATOM      1  C   LIG d   1       2.228  88.225 115.427  0.00  0.00     0.161 C 
ATOM      2  C   LIG d   1       1.040  88.172 116.174  0.00  0.00     0.016 C 
ATOM      3  C   LIG d   1       0.614  89.210 117.034  0.00  0.00     0.038 C 
ATOM      4  C   LIG d   1       1.276  90.445 117.089  0.00  0.00     0.028 C 
ATOM      5  C   LIG d   1       2.757  90.355 116.736  0.00  0.00    -0.047 C 
ATOM      6  C   LIG d   1       2.907  89.610 115.389  0.00  0.00     0.091 C 
ENDROOT
BRANCH   1   7
ATOM      7  O   LIG d   1       1.985  87.749 114.088  0.00  0.00    -0.368 OA
BRANCH   7   8
ATOM      8  C   LIG d   1       2.735  86.578 113.682  0.00  0.00     0.119 C 
BRANCH   8   9
ATOM      9  C   LIG d   1       1.798  85.702 112.828  0.00  0.00     0.028 C 
ATOM     10  C   LIG d   1       0.338  85.763 113.309  0.00  0.00     0.006 C 
ENDBRANCH   8   9
BRANCH   8  11
ATOM     11  C   LIG d   1       3.113  85.713 114.888  0.00  0.00     0.028 C 
ATOM     12  C   LIG d   1       4.630  85.499 115.016  0.00  0.00     0.006 C 
ENDBRANCH   8  11
ENDBRANCH   7   8
ENDBRANCH   1   7
BRANCH   6  13
ATOM     13  N   LIG d   1       4.329  89.404 115.011  0.00  0.00    -0.311 N 
ATOM     14  C   LIG d   1       4.821  89.712 113.812  0.00  0.00     0.210 C 
ATOM     15  C   LIG d   1       6.309  89.400 113.624  0.00  0.00     0.109 C 
ATOM     16  O   LIG d   1       4.174  90.244 112.898  0.00  0.00    -0.276 OA
ATOM     17  H   LIG d   1       4.933  89.005 115.704  0.00  0.00     0.149 HD
ENDBRANCH   6  13
BRANCH   5  18
ATOM     18  N   LIG d   1       3.291  91.729 116.699  0.00  0.00     0.381 N 
ATOM     19  H   LIG d   1       3.748  91.938 117.564  0.00  0.00    -0.090 HD
ATOM     20  H   LIG d   1       2.528  92.372 116.582  0.00  0.00    -0.090 HD
ATOM     21  H   LIG d   1       3.934  91.825 115.944  0.00  0.00    -0.090 HD
ENDBRANCH   5  18
BRANCH   3  22
ATOM     22  C   LIG d   1      -0.465  89.003 117.880  0.00  0.00     0.382 C 
ATOM     23  O   LIG d   1      -0.577  89.681 118.930  0.00  0.00    -0.241 OA
ATOM     24  O   LIG d   1      -1.303  88.116 117.630  0.00  0.00    -0.241 OA
ENDBRANCH   3  22
TORSDOF 7
ENDMDL
MODEL 7
REMARK VINA RESULT:      -4.3      5.922      8.112
REMARK  7 active torsions:
REMARK  status: ('A' for Active; 'I' for Inactive)
REMARK    1  A    between atoms: C_2  and  C_3 
REMARK    2  A    between atoms: C_3  and  O_6 
REMARK    3  A    between atoms: C_3  and  C_4 
REMARK    4  A    between atoms: C_7  and  O_6 
REMARK    5  A    between atoms: C_9  and  C_10 
REMARK    6  A    between atoms: N_15  and  C_14 
REMARK    7  A    between atoms: N_20  and  C_19 
REMARK       I    between atoms: C_22  and  N_20 
ROOT
ATOM      1  C   LIG d   1      -2.767  90.948 118.453  0.00  0.00     0.161 C 
ATOM      2  C   LIG d   1      -2.912  92.344 118.495  0.00  0.00     0.016 C 
ATOM      3  C   LIG d   1      -1.901  93.244 118.084  0.00  0.00     0.038 C 
ATOM      4  C   LIG d   1      -0.726  92.804 117.457  0.00  0.00     0.028 C 
ATOM      5  C   LIG d   1      -0.322  91.388 117.855  0.00  0.00    -0.047 C 
ATOM      6  C   LIG d   1      -1.535  90.449 117.669  0.00  0.00     0.091 C 
ENDROOT
BRANCH   1   7
ATOM      7  O   LIG d   1      -3.969  90.347 117.932  0.00  0.00    -0.368 OA
BRANCH   7   8
ATOM      8  C   LIG d   1      -4.498  90.930 116.716  0.00  0.00     0.119 C 
BRANCH   8   9
ATOM      9  C   LIG d   1      -5.952  91.353 117.000  0.00  0.00     0.028 C 
ATOM     10  C   LIG d   1      -6.157  92.872 116.872  0.00  0.00     0.006 C 
ENDBRANCH   8   9
BRANCH   8  11
ATOM     11  C   LIG d   1      -4.589  89.892 115.594  0.00  0.00     0.028 C 
ATOM     12  C   LIG d   1      -5.933  89.936 114.850  0.00  0.00     0.006 C 
ENDBRANCH   8  11
ENDBRANCH   7   8
ENDBRANCH   1   7
BRANCH   6  13
ATOM     13  N   LIG d   1      -1.250  89.060 118.115  0.00  0.00    -0.311 N 
ATOM     14  C   LIG d   1      -0.761  88.117 117.311  0.00  0.00     0.210 C 
ATOM     15  C   LIG d   1      -0.560  86.748 117.968  0.00  0.00     0.109 C 
ATOM     16  O   LIG d   1      -0.445  88.294 116.125  0.00  0.00    -0.276 OA
ATOM     17  H   LIG d   1      -1.448  88.838 119.071  0.00  0.00     0.149 HD
ENDBRANCH   6  13
BRANCH   5  18
ATOM     18  N   LIG d   1       0.838  91.007 117.027  0.00  0.00     0.381 N 
ATOM     19  H   LIG d   1       1.612  90.773 117.615  0.00  0.00    -0.090 HD
ATOM     20  H   LIG d   1       1.101  91.791 116.455  0.00  0.00    -0.090 HD
ATOM     21  H   LIG d   1       0.603  90.230 116.449  0.00  0.00    -0.090 HD
ENDBRANCH   5  18
BRANCH   3  22
ATOM     22  C   LIG d   1      -2.045  94.600 118.336  0.00  0.00     0.382 C 
ATOM     23  O   LIG d   1      -1.137  95.399 118.004  0.00  0.00    -0.241 OA
ATOM     24  O   LIG d   1      -3.053  95.029 118.930  0.00  0.00    -0.241 OA
ENDBRANCH   3  22
TORSDOF 7
ENDMDL
MODEL 8
REMARK VINA RESULT:      -4.3      5.128      7.578
REMARK  7 active torsions:
REMARK  status: ('A' for Active; 'I' for Inactive)
REMARK    1  A    between atoms: C_2  and  C_3 
REMARK    2  A    between atoms: C_3  and  O_6 
REMARK    3  A    between atoms: C_3  and  C_4 
REMARK    4  A    between atoms: C_7  and  O_6 
REMARK    5  A    between atoms: C_9  and  C_10 
REMARK    6  A    between atoms: N_15  and  C_14 
REMARK    7  A    between atoms: N_20  and  C_19 
REMARK       I    between atoms: C_22  and  N_20 
ROOT
ATOM      1  C   LIG d   1      -0.602  91.022 117.672  0.00  0.00     0.161 C 
ATOM      2  C   LIG d   1      -1.960  91.233 117.380  0.00  0.00     0.016 C 
ATOM      3  C   LIG d   1      -2.559  92.514 117.350  0.00  0.00     0.038 C 
ATOM      4  C   LIG d   1      -1.802  93.689 117.464  0.00  0.00     0.028 C 
ATOM      5  C   LIG d   1      -0.515  93.507 118.261  0.00  0.00    -0.047 C 
ATOM      6  C   LIG d   1       0.263  92.299 117.689  0.00  0.00     0.091 C 
ENDROOT
BRANCH   1   7
ATOM      7  O   LIG d   1      -0.050  90.055 116.757  0.00  0.00    -0.368 OA
BRANCH   7   8
ATOM      8  C   LIG d   1       0.326  88.778 117.329  0.00  0.00     0.119 C 
BRANCH   8   9
ATOM      9  C   LIG d   1       1.476  88.210 116.475  0.00  0.00     0.028 C 
ATOM     10  C   LIG d   1       2.230  89.305 115.702  0.00  0.00     0.006 C 
ENDBRANCH   8   9
BRANCH   8  11
ATOM     11  C   LIG d   1      -0.810  87.758 117.210  0.00  0.00     0.028 C 
ATOM     12  C   LIG d   1      -1.476  87.448 118.559  0.00  0.00     0.006 C 
ENDBRANCH   8  11
ENDBRANCH   7   8
ENDBRANCH   1   7
BRANCH   6  13
ATOM     13  N   LIG d   1       1.494  91.999 118.465  0.00  0.00    -0.311 N 
ATOM     14  C   LIG d   1       2.723  92.120 117.966  0.00  0.00     0.210 C 
ATOM     15  C   LIG d   1       3.852  91.740 118.930  0.00  0.00     0.109 C 
ATOM     16  O   LIG d   1       2.986  92.537 116.829  0.00  0.00    -0.276 OA
ATOM     17  H   LIG d   1       1.373  91.684 119.408  0.00  0.00     0.149 HD
ENDBRANCH   6  13
BRANCH   5  18
ATOM     18  N   LIG d   1       0.241  94.771 118.183  0.00  0.00     0.381 N 
ATOM     19  H   LIG d   1      -0.254  95.492 118.669  0.00  0.00    -0.090 HD
ATOM     20  H   LIG d   1       0.325  95.041 117.219  0.00  0.00    -0.090 HD
ATOM     21  H   LIG d   1       1.146  94.652 118.582  0.00  0.00    -0.090 HD
ENDBRANCH   5  18
BRANCH   3  22
ATOM     22  C   LIG d   1      -3.937  92.625 117.245  0.00  0.00     0.382 C 
ATOM     23  O   LIG d   1      -4.606  93.062 118.213  0.00  0.00    -0.241 OA
ATOM     24  O   LIG d   1      -4.524  92.253 116.212  0.00  0.00    -0.241 OA
ENDBRANCH   3  22
TORSDOF 7
ENDMDL
MODEL 9
REMARK VINA RESULT:      -4.3      3.231      5.967
REMARK  7 active torsions:
REMARK  status: ('A' for Active; 'I' for Inactive)
REMARK    1  A    between atoms: C_2  and  C_3 
REMARK    2  A    between atoms: C_3  and  O_6 
REMARK    3  A    between atoms: C_3  and  C_4 
REMARK    4  A    between atoms: C_7  and  O_6 
REMARK    5  A    between atoms: C_9  and  C_10 
REMARK    6  A    between atoms: N_15  and  C_14 
REMARK    7  A    between atoms: N_20  and  C_19 
REMARK       I    between atoms: C_22  and  N_20 
ROOT
ATOM      1  C   LIG d   1       0.808  88.517 116.334  0.00  0.00     0.161 C 
ATOM      2  C   LIG d   1      -0.572  88.361 116.546  0.00  0.00     0.016 C 
ATOM      3  C   LIG d   1      -1.424  89.419 116.935  0.00  0.00     0.038 C 
ATOM      4  C   LIG d   1      -0.978  90.748 116.992  0.00  0.00     0.028 C 
ATOM      5  C   LIG d   1       0.515  90.874 117.278  0.00  0.00    -0.047 C 
ATOM      6  C   LIG d   1       1.293  89.981 116.284  0.00  0.00     0.091 C 
ENDROOT
BRANCH   1   7
ATOM      7  O   LIG d   1       1.202  87.818 115.137  0.00  0.00    -0.368 OA
BRANCH   7   8
ATOM      8  C   LIG d   1       2.070  86.674 115.323  0.00  0.00     0.119 C 
BRANCH   8   9
ATOM      9  C   LIG d   1       1.328  85.436 114.783  0.00  0.00     0.028 C 
ATOM     10  C   LIG d   1       0.420  85.771 113.588  0.00  0.00     0.006 C 
ENDBRANCH   8   9
BRANCH   8  11
ATOM     11  C   LIG d   1       2.306  86.389 116.809  0.00  0.00     0.028 C 
ATOM     12  C   LIG d   1       3.792  86.446 117.199  0.00  0.00     0.006 C 
ENDBRANCH   8  11
ENDBRANCH   7   8
ENDBRANCH   1   7
BRANCH   6  13
ATOM     13  N   LIG d   1       2.755  89.981 116.548  0.00  0.00    -0.311 N 
ATOM     14  C   LIG d   1       3.674  90.064 115.588  0.00  0.00     0.210 C 
ATOM     15  C   LIG d   1       5.126  90.026 116.076  0.00  0.00     0.109 C 
ATOM     16  O   LIG d   1       3.425  90.199 114.380  0.00  0.00    -0.276 OA
ATOM     17  H   LIG d   1       3.046  89.906 117.504  0.00  0.00     0.149 HD
ENDBRANCH   6  13
BRANCH   5  18
ATOM     18  N   LIG d   1       0.870  92.302 117.174  0.00  0.00     0.381 N 
ATOM     19  H   LIG d   1       0.144  92.797 116.695  0.00  0.00    -0.090 HD
ATOM     20  H   LIG d   1       1.716  92.388 116.639  0.00  0.00    -0.090 HD
ATOM     21  H   LIG d   1       1.002  92.688 118.083  0.00  0.00    -0.090 HD
ENDBRANCH   5  18
BRANCH   3  22
ATOM     22  C   LIG d   1      -2.731  89.147 117.310  0.00  0.00     0.382 C 
ATOM     23  O   LIG d   1      -3.677  89.423 116.533  0.00  0.00    -0.241 OA
ATOM     24  O   LIG d   1      -2.979  88.669 118.433  0.00  0.00    -0.241 OA
ENDBRANCH   3  22
TORSDOF 7
ENDMDL
