MODEL 1
REMARK VINA RESULT:      -4.9      0.000      0.000
REMARK  7 active torsions:
REMARK  status: ('A' for Active; 'I' for Inactive)
REMARK    1  A    between atoms: C_2  and  C_3 
REMARK    2  A    between atoms: C_3  and  O_6 
REMARK    3  A    between atoms: C_3  and  C_4 
REMARK    4  A    between atoms: C_7  and  O_6 
REMARK    5  A    between atoms: C_9  and  C_10 
REMARK    6  A    between atoms: N_15  and  C_14 
REMARK    7  A    between atoms: N_20  and  C_19 
REMARK       I    between atoms: C_22  and  N_20 
ROOT
ATOM      1  C   LIG d   1       2.535  87.754 115.237  0.00  0.00     0.161 C 
ATOM      2  C   LIG d   1       2.475  88.653 116.315  0.00  0.00     0.016 C 
ATOM      3  C   LIG d   1       3.348  89.756 116.457  0.00  0.00     0.038 C 
ATOM      4  C   LIG d   1       4.247  90.125 115.446  0.00  0.00     0.028 C 
ATOM      5  C   LIG d   1       4.690  88.956 114.573  0.00  0.00    -0.047 C 
ATOM      6  C   LIG d   1       3.437  88.205 114.069  0.00  0.00     0.091 C 
ENDROOT
BRANCH   1   7
ATOM      7  O   LIG d   1       1.204  87.471 114.762  0.00  0.00    -0.368 OA
BRANCH   7   8
ATOM      8  C   LIG d   1       0.683  86.155 115.072  0.00  0.00     0.119 C 
BRANCH   8   9
ATOM      9  C   LIG d   1       0.430  85.430 113.736  0.00  0.00     0.028 C 
ATOM     10  C   LIG d   1      -0.542  86.200 112.826  0.00  0.00     0.006 C 
ENDBRANCH   8   9
BRANCH   8  11
ATOM     11  C   LIG d   1      -0.687  86.244 115.751  0.00  0.00     0.028 C 
ATOM     12  C   LIG d   1      -0.589  86.300 117.284  0.00  0.00     0.006 C 
ENDBRANCH   8  11
ENDBRANCH   7   8
ENDBRANCH   1   7
BRANCH   6  13
ATOM     13  N   LIG d   1       3.782  86.996 113.275  0.00  0.00    -0.311 N 
ATOM     14  C   LIG d   1       3.278  86.743 112.069  0.00  0.00     0.210 C 
ATOM     15  C   LIG d   1       3.750  85.432 111.432  0.00  0.00     0.109 C 
ATOM     16  O   LIG d   1       2.509  87.495 111.451  0.00  0.00    -0.276 OA
ATOM     17  H   LIG d   1       4.424  86.348 113.687  0.00  0.00     0.149 HD
ENDBRANCH   6  13
BRANCH   5  18
ATOM     18  N   LIG d   1       5.514  89.504 113.479  0.00  0.00     0.381 N 
ATOM     19  H   LIG d   1       6.479  89.497 113.746  0.00  0.00    -0.090 HD
ATOM     20  H   LIG d   1       5.241  90.457 113.311  0.00  0.00    -0.090 HD
ATOM     21  H   LIG d   1       5.387  88.964 112.652  0.00  0.00    -0.090 HD
ENDBRANCH   5  18
BRANCH   3  22
ATOM     22  C   LIG d   1       3.352  90.480 117.640  0.00  0.00     0.382 C 
ATOM     23  O   LIG d   1       3.454  91.730 117.609  0.00  0.00    -0.241 OA
ATOM     24  O   LIG d   1       3.301  89.896 118.739  0.00  0.00    -0.241 OA
ENDBRANCH   3  22
TORSDOF 7
ENDMDL
MODEL 2
REMARK VINA RESULT:      -4.8      1.902      2.455
REMARK  7 active torsions:
REMARK  status: ('A' for Active; 'I' for Inactive)
REMARK    1  A    between atoms: C_2  and  C_3 
REMARK    2  A    between atoms: C_3  and  O_6 
REMARK    3  A    between atoms: C_3  and  C_4 
REMARK    4  A    between atoms: C_7  and  O_6 
REMARK    5  A    between atoms: C_9  and  C_10 
REMARK    6  A    between atoms: N_15  and  C_14 
REMARK    7  A    between atoms: N_20  and  C_19 
REMARK       I    between atoms: C_22  and  N_20 
ROOT
ATOM      1  C   LIG d   1       3.438  88.653 115.816  0.00  0.00     0.161 C 
ATOM      2  C   LIG d   1       4.155  89.413 116.755  0.00  0.00     0.016 C 
ATOM      3  C   LIG d   1       5.419  89.988 116.490  0.00  0.00     0.038 C 
ATOM      4  C   LIG d   1       5.988  89.969 115.208  0.00  0.00     0.028 C 
ATOM      5  C   LIG d   1       5.536  88.783 114.363  0.00  0.00    -0.047 C 
ATOM      6  C   LIG d   1       3.992  88.715 114.377  0.00  0.00     0.091 C 
ENDROOT
BRANCH   1   7
ATOM      7  O   LIG d   1       2.049  89.036 115.835  0.00  0.00    -0.368 OA
BRANCH   7   8
ATOM      8  C   LIG d   1       1.208  88.337 116.785  0.00  0.00     0.119 C 
BRANCH   8   9
ATOM      9  C   LIG d   1       0.605  87.118 116.060  0.00  0.00     0.028 C 
ATOM     10  C   LIG d   1      -0.890  86.933 116.368  0.00  0.00     0.006 C 
ENDBRANCH   8   9
BRANCH   8  11
ATOM     11  C   LIG d   1       0.010  89.193 117.204  0.00  0.00     0.028 C 
ATOM     12  C   LIG d   1       0.339  90.693 117.258  0.00  0.00     0.006 C 
ENDBRANCH   8  11
ENDBRANCH   7   8
ENDBRANCH   1   7
BRANCH   6  13
ATOM     13  N   LIG d   1       3.470  87.533 113.643  0.00  0.00    -0.311 N 
ATOM     14  C   LIG d   1       2.493  87.604 112.740  0.00  0.00     0.210 C 
ATOM     15  C   LIG d   1       2.091  86.264 112.116  0.00  0.00     0.109 C 
ATOM     16  O   LIG d   1       1.942  88.653 112.374  0.00  0.00    -0.276 OA
ATOM     17  H   LIG d   1       3.882  86.646 113.855  0.00  0.00     0.149 HD
ENDBRANCH   6  13
BRANCH   5  18
ATOM     18  N   LIG d   1       6.095  88.962 113.009  0.00  0.00     0.381 N 
ATOM     19  H   LIG d   1       6.693  89.763 112.993  0.00  0.00    -0.090 HD
ATOM     20  H   LIG d   1       5.341  89.118 112.364  0.00  0.00    -0.090 HD
ATOM     21  H   LIG d   1       6.608  88.150 112.742  0.00  0.00    -0.090 HD
ENDBRANCH   5  18
BRANCH   3  22
ATOM     22  C   LIG d   1       6.146  90.557 117.525  0.00  0.00     0.382 C 
ATOM     23  O   LIG d   1       7.400  90.565 117.480  0.00  0.00    -0.241 OA
ATOM     24  O   LIG d   1       5.565  91.024 118.523  0.00  0.00    -0.241 OA
ENDBRANCH   3  22
TORSDOF 7
ENDMDL
MODEL 3
REMARK VINA RESULT:      -4.7      2.242      5.020
REMARK  7 active torsions:
REMARK  status: ('A' for Active; 'I' for Inactive)
REMARK    1  A    between atoms: C_2  and  C_3 
REMARK    2  A    between atoms: C_3  and  O_6 
REMARK    3  A    between atoms: C_3  and  C_4 
REMARK    4  A    between atoms: C_7  and  O_6 
REMARK    5  A    between atoms: C_9  and  C_10 
REMARK    6  A    between atoms: N_15  and  C_14 
REMARK    7  A    between atoms: N_20  and  C_19 
REMARK       I    between atoms: C_22  and  N_20 
ROOT
ATOM      1  C   LIG d   1       3.448  88.893 115.867  0.00  0.00     0.161 C 
ATOM      2  C   LIG d   1       2.637  88.254 114.915  0.00  0.00     0.016 C 
ATOM      3  C   LIG d   1       3.032  88.037 113.575  0.00  0.00     0.038 C 
ATOM      4  C   LIG d   1       4.334  88.312 113.133  0.00  0.00     0.028 C 
ATOM      5  C   LIG d   1       5.022  89.419 113.924  0.00  0.00    -0.047 C 
ATOM      6  C   LIG d   1       4.915  89.099 115.432  0.00  0.00     0.091 C 
ENDROOT
BRANCH   1   7
ATOM      7  O   LIG d   1       3.393  88.176 117.117  0.00  0.00    -0.368 OA
BRANCH   7   8
ATOM      8  C   LIG d   1       2.714  86.896 117.088  0.00  0.00     0.119 C 
BRANCH   8   9
ATOM      9  C   LIG d   1       1.649  86.912 118.201  0.00  0.00     0.028 C 
ATOM     10  C   LIG d   1       0.300  87.470 117.716  0.00  0.00     0.006 C 
ENDBRANCH   8   9
BRANCH   8  11
ATOM     11  C   LIG d   1       3.666  85.753 117.453  0.00  0.00     0.028 C 
ATOM     12  C   LIG d   1       4.667  85.430 116.332  0.00  0.00     0.006 C 
ENDBRANCH   8  11
ENDBRANCH   7   8
ENDBRANCH   1   7
BRANCH   6  13
ATOM     13  N   LIG d   1       5.488  90.175 116.282  0.00  0.00    -0.311 N 
ATOM     14  C   LIG d   1       6.590  90.021 117.015  0.00  0.00     0.210 C 
ATOM     15  C   LIG d   1       6.998  91.250 117.834  0.00  0.00     0.109 C 
ATOM     16  O   LIG d   1       7.285  88.995 117.040  0.00  0.00    -0.276 OA
ATOM     17  H   LIG d   1       5.005  91.051 116.297  0.00  0.00     0.149 HD
ENDBRANCH   6  13
BRANCH   5  18
ATOM     18  N   LIG d   1       6.416  89.507 113.449  0.00  0.00     0.381 N 
ATOM     19  H   LIG d   1       6.482  89.134 112.523  0.00  0.00    -0.090 HD
ATOM     20  H   LIG d   1       7.000  88.956 114.053  0.00  0.00    -0.090 HD
ATOM     21  H   LIG d   1       6.720  90.455 113.456  0.00  0.00    -0.090 HD
ENDBRANCH   5  18
BRANCH   3  22
ATOM     22  C   LIG d   1       2.106  87.577 112.652  0.00  0.00     0.382 C 
ATOM     23  O   LIG d   1       0.967  87.212 113.033  0.00  0.00    -0.241 OA
ATOM     24  O   LIG d   1       2.409  87.479 111.448  0.00  0.00    -0.241 OA
ENDBRANCH   3  22
TORSDOF 7
ENDMDL
MODEL 4
REMARK VINA RESULT:      -4.7      2.195      4.067
REMARK  7 active torsions:
REMARK  status: ('A' for Active; 'I' for Inactive)
REMARK    1  A    between atoms: C_2  and  C_3 
REMARK    2  A    between atoms: C_3  and  O_6 
REMARK    3  A    between atoms: C_3  and  C_4 
REMARK    4  A    between atoms: C_7  and  O_6 
REMARK    5  A    between atoms: C_9  and  C_10 
REMARK    6  A    between atoms: N_15  and  C_14 
REMARK    7  A    between atoms: N_20  and  C_19 
REMARK       I    between atoms: C_22  and  N_20 
ROOT
ATOM      1  C   LIG d   1       2.190  86.256 114.985  0.00  0.00     0.161 C 
ATOM      2  C   LIG d   1       1.032  85.959 115.723  0.00  0.00     0.016 C 
ATOM      3  C   LIG d   1       0.418  86.873 116.609  0.00  0.00     0.038 C 
ATOM      4  C   LIG d   1       0.837  88.209 116.703  0.00  0.00     0.028 C 
ATOM      5  C   LIG d   1       2.308  88.408 116.357  0.00  0.00    -0.047 C 
ATOM      6  C   LIG d   1       2.597  87.744 114.991  0.00  0.00     0.091 C 
ENDROOT
BRANCH   1   7
ATOM      7  O   LIG d   1       2.043  85.782 113.632  0.00  0.00    -0.368 OA
BRANCH   7   8
ATOM      8  C   LIG d   1       1.273  86.627 112.742  0.00  0.00     0.119 C 
BRANCH   8   9
ATOM      9  C   LIG d   1       0.029  85.828 112.306  0.00  0.00     0.028 C 
ATOM     10  C   LIG d   1      -0.934  86.664 111.446  0.00  0.00     0.006 C 
ENDBRANCH   8   9
BRANCH   8  11
ATOM     11  C   LIG d   1       2.040  86.919 111.449  0.00  0.00     0.028 C 
ATOM     12  C   LIG d   1       3.440  86.285 111.430  0.00  0.00     0.006 C 
ENDBRANCH   8  11
ENDBRANCH   7   8
ENDBRANCH   1   7
BRANCH   6  13
ATOM     13  N   LIG d   1       4.033  87.820 114.617  0.00  0.00    -0.311 N 
ATOM     14  C   LIG d   1       4.542  88.786 113.855  0.00  0.00     0.210 C 
ATOM     15  C   LIG d   1       6.043  88.664 113.572  0.00  0.00     0.109 C 
ATOM     16  O   LIG d   1       3.900  89.750 113.412  0.00  0.00    -0.276 OA
ATOM     17  H   LIG d   1       4.633  87.094 114.959  0.00  0.00     0.149 HD
ENDBRANCH   6  13
BRANCH   5  18
ATOM     18  N   LIG d   1       2.575  89.859 116.363  0.00  0.00     0.381 N 
ATOM     19  H   LIG d   1       1.807  90.343 116.783  0.00  0.00    -0.090 HD
ATOM     20  H   LIG d   1       2.666  90.176 115.413  0.00  0.00    -0.090 HD
ATOM     21  H   LIG d   1       3.413  90.050 116.866  0.00  0.00    -0.090 HD
ENDBRANCH   5  18
BRANCH   3  22
ATOM     22  C   LIG d   1      -0.604  86.443 117.441  0.00  0.00     0.382 C 
ATOM     23  O   LIG d   1      -0.386  85.540 118.285  0.00  0.00    -0.241 OA
ATOM     24  O   LIG d   1      -1.751  86.914 117.330  0.00  0.00    -0.241 OA
ENDBRANCH   3  22
TORSDOF 7
ENDMDL
MODEL 5
REMARK VINA RESULT:      -4.7      2.330      5.307
REMARK  7 active torsions:
REMARK  status: ('A' for Active; 'I' for Inactive)
REMARK    1  A    between atoms: C_2  and  C_3 
REMARK    2  A    between atoms: C_3  and  O_6 
REMARK    3  A    between atoms: C_3  and  C_4 
REMARK    4  A    between atoms: C_7  and  O_6 
REMARK    5  A    between atoms: C_9  and  C_10 
REMARK    6  A    between atoms: N_15  and  C_14 
REMARK    7  A    between atoms: N_20  and  C_19 
REMARK       I    between atoms: C_22  and  N_20 
ROOT
ATOM      1  C   LIG d   1       3.473  89.051 115.598  0.00  0.00     0.161 C 
ATOM      2  C   LIG d   1       2.527  88.481 114.731  0.00  0.00     0.016 C 
ATOM      3  C   LIG d   1       2.858  87.927 113.473  0.00  0.00     0.038 C 
ATOM      4  C   LIG d   1       4.189  87.768 113.060  0.00  0.00     0.028 C 
ATOM      5  C   LIG d   1       5.141  88.785 113.680  0.00  0.00    -0.047 C 
ATOM      6  C   LIG d   1       4.944  88.787 115.213  0.00  0.00     0.091 C 
ENDROOT
BRANCH   1   7
ATOM      7  O   LIG d   1       3.223  88.616 116.949  0.00  0.00    -0.368 OA
BRANCH   7   8
ATOM      8  C   LIG d   1       2.767  89.636 117.873  0.00  0.00     0.119 C 
BRANCH   8   9
ATOM      9  C   LIG d   1       1.305  89.312 118.234  0.00  0.00     0.028 C 
ATOM     10  C   LIG d   1       0.300  90.050 117.333  0.00  0.00     0.006 C 
ENDBRANCH   8   9
BRANCH   8  11
ATOM     11  C   LIG d   1       2.725  91.014 117.205  0.00  0.00     0.028 C 
ATOM     12  C   LIG d   1       3.690  92.019 117.853  0.00  0.00     0.006 C 
ENDBRANCH   8  11
ENDBRANCH   7   8
ENDBRANCH   1   7
BRANCH   6  13
ATOM     13  N   LIG d   1       5.778  89.814 115.891  0.00  0.00    -0.311 N 
ATOM     14  C   LIG d   1       6.485  89.574 116.994  0.00  0.00     0.210 C 
ATOM     15  C   LIG d   1       7.259  90.777 117.540  0.00  0.00     0.109 C 
ATOM     16  O   LIG d   1       6.570  88.470 117.553  0.00  0.00    -0.276 OA
ATOM     17  H   LIG d   1       5.791  90.730 115.486  0.00  0.00     0.149 HD
ENDBRANCH   6  13
BRANCH   5  18
ATOM     18  N   LIG d   1       6.511  88.419 113.274  0.00  0.00     0.381 N 
ATOM     19  H   LIG d   1       7.100  88.362 114.080  0.00  0.00    -0.090 HD
ATOM     20  H   LIG d   1       6.873  89.135 112.669  0.00  0.00    -0.090 HD
ATOM     21  H   LIG d   1       6.503  87.544 112.797  0.00  0.00    -0.090 HD
ENDBRANCH   5  18
BRANCH   3  22
ATOM     22  C   LIG d   1       1.848  87.561 112.596  0.00  0.00     0.382 C 
ATOM     23  O   LIG d   1       1.289  88.431 111.885  0.00  0.00    -0.241 OA
ATOM     24  O   LIG d   1       1.458  86.379 112.539  0.00  0.00    -0.241 OA
ENDBRANCH   3  22
TORSDOF 7
ENDMDL
MODEL 6
REMARK VINA RESULT:      -4.4      2.278      3.335
REMARK  7 active torsions:
REMARK  status: ('A' for Active; 'I' for Inactive)
REMARK    1  A    between atoms: C_2  and  C_3 
REMARK    2  A    between atoms: C_3  and  O_6 
REMARK    3  A    between atoms: C_3  and  C_4 
REMARK    4  A    between atoms: C_7  and  O_6 
REMARK    5  A    between atoms: C_9  and  C_10 
REMARK    6  A    between atoms: N_15  and  C_14 
REMARK    7  A    between atoms: N_20  and  C_19 
REMARK       I    between atoms: C_22  and  N_20 
ROOT
ATOM      1  C   LIG d   1       2.072  88.152 115.660  0.00  0.00     0.161 C 
ATOM      2  C   LIG d   1       0.959  88.243 116.512  0.00  0.00     0.016 C 
ATOM      3  C   LIG d   1       0.798  89.266 117.475  0.00  0.00     0.038 C 
ATOM      4  C   LIG d   1       1.673  90.360 117.548  0.00  0.00     0.028 C 
ATOM      5  C   LIG d   1       3.080  90.045 117.049  0.00  0.00    -0.047 C 
ATOM      6  C   LIG d   1       2.982  89.398 115.649  0.00  0.00     0.091 C 
ENDROOT
BRANCH   1   7
ATOM      7  O   LIG d   1       1.638  87.836 114.322  0.00  0.00    -0.368 OA
BRANCH   7   8
ATOM      8  C   LIG d   1       2.252  86.675 113.710  0.00  0.00     0.119 C 
BRANCH   8   9
ATOM      9  C   LIG d   1       2.642  87.062 112.270  0.00  0.00     0.028 C 
ATOM     10  C   LIG d   1       3.667  86.093 111.659  0.00  0.00     0.006 C 
ENDBRANCH   8   9
BRANCH   8  11
ATOM     11  C   LIG d   1       1.249  85.527 113.564  0.00  0.00     0.028 C 
ATOM     12  C   LIG d   1      -0.211  85.994 113.668  0.00  0.00     0.006 C 
ENDBRANCH   8  11
ENDBRANCH   7   8
ENDBRANCH   1   7
BRANCH   6  13
ATOM     13  N   LIG d   1       4.308  88.981 115.123  0.00  0.00    -0.311 N 
ATOM     14  C   LIG d   1       4.803  89.406 113.962  0.00  0.00     0.210 C 
ATOM     15  C   LIG d   1       6.179  88.838 113.599  0.00  0.00     0.109 C 
ATOM     16  O   LIG d   1       4.248  90.224 113.213  0.00  0.00    -0.276 OA
ATOM     17  H   LIG d   1       4.840  88.343 115.682  0.00  0.00     0.149 HD
ENDBRANCH   6  13
BRANCH   5  18
ATOM     18  N   LIG d   1       3.846  91.305 117.052  0.00  0.00     0.381 N 
ATOM     19  H   LIG d   1       3.763  91.751 117.944  0.00  0.00    -0.090 HD
ATOM     20  H   LIG d   1       3.464  91.920 116.355  0.00  0.00    -0.090 HD
ATOM     21  H   LIG d   1       4.805  91.121 116.853  0.00  0.00    -0.090 HD
ENDBRANCH   5  18
BRANCH   3  22
ATOM     22  C   LIG d   1      -0.227  89.179 118.405  0.00  0.00     0.382 C 
ATOM     23  O   LIG d   1      -0.842  90.214 118.758  0.00  0.00    -0.241 OA
ATOM     24  O   LIG d   1      -0.514  88.086 118.929  0.00  0.00    -0.241 OA
ENDBRANCH   3  22
TORSDOF 7
ENDMDL
MODEL 7
REMARK VINA RESULT:      -4.3      2.820      4.289
REMARK  7 active torsions:
REMARK  status: ('A' for Active; 'I' for Inactive)
REMARK    1  A    between atoms: C_2  and  C_3 
REMARK    2  A    between atoms: C_3  and  O_6 
REMARK    3  A    between atoms: C_3  and  C_4 
REMARK    4  A    between atoms: C_7  and  O_6 
REMARK    5  A    between atoms: C_9  and  C_10 
REMARK    6  A    between atoms: N_15  and  C_14 
REMARK    7  A    between atoms: N_20  and  C_19 
REMARK       I    between atoms: C_22  and  N_20 
ROOT
ATOM      1  C   LIG d   1       1.530  88.132 116.276  0.00  0.00     0.161 C 
ATOM      2  C   LIG d   1       0.184  88.021 116.663  0.00  0.00     0.016 C 
ATOM      3  C   LIG d   1      -0.516  89.040 117.349  0.00  0.00     0.038 C 
ATOM      4  C   LIG d   1       0.044  90.308 117.563  0.00  0.00     0.028 C 
ATOM      5  C   LIG d   1       1.567  90.293 117.639  0.00  0.00    -0.047 C 
ATOM      6  C   LIG d   1       2.124  89.550 116.402  0.00  0.00     0.091 C 
ENDROOT
BRANCH   1   7
ATOM      7  O   LIG d   1       1.694  87.638 114.932  0.00  0.00    -0.368 OA
BRANCH   7   8
ATOM      8  C   LIG d   1       2.170  86.275 114.808  0.00  0.00     0.119 C 
BRANCH   8   9
ATOM      9  C   LIG d   1       3.633  86.337 114.327  0.00  0.00     0.028 C 
ATOM     10  C   LIG d   1       3.746  86.721 112.842  0.00  0.00     0.006 C 
ENDBRANCH   8   9
BRANCH   8  11
ATOM     11  C   LIG d   1       1.414  85.518 113.712  0.00  0.00     0.028 C 
ATOM     12  C   LIG d   1      -0.006  86.060 113.485  0.00  0.00     0.006 C 
ENDBRANCH   8  11
ENDBRANCH   7   8
ENDBRANCH   1   7
BRANCH   6  13
ATOM     13  N   LIG d   1       3.604  89.416 116.440  0.00  0.00    -0.311 N 
ATOM     14  C   LIG d   1       4.391  89.691 115.402  0.00  0.00     0.210 C 
ATOM     15  C   LIG d   1       5.886  89.466 115.647  0.00  0.00     0.109 C 
ATOM     16  O   LIG d   1       3.996  90.130 114.311  0.00  0.00    -0.276 OA
ATOM     17  H   LIG d   1       4.011  89.096 117.297  0.00  0.00     0.149 HD
ENDBRANCH   6  13
BRANCH   5  18
ATOM     18  N   LIG d   1       2.024  91.693 117.726  0.00  0.00     0.381 N 
ATOM     19  H   LIG d   1       1.303  92.305 117.398  0.00  0.00    -0.090 HD
ATOM     20  H   LIG d   1       2.829  91.810 117.136  0.00  0.00    -0.090 HD
ATOM     21  H   LIG d   1       2.257  91.918 118.668  0.00  0.00    -0.090 HD
ENDBRANCH   5  18
BRANCH   3  22
ATOM     22  C   LIG d   1      -1.777  88.782 117.864  0.00  0.00     0.382 C 
ATOM     23  O   LIG d   1      -2.216  89.466 118.819  0.00  0.00    -0.241 OA
ATOM     24  O   LIG d   1      -2.462  87.843 117.416  0.00  0.00    -0.241 OA
ENDBRANCH   3  22
TORSDOF 7
ENDMDL
MODEL 8
REMARK VINA RESULT:      -4.3      2.552      4.467
REMARK  7 active torsions:
REMARK  status: ('A' for Active; 'I' for Inactive)
REMARK    1  A    between atoms: C_2  and  C_3 
REMARK    2  A    between atoms: C_3  and  O_6 
REMARK    3  A    between atoms: C_3  and  C_4 
REMARK    4  A    between atoms: C_7  and  O_6 
REMARK    5  A    between atoms: C_9  and  C_10 
REMARK    6  A    between atoms: N_15  and  C_14 
REMARK    7  A    between atoms: N_20  and  C_19 
REMARK       I    between atoms: C_22  and  N_20 
ROOT
ATOM      1  C   LIG d   1       2.049  87.409 116.316  0.00  0.00     0.161 C 
ATOM      2  C   LIG d   1       0.728  87.033 116.612  0.00  0.00     0.016 C 
ATOM      3  C   LIG d   1      -0.252  87.937 117.082  0.00  0.00     0.038 C 
ATOM      4  C   LIG d   1      -0.016  89.318 117.145  0.00  0.00     0.028 C 
ATOM      5  C   LIG d   1       1.454  89.674 117.338  0.00  0.00    -0.047 C 
ATOM      6  C   LIG d   1       2.294  88.932 116.273  0.00  0.00     0.091 C 
ENDROOT
BRANCH   1   7
ATOM      7  O   LIG d   1       2.465  86.799 115.078  0.00  0.00    -0.368 OA
BRANCH   7   8
ATOM      8  C   LIG d   1       1.686  87.141 113.906  0.00  0.00     0.119 C 
BRANCH   8   9
ATOM      9  C   LIG d   1       1.018  85.848 113.400  0.00  0.00     0.028 C 
ATOM     10  C   LIG d   1      -0.511  85.976 113.303  0.00  0.00     0.006 C 
ENDBRANCH   8   9
BRANCH   8  11
ATOM     11  C   LIG d   1       2.584  87.610 112.757  0.00  0.00     0.028 C 
ATOM     12  C   LIG d   1       4.025  87.090 112.877  0.00  0.00     0.006 C 
ENDBRANCH   8  11
ENDBRANCH   7   8
ENDBRANCH   1   7
BRANCH   6  13
ATOM     13  N   LIG d   1       3.753  89.158 116.442  0.00  0.00    -0.311 N 
ATOM     14  C   LIG d   1       4.514  89.750 115.524  0.00  0.00     0.210 C 
ATOM     15  C   LIG d   1       5.997  89.865 115.891  0.00  0.00     0.109 C 
ATOM     16  O   LIG d   1       4.097  90.219 114.455  0.00  0.00    -0.276 OA
ATOM     17  H   LIG d   1       4.168  88.836 117.295  0.00  0.00     0.149 HD
ENDBRANCH   6  13
BRANCH   5  18
ATOM     18  N   LIG d   1       1.573  91.142 117.247  0.00  0.00     0.381 N 
ATOM     19  H   LIG d   1       0.742  91.525 116.843  0.00  0.00    -0.090 HD
ATOM     20  H   LIG d   1       2.349  91.369 116.650  0.00  0.00    -0.090 HD
ATOM     21  H   LIG d   1       1.718  91.528 118.154  0.00  0.00    -0.090 HD
ENDBRANCH   5  18
BRANCH   3  22
ATOM     22  C   LIG d   1      -1.471  87.455 117.533  0.00  0.00     0.382 C 
ATOM     23  O   LIG d   1      -1.535  86.331 118.087  0.00  0.00    -0.241 OA
ATOM     24  O   LIG d   1      -2.515  88.111 117.354  0.00  0.00    -0.241 OA
ENDBRANCH   3  22
TORSDOF 7
ENDMDL
MODEL 9
REMARK VINA RESULT:      -4.3      2.100      5.070
REMARK  7 active torsions:
REMARK  status: ('A' for Active; 'I' for Inactive)
REMARK    1  A    between atoms: C_2  and  C_3 
REMARK    2  A    between atoms: C_3  and  O_6 
REMARK    3  A    between atoms: C_3  and  C_4 
REMARK    4  A    between atoms: C_7  and  O_6 
REMARK    5  A    between atoms: C_9  and  C_10 
REMARK    6  A    between atoms: N_15  and  C_14 
REMARK    7  A    between atoms: N_20  and  C_19 
REMARK       I    between atoms: C_22  and  N_20 
ROOT
ATOM      1  C   LIG d   1       2.226  87.002 114.863  0.00  0.00     0.161 C 
ATOM      2  C   LIG d   1       0.901  86.621 114.594  0.00  0.00     0.016 C 
ATOM      3  C   LIG d   1       0.492  86.033 113.374  0.00  0.00     0.038 C 
ATOM      4  C   LIG d   1       1.416  85.644 112.393  0.00  0.00     0.028 C 
ATOM      5  C   LIG d   1       2.700  86.467 112.410  0.00  0.00    -0.047 C 
ATOM      6  C   LIG d   1       3.266  86.484 113.848  0.00  0.00     0.091 C 
ENDROOT
BRANCH   1   7
ATOM      7  O   LIG d   1       2.587  86.601 116.199  0.00  0.00    -0.368 OA
BRANCH   7   8
ATOM      8  C   LIG d   1       2.611  87.652 117.196  0.00  0.00     0.119 C 
BRANCH   8   9
ATOM      9  C   LIG d   1       2.161  88.954 116.505  0.00  0.00     0.028 C 
ATOM     10  C   LIG d   1       3.131  90.120 116.762  0.00  0.00     0.006 C 
ENDBRANCH   8   9
BRANCH   8  11
ATOM     11  C   LIG d   1       4.037  87.924 117.684  0.00  0.00     0.028 C 
ATOM     12  C   LIG d   1       4.994  86.753 117.412  0.00  0.00     0.006 C 
ENDBRANCH   8  11
ENDBRANCH   7   8
ENDBRANCH   1   7
BRANCH   6  13
ATOM     13  N   LIG d   1       4.477  87.337 113.970  0.00  0.00    -0.311 N 
ATOM     14  C   LIG d   1       4.498  88.630 113.652  0.00  0.00     0.210 C 
ATOM     15  C   LIG d   1       5.854  89.319 113.834  0.00  0.00     0.109 C 
ATOM     16  O   LIG d   1       3.515  89.280 113.267  0.00  0.00    -0.276 OA
ATOM     17  H   LIG d   1       5.312  86.898 114.305  0.00  0.00     0.149 HD
ENDBRANCH   6  13
BRANCH   5  18
ATOM     18  N   LIG d   1       3.626  85.868 111.430  0.00  0.00     0.381 N 
ATOM     19  H   LIG d   1       3.436  86.231 110.518  0.00  0.00    -0.090 HD
ATOM     20  H   LIG d   1       3.480  84.874 111.411  0.00  0.00    -0.090 HD
ATOM     21  H   LIG d   1       4.568  86.067 111.686  0.00  0.00    -0.090 HD
ENDBRANCH   5  18
BRANCH   3  22
ATOM     22  C   LIG d   1      -0.859  85.864 113.111  0.00  0.00     0.382 C 
ATOM     23  O   LIG d   1      -1.309  86.105 111.965  0.00  0.00    -0.241 OA
ATOM     24  O   LIG d   1      -1.640  85.518 114.017  0.00  0.00    -0.241 OA
ENDBRANCH   3  22
TORSDOF 7
ENDMDL
