MODEL 1
REMARK VINA RESULT:      -4.6      0.000      0.000
REMARK  7 active torsions:
REMARK  status: ('A' for Active; 'I' for Inactive)
REMARK    1  A    between atoms: C_2  and  C_3 
REMARK    2  A    between atoms: C_3  and  O_6 
REMARK    3  A    between atoms: C_3  and  C_4 
REMARK    4  A    between atoms: C_7  and  O_6 
REMARK    5  A    between atoms: C_9  and  C_10 
REMARK    6  A    between atoms: N_15  and  C_14 
REMARK    7  A    between atoms: N_20  and  C_19 
REMARK       I    between atoms: C_22  and  N_20 
ROOT
ATOM      1  C   LIG d   1       3.465  87.978 115.261  0.00  0.00     0.161 C 
ATOM      2  C   LIG d   1       2.759  87.207 114.323  0.00  0.00     0.016 C 
ATOM      3  C   LIG d   1       3.144  87.087 112.968  0.00  0.00     0.038 C 
ATOM      4  C   LIG d   1       4.354  87.613 112.491  0.00  0.00     0.028 C 
ATOM      5  C   LIG d   1       4.842  88.822 113.281  0.00  0.00    -0.047 C 
ATOM      6  C   LIG d   1       4.848  88.469 114.786  0.00  0.00     0.091 C 
ENDROOT
BRANCH   1   7
ATOM      7  O   LIG d   1       3.589  87.249 116.498  0.00  0.00    -0.368 OA
BRANCH   7   8
ATOM      8  C   LIG d   1       2.888  87.804 117.639  0.00  0.00     0.119 C 
BRANCH   8   9
ATOM      9  C   LIG d   1       1.911  86.727 118.150  0.00  0.00     0.028 C 
ATOM     10  C   LIG d   1       0.446  87.189 118.091  0.00  0.00     0.006 C 
ENDBRANCH   8   9
BRANCH   8  11
ATOM     11  C   LIG d   1       2.009  88.989 117.229  0.00  0.00     0.028 C 
ATOM     12  C   LIG d   1       2.474  90.317 117.845  0.00  0.00     0.006 C 
ENDBRANCH   8  11
ENDBRANCH   7   8
ENDBRANCH   1   7
BRANCH   6  13
ATOM     13  N   LIG d   1       5.233  89.624 115.638  0.00  0.00    -0.311 N 
ATOM     14  C   LIG d   1       6.385  89.694 116.302  0.00  0.00     0.210 C 
ATOM     15  C   LIG d   1       6.574  90.964 117.138  0.00  0.00     0.109 C 
ATOM     16  O   LIG d   1       7.282  88.839 116.253  0.00  0.00    -0.276 OA
ATOM     17  H   LIG d   1       4.576  90.377 115.709  0.00  0.00     0.149 HD
ENDBRANCH   6  13
BRANCH   5  18
ATOM     18  N   LIG d   1       6.176  89.182 112.766  0.00  0.00     0.381 N 
ATOM     19  H   LIG d   1       6.709  89.626 113.487  0.00  0.00    -0.090 HD
ATOM     20  H   LIG d   1       6.067  89.833 112.008  0.00  0.00    -0.090 HD
ATOM     21  H   LIG d   1       6.650  88.366 112.447  0.00  0.00    -0.090 HD
ENDBRANCH   5  18
BRANCH   3  22
ATOM     22  C   LIG d   1       2.293  86.468 112.064  0.00  0.00     0.382 C 
ATOM     23  O   LIG d   1       2.680  85.457 111.430  0.00  0.00    -0.241 OA
ATOM     24  O   LIG d   1       1.159  86.935 111.842  0.00  0.00    -0.241 OA
ENDBRANCH   3  22
TORSDOF 7
ENDMDL
MODEL 2
REMARK VINA RESULT:      -4.4      2.805      5.265
REMARK  7 active torsions:
REMARK  status: ('A' for Active; 'I' for Inactive)
REMARK    1  A    between atoms: C_2  and  C_3 
REMARK    2  A    between atoms: C_3  and  O_6 
REMARK    3  A    between atoms: C_3  and  C_4 
REMARK    4  A    between atoms: C_7  and  O_6 
REMARK    5  A    between atoms: C_9  and  C_10 
REMARK    6  A    between atoms: N_15  and  C_14 
REMARK    7  A    between atoms: N_20  and  C_19 
REMARK       I    between atoms: C_22  and  N_20 
ROOT
ATOM      1  C   LIG d   1       1.739  88.164 116.571  0.00  0.00     0.161 C 
ATOM      2  C   LIG d   1       0.396  88.113 116.979  0.00  0.00     0.016 C 
ATOM      3  C   LIG d   1      -0.261  89.185 117.626  0.00  0.00     0.038 C 
ATOM      4  C   LIG d   1       0.341  90.443 117.775  0.00  0.00     0.028 C 
ATOM      5  C   LIG d   1       1.863  90.383 117.832  0.00  0.00    -0.047 C 
ATOM      6  C   LIG d   1       2.379  89.567 116.624  0.00  0.00     0.091 C 
ENDROOT
BRANCH   1   7
ATOM      7  O   LIG d   1       1.870  87.604 115.249  0.00  0.00    -0.368 OA
BRANCH   7   8
ATOM      8  C   LIG d   1       2.277  86.215 115.182  0.00  0.00     0.119 C 
BRANCH   8   9
ATOM      9  C   LIG d   1       3.707  86.179 114.610  0.00  0.00     0.028 C 
ATOM     10  C   LIG d   1       4.748  85.745 115.656  0.00  0.00     0.006 C 
ENDBRANCH   8   9
BRANCH   8  11
ATOM     11  C   LIG d   1       1.421  85.431 114.184  0.00  0.00     0.028 C 
ATOM     12  C   LIG d   1       1.773  85.745 112.721  0.00  0.00     0.006 C 
ENDBRANCH   8  11
ENDBRANCH   7   8
ENDBRANCH   1   7
BRANCH   6  13
ATOM     13  N   LIG d   1       3.854  89.388 116.649  0.00  0.00    -0.311 N 
ATOM     14  C   LIG d   1       4.635  89.584 115.588  0.00  0.00     0.210 C 
ATOM     15  C   LIG d   1       6.126  89.324 115.825  0.00  0.00     0.109 C 
ATOM     16  O   LIG d   1       4.237  89.978 114.481  0.00  0.00    -0.276 OA
ATOM     17  H   LIG d   1       4.264  89.099 117.516  0.00  0.00     0.149 HD
ENDBRANCH   6  13
BRANCH   5  18
ATOM     18  N   LIG d   1       2.364  91.770 117.849  0.00  0.00     0.381 N 
ATOM     19  H   LIG d   1       3.330  91.779 118.110  0.00  0.00    -0.090 HD
ATOM     20  H   LIG d   1       1.847  92.294 118.533  0.00  0.00    -0.090 HD
ATOM     21  H   LIG d   1       2.252  92.184 116.949  0.00  0.00    -0.090 HD
ENDBRANCH   5  18
BRANCH   3  22
ATOM     22  C   LIG d   1      -1.522  88.990 118.169  0.00  0.00     0.382 C 
ATOM     23  O   LIG d   1      -2.394  89.886 118.067  0.00  0.00    -0.241 OA
ATOM     24  O   LIG d   1      -1.785  87.947 118.798  0.00  0.00    -0.241 OA
ENDBRANCH   3  22
TORSDOF 7
ENDMDL
MODEL 3
REMARK VINA RESULT:      -4.4      1.961      4.862
REMARK  7 active torsions:
REMARK  status: ('A' for Active; 'I' for Inactive)
REMARK    1  A    between atoms: C_2  and  C_3 
REMARK    2  A    between atoms: C_3  and  O_6 
REMARK    3  A    between atoms: C_3  and  C_4 
REMARK    4  A    between atoms: C_7  and  O_6 
REMARK    5  A    between atoms: C_9  and  C_10 
REMARK    6  A    between atoms: N_15  and  C_14 
REMARK    7  A    between atoms: N_20  and  C_19 
REMARK       I    between atoms: C_22  and  N_20 
ROOT
ATOM      1  C   LIG d   1       3.055  88.464 116.070  0.00  0.00     0.161 C 
ATOM      2  C   LIG d   1       3.630  89.242 117.089  0.00  0.00     0.016 C 
ATOM      3  C   LIG d   1       4.868  89.912 116.951  0.00  0.00     0.038 C 
ATOM      4  C   LIG d   1       5.545  89.973 115.724  0.00  0.00     0.028 C 
ATOM      5  C   LIG d   1       5.256  88.785 114.813  0.00  0.00    -0.047 C 
ATOM      6  C   LIG d   1       3.725  88.609 114.688  0.00  0.00     0.091 C 
ENDROOT
BRANCH   1   7
ATOM      7  O   LIG d   1       1.645  88.749 115.976  0.00  0.00    -0.368 OA
BRANCH   7   8
ATOM      8  C   LIG d   1       0.946  88.931 117.231  0.00  0.00     0.119 C 
BRANCH   8   9
ATOM      9  C   LIG d   1       0.011  87.720 117.421  0.00  0.00     0.028 C 
ATOM     10  C   LIG d   1       0.606  86.661 118.363  0.00  0.00     0.006 C 
ENDBRANCH   8   9
BRANCH   8  11
ATOM     11  C   LIG d   1       0.023  90.152 117.183  0.00  0.00     0.028 C 
ATOM     12  C   LIG d   1      -0.132  90.836 118.551  0.00  0.00     0.006 C 
ENDBRANCH   8  11
ENDBRANCH   7   8
ENDBRANCH   1   7
BRANCH   6  13
ATOM     13  N   LIG d   1       3.355  87.418 113.881  0.00  0.00    -0.311 N 
ATOM     14  C   LIG d   1       3.083  87.470 112.578  0.00  0.00     0.210 C 
ATOM     15  C   LIG d   1       2.704  86.129 111.943  0.00  0.00     0.109 C 
ATOM     16  O   LIG d   1       3.151  88.494 111.882  0.00  0.00    -0.276 OA
ATOM     17  H   LIG d   1       3.306  86.540 114.360  0.00  0.00     0.149 HD
ENDBRANCH   6  13
BRANCH   5  18
ATOM     18  N   LIG d   1       5.915  89.044 113.519  0.00  0.00     0.381 N 
ATOM     19  H   LIG d   1       6.883  89.249 113.668  0.00  0.00    -0.090 HD
ATOM     20  H   LIG d   1       5.486  89.845 113.090  0.00  0.00    -0.090 HD
ATOM     21  H   LIG d   1       5.824  88.250 112.924  0.00  0.00    -0.090 HD
ENDBRANCH   5  18
BRANCH   3  22
ATOM     22  C   LIG d   1       5.459  90.497 118.060  0.00  0.00     0.382 C 
ATOM     23  O   LIG d   1       5.265  91.712 118.306  0.00  0.00    -0.241 OA
ATOM     24  O   LIG d   1       6.220  89.837 118.793  0.00  0.00    -0.241 OA
ENDBRANCH   3  22
TORSDOF 7
ENDMDL
MODEL 4
REMARK VINA RESULT:      -4.3      1.634      4.749
REMARK  7 active torsions:
REMARK  status: ('A' for Active; 'I' for Inactive)
REMARK    1  A    between atoms: C_2  and  C_3 
REMARK    2  A    between atoms: C_3  and  O_6 
REMARK    3  A    between atoms: C_3  and  C_4 
REMARK    4  A    between atoms: C_7  and  O_6 
REMARK    5  A    between atoms: C_9  and  C_10 
REMARK    6  A    between atoms: N_15  and  C_14 
REMARK    7  A    between atoms: N_20  and  C_19 
REMARK       I    between atoms: C_22  and  N_20 
ROOT
ATOM      1  C   LIG d   1       4.931  86.525 115.567  0.00  0.00     0.161 C 
ATOM      2  C   LIG d   1       5.843  86.981 116.533  0.00  0.00     0.016 C 
ATOM      3  C   LIG d   1       6.575  88.184 116.406  0.00  0.00     0.038 C 
ATOM      4  C   LIG d   1       6.330  89.095 115.368  0.00  0.00     0.028 C 
ATOM      5  C   LIG d   1       5.782  88.440 114.104  0.00  0.00    -0.047 C 
ATOM      6  C   LIG d   1       4.569  87.560 114.481  0.00  0.00     0.091 C 
ENDROOT
BRANCH   1   7
ATOM      7  O   LIG d   1       3.739  86.037 116.212  0.00  0.00    -0.368 OA
BRANCH   7   8
ATOM      8  C   LIG d   1       3.216  86.855 117.288  0.00  0.00     0.119 C 
BRANCH   8   9
ATOM      9  C   LIG d   1       2.766  85.905 118.415  0.00  0.00     0.028 C 
ATOM     10  C   LIG d   1       1.295  85.481 118.272  0.00  0.00     0.006 C 
ENDBRANCH   8   9
BRANCH   8  11
ATOM     11  C   LIG d   1       1.950  87.601 116.856  0.00  0.00     0.028 C 
ATOM     12  C   LIG d   1       2.189  89.103 116.635  0.00  0.00     0.006 C 
ENDBRANCH   8  11
ENDBRANCH   7   8
ENDBRANCH   1   7
BRANCH   6  13
ATOM     13  N   LIG d   1       4.025  86.816 113.315  0.00  0.00    -0.311 N 
ATOM     14  C   LIG d   1       3.010  87.256 112.573  0.00  0.00     0.210 C 
ATOM     15  C   LIG d   1       2.592  86.325 111.430  0.00  0.00     0.109 C 
ATOM     16  O   LIG d   1       2.436  88.344 112.733  0.00  0.00    -0.276 OA
ATOM     17  H   LIG d   1       4.451  85.937 113.094  0.00  0.00     0.149 HD
ENDBRANCH   6  13
BRANCH   5  18
ATOM     18  N   LIG d   1       5.443  89.517 113.155  0.00  0.00     0.381 N 
ATOM     19  H   LIG d   1       5.651  89.223 112.221  0.00  0.00    -0.090 HD
ATOM     20  H   LIG d   1       6.005  90.323 113.364  0.00  0.00    -0.090 HD
ATOM     21  H   LIG d   1       4.477  89.747 113.232  0.00  0.00    -0.090 HD
ENDBRANCH   5  18
BRANCH   3  22
ATOM     22  C   LIG d   1       7.593  88.467 117.304  0.00  0.00     0.382 C 
ATOM     23  O   LIG d   1       7.628  87.886 118.416  0.00  0.00    -0.241 OA
ATOM     24  O   LIG d   1       8.451  89.329 117.035  0.00  0.00    -0.241 OA
ENDBRANCH   3  22
TORSDOF 7
ENDMDL
MODEL 5
REMARK VINA RESULT:      -3.9      2.338      3.060
REMARK  7 active torsions:
REMARK  status: ('A' for Active; 'I' for Inactive)
REMARK    1  A    between atoms: C_2  and  C_3 
REMARK    2  A    between atoms: C_3  and  O_6 
REMARK    3  A    between atoms: C_3  and  C_4 
REMARK    4  A    between atoms: C_7  and  O_6 
REMARK    5  A    between atoms: C_9  and  C_10 
REMARK    6  A    between atoms: N_15  and  C_14 
REMARK    7  A    between atoms: N_20  and  C_19 
REMARK       I    between atoms: C_22  and  N_20 
ROOT
ATOM      1  C   LIG d   1       5.475  89.818 115.775  0.00  0.00     0.161 C 
ATOM      2  C   LIG d   1       4.906  89.560 114.517  0.00  0.00     0.016 C 
ATOM      3  C   LIG d   1       4.706  88.257 114.007  0.00  0.00     0.038 C 
ATOM      4  C   LIG d   1       4.923  87.113 114.789  0.00  0.00     0.028 C 
ATOM      5  C   LIG d   1       5.970  87.314 115.879  0.00  0.00    -0.047 C 
ATOM      6  C   LIG d   1       5.615  88.582 116.688  0.00  0.00     0.091 C 
ENDROOT
BRANCH   1   7
ATOM      7  O   LIG d   1       4.729  90.854 116.445  0.00  0.00    -0.368 OA
BRANCH   7   8
ATOM      8  C   LIG d   1       3.928  90.432 117.576  0.00  0.00     0.119 C 
BRANCH   8   9
ATOM      9  C   LIG d   1       2.450  90.484 117.142  0.00  0.00     0.028 C 
ATOM     10  C   LIG d   1       1.908  89.101 116.741  0.00  0.00     0.006 C 
ENDBRANCH   8   9
BRANCH   8  11
ATOM     11  C   LIG d   1       4.043  91.420 118.740  0.00  0.00     0.028 C 
ATOM     12  C   LIG d   1       5.274  92.334 118.627  0.00  0.00     0.006 C 
ENDBRANCH   8  11
ENDBRANCH   7   8
ENDBRANCH   1   7
BRANCH   6  13
ATOM     13  N   LIG d   1       6.636  88.899 117.721  0.00  0.00    -0.311 N 
ATOM     14  C   LIG d   1       7.944  88.742 117.531  0.00  0.00     0.210 C 
ATOM     15  C   LIG d   1       8.821  89.110 118.733  0.00  0.00     0.109 C 
ATOM     16  O   LIG d   1       8.465  88.363 116.471  0.00  0.00    -0.276 OA
ATOM     17  H   LIG d   1       6.302  89.242 118.601  0.00  0.00     0.149 HD
ENDBRANCH   6  13
BRANCH   5  18
ATOM     18  N   LIG d   1       5.996  86.091 116.703  0.00  0.00     0.381 N 
ATOM     19  H   LIG d   1       6.680  86.185 117.427  0.00  0.00    -0.090 HD
ATOM     20  H   LIG d   1       6.257  85.313 116.123  0.00  0.00    -0.090 HD
ATOM     21  H   LIG d   1       5.098  85.930 117.103  0.00  0.00    -0.090 HD
ENDBRANCH   5  18
BRANCH   3  22
ATOM     22  C   LIG d   1       4.320  88.088 112.685  0.00  0.00     0.382 C 
ATOM     23  O   LIG d   1       5.102  87.543 111.869  0.00  0.00    -0.241 OA
ATOM     24  O   LIG d   1       3.219  88.512 112.289  0.00  0.00    -0.241 OA
ENDBRANCH   3  22
TORSDOF 7
ENDMDL
MODEL 6
REMARK VINA RESULT:      -3.9      2.624      4.877
REMARK  7 active torsions:
REMARK  status: ('A' for Active; 'I' for Inactive)
REMARK    1  A    between atoms: C_2  and  C_3 
REMARK    2  A    between atoms: C_3  and  O_6 
REMARK    3  A    between atoms: C_3  and  C_4 
REMARK    4  A    between atoms: C_7  and  O_6 
REMARK    5  A    between atoms: C_9  and  C_10 
REMARK    6  A    between atoms: N_15  and  C_14 
REMARK    7  A    between atoms: N_20  and  C_19 
REMARK       I    between atoms: C_22  and  N_20 
ROOT
ATOM      1  C   LIG d   1       4.836  87.913 116.670  0.00  0.00     0.161 C 
ATOM      2  C   LIG d   1       3.962  89.011 116.733  0.00  0.00     0.016 C 
ATOM      3  C   LIG d   1       4.371  90.310 117.112  0.00  0.00     0.038 C 
ATOM      4  C   LIG d   1       5.722  90.634 117.310  0.00  0.00     0.028 C 
ATOM      5  C   LIG d   1       6.572  89.447 117.749  0.00  0.00    -0.047 C 
ATOM      6  C   LIG d   1       6.333  88.271 116.774  0.00  0.00     0.091 C 
ENDROOT
BRANCH   1   7
ATOM      7  O   LIG d   1       4.584  87.157 115.469  0.00  0.00    -0.368 OA
BRANCH   7   8
ATOM      8  C   LIG d   1       3.557  87.678 114.591  0.00  0.00     0.119 C 
BRANCH   8   9
ATOM      9  C   LIG d   1       2.553  86.540 114.324  0.00  0.00     0.028 C 
ATOM     10  C   LIG d   1       1.654  86.254 115.539  0.00  0.00     0.006 C 
ENDBRANCH   8   9
BRANCH   8  11
ATOM     11  C   LIG d   1       4.130  88.043 113.218  0.00  0.00     0.028 C 
ATOM     12  C   LIG d   1       4.963  89.335 113.244  0.00  0.00     0.006 C 
ENDBRANCH   8  11
ENDBRANCH   7   8
ENDBRANCH   1   7
BRANCH   6  13
ATOM     13  N   LIG d   1       7.063  87.042 117.179  0.00  0.00    -0.311 N 
ATOM     14  C   LIG d   1       8.302  86.759 116.781  0.00  0.00     0.210 C 
ATOM     15  C   LIG d   1       8.861  85.430 117.299  0.00  0.00     0.109 C 
ATOM     16  O   LIG d   1       9.003  87.499 116.074  0.00  0.00    -0.276 OA
ATOM     17  H   LIG d   1       6.580  86.401 117.778  0.00  0.00     0.149 HD
ENDBRANCH   6  13
BRANCH   5  18
ATOM     18  N   LIG d   1       7.977  89.893 117.784  0.00  0.00     0.381 N 
ATOM     19  H   LIG d   1       8.095  90.586 118.496  0.00  0.00    -0.090 HD
ATOM     20  H   LIG d   1       8.208  90.309 116.899  0.00  0.00    -0.090 HD
ATOM     21  H   LIG d   1       8.577  89.118 117.962  0.00  0.00    -0.090 HD
ENDBRANCH   5  18
BRANCH   3  22
ATOM     22  C   LIG d   1       3.418  91.292 117.337  0.00  0.00     0.382 C 
ATOM     23  O   LIG d   1       3.767  92.494 117.428  0.00  0.00    -0.241 OA
ATOM     24  O   LIG d   1       2.221  90.987 117.493  0.00  0.00    -0.241 OA
ENDBRANCH   3  22
TORSDOF 7
ENDMDL
MODEL 7
REMARK VINA RESULT:      -3.8      1.845      2.148
REMARK  7 active torsions:
REMARK  status: ('A' for Active; 'I' for Inactive)
REMARK    1  A    between atoms: C_2  and  C_3 
REMARK    2  A    between atoms: C_3  and  O_6 
REMARK    3  A    between atoms: C_3  and  C_4 
REMARK    4  A    between atoms: C_7  and  O_6 
REMARK    5  A    between atoms: C_9  and  C_10 
REMARK    6  A    between atoms: N_15  and  C_14 
REMARK    7  A    between atoms: N_20  and  C_19 
REMARK       I    between atoms: C_22  and  N_20 
ROOT
ATOM      1  C   LIG d   1       3.102  88.634 116.338  0.00  0.00     0.161 C 
ATOM      2  C   LIG d   1       2.707  88.174 115.070  0.00  0.00     0.016 C 
ATOM      3  C   LIG d   1       3.613  87.934 114.012  0.00  0.00     0.038 C 
ATOM      4  C   LIG d   1       5.003  87.993 114.198  0.00  0.00     0.028 C 
ATOM      5  C   LIG d   1       5.424  88.940 115.316  0.00  0.00    -0.047 C 
ATOM      6  C   LIG d   1       4.623  88.598 116.593  0.00  0.00     0.091 C 
ENDROOT
BRANCH   1   7
ATOM      7  O   LIG d   1       2.404  87.900 117.363  0.00  0.00    -0.368 OA
BRANCH   7   8
ATOM      8  C   LIG d   1       1.580  88.684 118.260  0.00  0.00     0.119 C 
BRANCH   8   9
ATOM      9  C   LIG d   1       0.395  87.799 118.693  0.00  0.00     0.028 C 
ATOM     10  C   LIG d   1       0.618  86.315 118.357  0.00  0.00     0.006 C 
ENDBRANCH   8   9
BRANCH   8  11
ATOM     11  C   LIG d   1       0.950  89.878 117.536  0.00  0.00     0.028 C 
ATOM     12  C   LIG d   1      -0.574  89.749 117.387  0.00  0.00     0.006 C 
ENDBRANCH   8  11
ENDBRANCH   7   8
ENDBRANCH   1   7
BRANCH   6  13
ATOM     13  N   LIG d   1       4.914  89.531 117.712  0.00  0.00    -0.311 N 
ATOM     14  C   LIG d   1       4.619  90.830 117.679  0.00  0.00     0.210 C 
ATOM     15  C   LIG d   1       5.022  91.617 118.930  0.00  0.00     0.109 C 
ATOM     16  O   LIG d   1       4.034  91.398 116.745  0.00  0.00    -0.276 OA
ATOM     17  H   LIG d   1       5.360  89.148 118.522  0.00  0.00     0.149 HD
ENDBRANCH   6  13
BRANCH   5  18
ATOM     18  N   LIG d   1       6.882  88.801 115.493  0.00  0.00     0.381 N 
ATOM     19  H   LIG d   1       7.086  88.553 116.440  0.00  0.00    -0.090 HD
ATOM     20  H   LIG d   1       7.320  89.684 115.297  0.00  0.00    -0.090 HD
ATOM     21  H   LIG d   1       7.235  88.102 114.876  0.00  0.00    -0.090 HD
ENDBRANCH   5  18
BRANCH   3  22
ATOM     22  C   LIG d   1       3.130  87.669 112.740  0.00  0.00     0.382 C 
ATOM     23  O   LIG d   1       3.810  87.983 111.733  0.00  0.00    -0.241 OA
ATOM     24  O   LIG d   1       2.003  87.161 112.585  0.00  0.00    -0.241 OA
ENDBRANCH   3  22
TORSDOF 7
ENDMDL
MODEL 8
REMARK VINA RESULT:      -3.8      1.636      4.691
REMARK  7 active torsions:
REMARK  status: ('A' for Active; 'I' for Inactive)
REMARK    1  A    between atoms: C_2  and  C_3 
REMARK    2  A    between atoms: C_3  and  O_6 
REMARK    3  A    between atoms: C_3  and  C_4 
REMARK    4  A    between atoms: C_7  and  O_6 
REMARK    5  A    between atoms: C_9  and  C_10 
REMARK    6  A    between atoms: N_15  and  C_14 
REMARK    7  A    between atoms: N_20  and  C_19 
REMARK       I    between atoms: C_22  and  N_20 
ROOT
ATOM      1  C   LIG d   1       3.989  87.413 115.683  0.00  0.00     0.161 C 
ATOM      2  C   LIG d   1       5.117  87.293 116.511  0.00  0.00     0.016 C 
ATOM      3  C   LIG d   1       6.376  87.857 116.198  0.00  0.00     0.038 C 
ATOM      4  C   LIG d   1       6.552  88.714 115.101  0.00  0.00     0.028 C 
ATOM      5  C   LIG d   1       5.569  88.453 113.965  0.00  0.00    -0.047 C 
ATOM      6  C   LIG d   1       4.133  88.437 114.537  0.00  0.00     0.091 C 
ENDROOT
BRANCH   1   7
ATOM      7  O   LIG d   1       2.827  87.715 116.481  0.00  0.00    -0.368 OA
BRANCH   7   8
ATOM      8  C   LIG d   1       2.483  89.117 116.601  0.00  0.00     0.119 C 
BRANCH   8   9
ATOM      9  C   LIG d   1       3.270  89.686 117.798  0.00  0.00     0.028 C 
ATOM     10  C   LIG d   1       4.155  90.880 117.404  0.00  0.00     0.006 C 
ENDBRANCH   8   9
BRANCH   8  11
ATOM     11  C   LIG d   1       1.006  89.299 116.963  0.00  0.00     0.028 C 
ATOM     12  C   LIG d   1       0.283  87.965 117.204  0.00  0.00     0.006 C 
ENDBRANCH   8  11
ENDBRANCH   7   8
ENDBRANCH   1   7
BRANCH   6  13
ATOM     13  N   LIG d   1       3.116  88.105 113.506  0.00  0.00    -0.311 N 
ATOM     14  C   LIG d   1       3.161  87.003 112.760  0.00  0.00     0.210 C 
ATOM     15  C   LIG d   1       2.024  86.863 111.743  0.00  0.00     0.109 C 
ATOM     16  O   LIG d   1       4.017  86.111 112.866  0.00  0.00    -0.276 OA
ATOM     17  H   LIG d   1       2.369  88.758 113.376  0.00  0.00     0.149 HD
ENDBRANCH   6  13
BRANCH   5  18
ATOM     18  N   LIG d   1       5.775  89.502 112.949  0.00  0.00     0.381 N 
ATOM     19  H   LIG d   1       6.750  89.588 112.743  0.00  0.00    -0.090 HD
ATOM     20  H   LIG d   1       5.452  90.379 113.317  0.00  0.00    -0.090 HD
ATOM     21  H   LIG d   1       5.272  89.276 112.119  0.00  0.00    -0.090 HD
ENDBRANCH   5  18
BRANCH   3  22
ATOM     22  C   LIG d   1       7.484  87.533 116.966  0.00  0.00     0.382 C 
ATOM     23  O   LIG d   1       7.371  87.412 118.210  0.00  0.00    -0.241 OA
ATOM     24  O   LIG d   1       8.604  87.405 116.436  0.00  0.00    -0.241 OA
ENDBRANCH   3  22
TORSDOF 7
ENDMDL
MODEL 9
REMARK VINA RESULT:      -3.7      9.476     11.836
REMARK  7 active torsions:
REMARK  status: ('A' for Active; 'I' for Inactive)
REMARK    1  A    between atoms: C_2  and  C_3 
REMARK    2  A    between atoms: C_3  and  O_6 
REMARK    3  A    between atoms: C_3  and  C_4 
REMARK    4  A    between atoms: C_7  and  O_6 
REMARK    5  A    between atoms: C_9  and  C_10 
REMARK    6  A    between atoms: N_15  and  C_14 
REMARK    7  A    between atoms: N_20  and  C_19 
REMARK       I    between atoms: C_22  and  N_20 
ROOT
ATOM      1  C   LIG d   1      -5.398  92.413 117.738  0.00  0.00     0.161 C 
ATOM      2  C   LIG d   1      -5.875  93.567 118.382  0.00  0.00     0.016 C 
ATOM      3  C   LIG d   1      -7.182  94.075 118.201  0.00  0.00     0.038 C 
ATOM      4  C   LIG d   1      -8.156  93.373 117.477  0.00  0.00     0.028 C 
ATOM      5  C   LIG d   1      -7.573  92.465 116.399  0.00  0.00    -0.047 C 
ATOM      6  C   LIG d   1      -6.481  91.572 117.032  0.00  0.00     0.091 C 
ENDROOT
BRANCH   1   7
ATOM      7  O   LIG d   1      -4.664  91.600 118.675  0.00  0.00    -0.368 OA
BRANCH   7   8
ATOM      8  C   LIG d   1      -3.430  91.020 118.185  0.00  0.00     0.119 C 
BRANCH   8   9
ATOM      9  C   LIG d   1      -3.414  89.538 118.608  0.00  0.00     0.028 C 
ATOM     10  C   LIG d   1      -1.987  88.981 118.740  0.00  0.00     0.006 C 
ENDBRANCH   8   9
BRANCH   8  11
ATOM     11  C   LIG d   1      -2.210  91.649 118.867  0.00  0.00     0.028 C 
ATOM     12  C   LIG d   1      -2.288  93.183 118.930  0.00  0.00     0.006 C 
ENDBRANCH   8  11
ENDBRANCH   7   8
ENDBRANCH   1   7
BRANCH   6  13
ATOM     13  N   LIG d   1      -5.801  90.713 116.028  0.00  0.00    -0.311 N 
ATOM     14  C   LIG d   1      -6.340  89.602 115.528  0.00  0.00     0.210 C 
ATOM     15  C   LIG d   1      -5.460  88.853 114.522  0.00  0.00     0.109 C 
ATOM     16  O   LIG d   1      -7.475  89.184 115.798  0.00  0.00    -0.276 OA
ATOM     17  H   LIG d   1      -4.888  90.995 115.730  0.00  0.00     0.149 HD
ENDBRANCH   6  13
BRANCH   5  18
ATOM     18  N   LIG d   1      -8.687  91.692 115.817  0.00  0.00     0.381 N 
ATOM     19  H   LIG d   1      -9.267  92.295 115.268  0.00  0.00    -0.090 HD
ATOM     20  H   LIG d   1      -9.243  91.312 116.562  0.00  0.00    -0.090 HD
ATOM     21  H   LIG d   1      -8.330  90.955 115.249  0.00  0.00    -0.090 HD
ENDBRANCH   5  18
BRANCH   3  22
ATOM     22  C   LIG d   1      -7.513  95.319 118.716  0.00  0.00     0.382 C 
ATOM     23  O   LIG d   1      -8.715  95.609 118.930  0.00  0.00    -0.241 OA
ATOM     24  O   LIG d   1      -6.629  96.171 118.928  0.00  0.00    -0.241 OA
ENDBRANCH   3  22
TORSDOF 7
ENDMDL
