MODEL 1
REMARK VINA RESULT:      -4.8      0.000      0.000
REMARK  7 active torsions:
REMARK  status: ('A' for Active; 'I' for Inactive)
REMARK    1  A    between atoms: C_2  and  C_3 
REMARK    2  A    between atoms: C_3  and  O_6 
REMARK    3  A    between atoms: C_3  and  C_4 
REMARK    4  A    between atoms: C_7  and  O_6 
REMARK    5  A    between atoms: C_9  and  C_10 
REMARK    6  A    between atoms: N_15  and  C_14 
REMARK    7  A    between atoms: N_20  and  C_19 
REMARK       I    between atoms: C_22  and  N_20 
ROOT
ATOM      1  C   LIG d   1       5.011  89.364 114.930  0.00  0.00     0.161 C 
ATOM      2  C   LIG d   1       4.767  90.534 115.669  0.00  0.00     0.016 C 
ATOM      3  C   LIG d   1       3.556  90.781 116.356  0.00  0.00     0.038 C 
ATOM      4  C   LIG d   1       2.558  89.803 116.475  0.00  0.00     0.028 C 
ATOM      5  C   LIG d   1       2.550  88.802 115.325  0.00  0.00    -0.047 C 
ATOM      6  C   LIG d   1       3.978  88.238 115.141  0.00  0.00     0.091 C 
ENDROOT
BRANCH   1   7
ATOM      7  O   LIG d   1       6.341  88.881 115.205  0.00  0.00    -0.368 OA
BRANCH   7   8
ATOM      8  C   LIG d   1       6.631  88.563 116.588  0.00  0.00     0.119 C 
BRANCH   8   9
ATOM      9  C   LIG d   1       7.795  89.467 117.037  0.00  0.00     0.028 C 
ATOM     10  C   LIG d   1       7.366  90.490 118.103  0.00  0.00     0.006 C 
ENDBRANCH   8   9
BRANCH   8  11
ATOM     11  C   LIG d   1       7.151  87.130 116.734  0.00  0.00     0.028 C 
ATOM     12  C   LIG d   1       8.620  87.072 117.183  0.00  0.00     0.006 C 
ENDBRANCH   8  11
ENDBRANCH   7   8
ENDBRANCH   1   7
BRANCH   6  13
ATOM     13  N   LIG d   1       4.077  87.314 113.981  0.00  0.00    -0.311 N 
ATOM     14  C   LIG d   1       3.634  87.617 112.762  0.00  0.00     0.210 C 
ATOM     15  C   LIG d   1       3.816  86.514 111.715  0.00  0.00     0.109 C 
ATOM     16  O   LIG d   1       3.136  88.707 112.441  0.00  0.00    -0.276 OA
ATOM     17  H   LIG d   1       4.495  86.419 114.145  0.00  0.00     0.149 HD
ENDBRANCH   6  13
BRANCH   5  18
ATOM     18  N   LIG d   1       1.555  87.762 115.646  0.00  0.00     0.381 N 
ATOM     19  H   LIG d   1       0.719  87.919 115.119  0.00  0.00    -0.090 HD
ATOM     20  H   LIG d   1       1.327  87.820 116.623  0.00  0.00    -0.090 HD
ATOM     21  H   LIG d   1       1.923  86.861 115.436  0.00  0.00    -0.090 HD
ENDBRANCH   5  18
BRANCH   3  22
ATOM     22  C   LIG d   1       3.318  92.035 116.899  0.00  0.00     0.382 C 
ATOM     23  O   LIG d   1       2.166  92.340 117.289  0.00  0.00    -0.241 OA
ATOM     24  O   LIG d   1       4.232  92.880 116.962  0.00  0.00    -0.241 OA
ENDBRANCH   3  22
TORSDOF 7
ENDMDL
MODEL 2
REMARK VINA RESULT:      -4.7      9.580     12.459
REMARK  7 active torsions:
REMARK  status: ('A' for Active; 'I' for Inactive)
REMARK    1  A    between atoms: C_2  and  C_3 
REMARK    2  A    between atoms: C_3  and  O_6 
REMARK    3  A    between atoms: C_3  and  C_4 
REMARK    4  A    between atoms: C_7  and  O_6 
REMARK    5  A    between atoms: C_9  and  C_10 
REMARK    6  A    between atoms: N_15  and  C_14 
REMARK    7  A    between atoms: N_20  and  C_19 
REMARK       I    between atoms: C_22  and  N_20 
ROOT
ATOM      1  C   LIG d   1      -5.933  92.604 118.231  0.00  0.00     0.161 C 
ATOM      2  C   LIG d   1      -7.194  93.219 118.298  0.00  0.00     0.016 C 
ATOM      3  C   LIG d   1      -7.374  94.612 118.458  0.00  0.00     0.038 C 
ATOM      4  C   LIG d   1      -6.296  95.509 118.410  0.00  0.00     0.028 C 
ATOM      5  C   LIG d   1      -4.973  94.890 118.851  0.00  0.00    -0.047 C 
ATOM      6  C   LIG d   1      -4.747  93.578 118.066  0.00  0.00     0.091 C 
ENDROOT
BRANCH   1   7
ATOM      7  O   LIG d   1      -5.923  91.620 117.178  0.00  0.00    -0.368 OA
BRANCH   7   8
ATOM      8  C   LIG d   1      -7.056  91.642 116.275  0.00  0.00     0.119 C 
BRANCH   8   9
ATOM      9  C   LIG d   1      -7.215  90.223 115.697  0.00  0.00     0.028 C 
ATOM     10  C   LIG d   1      -8.572  89.593 116.052  0.00  0.00     0.006 C 
ENDBRANCH   8   9
BRANCH   8  11
ATOM     11  C   LIG d   1      -6.789  92.545 115.067  0.00  0.00     0.028 C 
ATOM     12  C   LIG d   1      -6.896  91.797 113.729  0.00  0.00     0.006 C 
ENDBRANCH   8  11
ENDBRANCH   7   8
ENDBRANCH   1   7
BRANCH   6  13
ATOM     13  N   LIG d   1      -3.516  92.865 118.497  0.00  0.00    -0.311 N 
ATOM     14  C   LIG d   1      -2.295  93.191 118.078  0.00  0.00     0.210 C 
ATOM     15  C   LIG d   1      -1.166  92.314 118.629  0.00  0.00     0.109 C 
ATOM     16  O   LIG d   1      -2.036  94.143 117.326  0.00  0.00    -0.276 OA
ATOM     17  H   LIG d   1      -3.632  92.098 119.131  0.00  0.00     0.149 HD
ENDBRANCH   6  13
BRANCH   5  18
ATOM     18  N   LIG d   1      -3.914  95.891 118.622  0.00  0.00     0.381 N 
ATOM     19  H   LIG d   1      -4.306  96.811 118.652  0.00  0.00    -0.090 HD
ATOM     20  H   LIG d   1      -3.522  95.746 117.708  0.00  0.00    -0.090 HD
ATOM     21  H   LIG d   1      -3.204  95.801 119.315  0.00  0.00    -0.090 HD
ENDBRANCH   5  18
BRANCH   3  22
ATOM     22  C   LIG d   1      -8.640  95.118 118.708  0.00  0.00     0.382 C 
ATOM     23  O   LIG d   1      -8.809  96.356 118.827  0.00  0.00    -0.241 OA
ATOM     24  O   LIG d   1      -9.609  94.349 118.860  0.00  0.00    -0.241 OA
ENDBRANCH   3  22
TORSDOF 7
ENDMDL
MODEL 3
REMARK VINA RESULT:      -4.6      2.309      4.270
REMARK  7 active torsions:
REMARK  status: ('A' for Active; 'I' for Inactive)
REMARK    1  A    between atoms: C_2  and  C_3 
REMARK    2  A    between atoms: C_3  and  O_6 
REMARK    3  A    between atoms: C_3  and  C_4 
REMARK    4  A    between atoms: C_7  and  O_6 
REMARK    5  A    between atoms: C_9  and  C_10 
REMARK    6  A    between atoms: N_15  and  C_14 
REMARK    7  A    between atoms: N_20  and  C_19 
REMARK       I    between atoms: C_22  and  N_20 
ROOT
ATOM      1  C   LIG d   1       3.899  87.683 116.068  0.00  0.00     0.161 C 
ATOM      2  C   LIG d   1       4.294  88.476 117.158  0.00  0.00     0.016 C 
ATOM      3  C   LIG d   1       4.853  89.767 117.018  0.00  0.00     0.038 C 
ATOM      4  C   LIG d   1       4.915  90.418 115.777  0.00  0.00     0.028 C 
ATOM      5  C   LIG d   1       4.994  89.460 114.594  0.00  0.00    -0.047 C 
ATOM      6  C   LIG d   1       3.856  88.420 114.713  0.00  0.00     0.091 C 
ENDROOT
BRANCH   1   7
ATOM      7  O   LIG d   1       2.624  87.071 116.346  0.00  0.00    -0.368 OA
BRANCH   7   8
ATOM      8  C   LIG d   1       1.781  87.761 117.301  0.00  0.00     0.119 C 
BRANCH   8   9
ATOM      9  C   LIG d   1       1.032  86.689 118.116  0.00  0.00     0.028 C 
ATOM     10  C   LIG d   1      -0.239  87.240 118.784  0.00  0.00     0.006 C 
ENDBRANCH   8   9
BRANCH   8  11
ATOM     11  C   LIG d   1       0.689  88.571 116.597  0.00  0.00     0.028 C 
ATOM     12  C   LIG d   1       0.963  90.083 116.616  0.00  0.00     0.006 C 
ENDBRANCH   8  11
ENDBRANCH   7   8
ENDBRANCH   1   7
BRANCH   6  13
ATOM     13  N   LIG d   1       3.911  87.394 113.640  0.00  0.00    -0.311 N 
ATOM     14  C   LIG d   1       3.302  87.529 112.464  0.00  0.00     0.210 C 
ATOM     15  C   LIG d   1       3.470  86.344 111.508  0.00  0.00     0.109 C 
ATOM     16  O   LIG d   1       2.665  88.532 112.109  0.00  0.00    -0.276 OA
ATOM     17  H   LIG d   1       4.433  86.561 113.832  0.00  0.00     0.149 HD
ENDBRANCH   6  13
BRANCH   5  18
ATOM     18  N   LIG d   1       4.913  90.266 113.361  0.00  0.00     0.381 N 
ATOM     19  H   LIG d   1       3.959  90.494 113.167  0.00  0.00    -0.090 HD
ATOM     20  H   LIG d   1       5.270  89.724 112.594  0.00  0.00    -0.090 HD
ATOM     21  H   LIG d   1       5.447  91.101 113.464  0.00  0.00    -0.090 HD
ENDBRANCH   5  18
BRANCH   3  22
ATOM     22  C   LIG d   1       5.394  90.405 118.124  0.00  0.00     0.382 C 
ATOM     23  O   LIG d   1       4.787  91.367 118.653  0.00  0.00    -0.241 OA
ATOM     24  O   LIG d   1       6.504  90.059 118.573  0.00  0.00    -0.241 OA
ENDBRANCH   3  22
TORSDOF 7
ENDMDL
MODEL 4
REMARK VINA RESULT:      -4.6      8.437     11.318
REMARK  7 active torsions:
REMARK  status: ('A' for Active; 'I' for Inactive)
REMARK    1  A    between atoms: C_2  and  C_3 
REMARK    2  A    between atoms: C_3  and  O_6 
REMARK    3  A    between atoms: C_3  and  C_4 
REMARK    4  A    between atoms: C_7  and  O_6 
REMARK    5  A    between atoms: C_9  and  C_10 
REMARK    6  A    between atoms: N_15  and  C_14 
REMARK    7  A    between atoms: N_20  and  C_19 
REMARK       I    between atoms: C_22  and  N_20 
ROOT
ATOM      1  C   LIG d   1      -5.395  91.652 117.728  0.00  0.00     0.161 C 
ATOM      2  C   LIG d   1      -6.039  92.899 117.665  0.00  0.00     0.016 C 
ATOM      3  C   LIG d   1      -5.405  94.120 117.992  0.00  0.00     0.038 C 
ATOM      4  C   LIG d   1      -4.030  94.193 118.260  0.00  0.00     0.028 C 
ATOM      5  C   LIG d   1      -3.454  92.899 118.827  0.00  0.00    -0.047 C 
ATOM      6  C   LIG d   1      -3.864  91.724 117.911  0.00  0.00     0.091 C 
ENDROOT
BRANCH   1   7
ATOM      7  O   LIG d   1      -5.724  90.873 116.561  0.00  0.00    -0.368 OA
BRANCH   7   8
ATOM      8  C   LIG d   1      -6.961  91.219 115.892  0.00  0.00     0.119 C 
BRANCH   8   9
ATOM      9  C   LIG d   1      -7.577  89.913 115.353  0.00  0.00     0.028 C 
ATOM     10  C   LIG d   1      -8.761  89.427 116.206  0.00  0.00     0.006 C 
ENDBRANCH   8   9
BRANCH   8  11
ATOM     11  C   LIG d   1      -6.703  92.086 114.656  0.00  0.00     0.028 C 
ATOM     12  C   LIG d   1      -7.232  91.449 113.360  0.00  0.00     0.006 C 
ENDBRANCH   8  11
ENDBRANCH   7   8
ENDBRANCH   1   7
BRANCH   6  13
ATOM     13  N   LIG d   1      -3.413  90.410 118.439  0.00  0.00    -0.311 N 
ATOM     14  C   LIG d   1      -2.247  89.852 118.118  0.00  0.00     0.210 C 
ATOM     15  C   LIG d   1      -1.986  88.485 118.758  0.00  0.00     0.109 C 
ATOM     16  O   LIG d   1      -1.390  90.374 117.388  0.00  0.00    -0.276 OA
ATOM     17  H   LIG d   1      -4.033  89.931 119.063  0.00  0.00     0.149 HD
ENDBRANCH   6  13
BRANCH   5  18
ATOM     18  N   LIG d   1      -1.992  93.070 118.930  0.00  0.00     0.381 N 
ATOM     19  H   LIG d   1      -1.666  93.650 118.184  0.00  0.00    -0.090 HD
ATOM     20  H   LIG d   1      -1.554  92.170 118.844  0.00  0.00    -0.090 HD
ATOM     21  H   LIG d   1      -1.758  93.480 119.807  0.00  0.00    -0.090 HD
ENDBRANCH   5  18
BRANCH   3  22
ATOM     22  C   LIG d   1      -6.157  95.280 118.091  0.00  0.00     0.382 C 
ATOM     23  O   LIG d   1      -7.152  95.448 117.345  0.00  0.00    -0.241 OA
ATOM     24  O   LIG d   1      -5.828  96.181 118.886  0.00  0.00    -0.241 OA
ENDBRANCH   3  22
TORSDOF 7
ENDMDL
MODEL 5
REMARK VINA RESULT:      -4.6      2.170      5.418
REMARK  7 active torsions:
REMARK  status: ('A' for Active; 'I' for Inactive)
REMARK    1  A    between atoms: C_2  and  C_3 
REMARK    2  A    between atoms: C_3  and  O_6 
REMARK    3  A    between atoms: C_3  and  C_4 
REMARK    4  A    between atoms: C_7  and  O_6 
REMARK    5  A    between atoms: C_9  and  C_10 
REMARK    6  A    between atoms: N_15  and  C_14 
REMARK    7  A    between atoms: N_20  and  C_19 
REMARK       I    between atoms: C_22  and  N_20 
ROOT
ATOM      1  C   LIG d   1       5.246  90.416 115.292  0.00  0.00     0.161 C 
ATOM      2  C   LIG d   1       4.300  89.822 114.439  0.00  0.00     0.016 C 
ATOM      3  C   LIG d   1       4.178  88.424 114.268  0.00  0.00     0.038 C 
ATOM      4  C   LIG d   1       4.897  87.514 115.057  0.00  0.00     0.028 C 
ATOM      5  C   LIG d   1       6.221  88.070 115.569  0.00  0.00    -0.047 C 
ATOM      6  C   LIG d   1       5.963  89.437 116.244  0.00  0.00     0.091 C 
ENDROOT
BRANCH   1   7
ATOM      7  O   LIG d   1       4.627  91.481 116.041  0.00  0.00    -0.368 OA
BRANCH   7   8
ATOM      8  C   LIG d   1       3.880  91.082 117.217  0.00  0.00     0.119 C 
BRANCH   8   9
ATOM      9  C   LIG d   1       2.432  91.576 117.035  0.00  0.00     0.028 C 
ATOM     10  C   LIG d   1       1.465  90.438 116.669  0.00  0.00     0.006 C 
ENDBRANCH   8   9
BRANCH   8  11
ATOM     11  C   LIG d   1       4.396  91.792 118.472  0.00  0.00     0.028 C 
ATOM     12  C   LIG d   1       5.351  92.953 118.150  0.00  0.00     0.006 C 
ENDBRANCH   8  11
ENDBRANCH   7   8
ENDBRANCH   1   7
BRANCH   6  13
ATOM     13  N   LIG d   1       7.219  90.090 116.699  0.00  0.00    -0.311 N 
ATOM     14  C   LIG d   1       7.687  89.993 117.942  0.00  0.00     0.210 C 
ATOM     15  C   LIG d   1       8.986  90.760 118.205  0.00  0.00     0.109 C 
ATOM     16  O   LIG d   1       7.166  89.319 118.843  0.00  0.00    -0.276 OA
ATOM     17  H   LIG d   1       7.722  90.631 116.023  0.00  0.00     0.149 HD
ENDBRANCH   6  13
BRANCH   5  18
ATOM     18  N   LIG d   1       6.799  87.071 116.487  0.00  0.00     0.381 N 
ATOM     19  H   LIG d   1       6.343  86.190 116.359  0.00  0.00    -0.090 HD
ATOM     20  H   LIG d   1       6.645  87.371 117.433  0.00  0.00    -0.090 HD
ATOM     21  H   LIG d   1       7.776  86.976 116.316  0.00  0.00    -0.090 HD
ENDBRANCH   5  18
BRANCH   3  22
ATOM     22  C   LIG d   1       3.356  87.924 113.269  0.00  0.00     0.382 C 
ATOM     23  O   LIG d   1       3.067  86.703 113.247  0.00  0.00    -0.241 OA
ATOM     24  O   LIG d   1       2.937  88.670 112.363  0.00  0.00    -0.241 OA
ENDBRANCH   3  22
TORSDOF 7
ENDMDL
MODEL 6
REMARK VINA RESULT:      -4.5      3.500      5.738
REMARK  7 active torsions:
REMARK  status: ('A' for Active; 'I' for Inactive)
REMARK    1  A    between atoms: C_2  and  C_3 
REMARK    2  A    between atoms: C_3  and  O_6 
REMARK    3  A    between atoms: C_3  and  C_4 
REMARK    4  A    between atoms: C_7  and  O_6 
REMARK    5  A    between atoms: C_9  and  C_10 
REMARK    6  A    between atoms: N_15  and  C_14 
REMARK    7  A    between atoms: N_20  and  C_19 
REMARK       I    between atoms: C_22  and  N_20 
ROOT
ATOM      1  C   LIG d   1       1.111  89.140 116.951  0.00  0.00     0.161 C 
ATOM      2  C   LIG d   1      -0.269  88.879 116.983  0.00  0.00     0.016 C 
ATOM      3  C   LIG d   1      -1.215  89.766 117.545  0.00  0.00     0.038 C 
ATOM      4  C   LIG d   1      -0.860  91.051 117.981  0.00  0.00     0.028 C 
ATOM      5  C   LIG d   1       0.594  91.158 118.430  0.00  0.00    -0.047 C 
ATOM      6  C   LIG d   1       1.505  90.585 117.321  0.00  0.00     0.091 C 
ENDROOT
BRANCH   1   7
ATOM      7  O   LIG d   1       1.645  88.791 115.658  0.00  0.00    -0.368 OA
BRANCH   7   8
ATOM      8  C   LIG d   1       2.504  87.625 115.617  0.00  0.00     0.119 C 
BRANCH   8   9
ATOM      9  C   LIG d   1       3.547  87.858 114.506  0.00  0.00     0.028 C 
ATOM     10  C   LIG d   1       4.073  89.303 114.489  0.00  0.00     0.006 C 
ENDBRANCH   8   9
BRANCH   8  11
ATOM     11  C   LIG d   1       1.728  86.376 115.189  0.00  0.00     0.028 C 
ATOM     12  C   LIG d   1       1.344  86.394 113.701  0.00  0.00     0.006 C 
ENDBRANCH   8  11
ENDBRANCH   7   8
ENDBRANCH   1   7
BRANCH   6  13
ATOM     13  N   LIG d   1       2.938  90.574 117.714  0.00  0.00    -0.311 N 
ATOM     14  C   LIG d   1       3.806  91.517 117.350  0.00  0.00     0.210 C 
ATOM     15  C   LIG d   1       5.239  91.303 117.847  0.00  0.00     0.109 C 
ATOM     16  O   LIG d   1       3.518  92.526 116.689  0.00  0.00    -0.276 OA
ATOM     17  H   LIG d   1       3.251  89.808 118.277  0.00  0.00     0.149 HD
ENDBRANCH   6  13
BRANCH   5  18
ATOM     18  N   LIG d   1       0.865  92.577 118.726  0.00  0.00     0.381 N 
ATOM     19  H   LIG d   1       1.167  93.045 117.895  0.00  0.00    -0.090 HD
ATOM     20  H   LIG d   1       1.605  92.632 119.405  0.00  0.00    -0.090 HD
ATOM     21  H   LIG d   1       0.044  93.014 119.083  0.00  0.00    -0.090 HD
ENDBRANCH   5  18
BRANCH   3  22
ATOM     22  C   LIG d   1      -2.529  89.354 117.713  0.00  0.00     0.382 C 
ATOM     23  O   LIG d   1      -3.401  89.686 116.875  0.00  0.00    -0.241 OA
ATOM     24  O   LIG d   1      -2.860  88.691 118.714  0.00  0.00    -0.241 OA
ENDBRANCH   3  22
TORSDOF 7
ENDMDL
MODEL 7
REMARK VINA RESULT:      -4.4      8.269     10.665
REMARK  7 active torsions:
REMARK  status: ('A' for Active; 'I' for Inactive)
REMARK    1  A    between atoms: C_2  and  C_3 
REMARK    2  A    between atoms: C_3  and  O_6 
REMARK    3  A    between atoms: C_3  and  C_4 
REMARK    4  A    between atoms: C_7  and  O_6 
REMARK    5  A    between atoms: C_9  and  C_10 
REMARK    6  A    between atoms: N_15  and  C_14 
REMARK    7  A    between atoms: N_20  and  C_19 
REMARK       I    between atoms: C_22  and  N_20 
ROOT
ATOM      1  C   LIG d   1      -4.240  92.586 118.916  0.00  0.00     0.161 C 
ATOM      2  C   LIG d   1      -4.461  93.973 118.880  0.00  0.00     0.016 C 
ATOM      3  C   LIG d   1      -3.450  94.914 118.577  0.00  0.00     0.038 C 
ATOM      4  C   LIG d   1      -2.177  94.520 118.139  0.00  0.00     0.028 C 
ATOM      5  C   LIG d   1      -1.761  93.143 118.647  0.00  0.00    -0.047 C 
ATOM      6  C   LIG d   1      -2.886  92.131 118.332  0.00  0.00     0.091 C 
ENDROOT
BRANCH   1   7
ATOM      7  O   LIG d   1      -5.325  91.902 118.258  0.00  0.00    -0.368 OA
BRANCH   7   8
ATOM      8  C   LIG d   1      -5.834  92.525 117.053  0.00  0.00     0.119 C 
BRANCH   8   9
ATOM      9  C   LIG d   1      -7.326  92.834 117.287  0.00  0.00     0.028 C 
ATOM     10  C   LIG d   1      -7.642  94.333 117.152  0.00  0.00     0.006 C 
ENDBRANCH   8   9
BRANCH   8  11
ATOM     11  C   LIG d   1      -5.802  91.555 115.868  0.00  0.00     0.028 C 
ATOM     12  C   LIG d   1      -6.604  92.064 114.660  0.00  0.00     0.006 C 
ENDBRANCH   8  11
ENDBRANCH   7   8
ENDBRANCH   1   7
BRANCH   6  13
ATOM     13  N   LIG d   1      -2.597  90.776 118.870  0.00  0.00    -0.311 N 
ATOM     14  C   LIG d   1      -2.803  89.655 118.181  0.00  0.00     0.210 C 
ATOM     15  C   LIG d   1      -2.456  88.364 118.930  0.00  0.00     0.109 C 
ATOM     16  O   LIG d   1      -3.208  89.608 117.010  0.00  0.00    -0.276 OA
ATOM     17  H   LIG d   1      -2.235  90.723 119.802  0.00  0.00     0.149 HD
ENDBRANCH   6  13
BRANCH   5  18
ATOM     18  N   LIG d   1      -0.479  92.800 118.004  0.00  0.00     0.381 N 
ATOM     19  H   LIG d   1      -0.400  93.277 117.128  0.00  0.00    -0.090 HD
ATOM     20  H   LIG d   1      -0.458  91.811 117.827  0.00  0.00    -0.090 HD
ATOM     21  H   LIG d   1       0.279  93.055 118.598  0.00  0.00    -0.090 HD
ENDBRANCH   5  18
BRANCH   3  22
ATOM     22  C   LIG d   1      -3.697  96.268 118.751  0.00  0.00     0.382 C 
ATOM     23  O   LIG d   1      -4.876  96.680 118.863  0.00  0.00    -0.241 OA
ATOM     24  O   LIG d   1      -2.758  97.086 118.752  0.00  0.00    -0.241 OA
ENDBRANCH   3  22
TORSDOF 7
ENDMDL
MODEL 8
REMARK VINA RESULT:      -4.3      2.260      4.582
REMARK  7 active torsions:
REMARK  status: ('A' for Active; 'I' for Inactive)
REMARK    1  A    between atoms: C_2  and  C_3 
REMARK    2  A    between atoms: C_3  and  O_6 
REMARK    3  A    between atoms: C_3  and  C_4 
REMARK    4  A    between atoms: C_7  and  O_6 
REMARK    5  A    between atoms: C_9  and  C_10 
REMARK    6  A    between atoms: N_15  and  C_14 
REMARK    7  A    between atoms: N_20  and  C_19 
REMARK       I    between atoms: C_22  and  N_20 
ROOT
ATOM      1  C   LIG d   1       2.728  89.429 115.910  0.00  0.00     0.161 C 
ATOM      2  C   LIG d   1       1.565  90.162 116.198  0.00  0.00     0.016 C 
ATOM      3  C   LIG d   1       1.533  91.248 117.103  0.00  0.00     0.038 C 
ATOM      4  C   LIG d   1       2.703  91.774 117.671  0.00  0.00     0.028 C 
ATOM      5  C   LIG d   1       3.826  90.751 117.802  0.00  0.00    -0.047 C 
ATOM      6  C   LIG d   1       4.035  90.058 116.435  0.00  0.00     0.091 C 
ENDROOT
BRANCH   1   7
ATOM      7  O   LIG d   1       2.819  89.195 114.491  0.00  0.00    -0.368 OA
BRANCH   7   8
ATOM      8  C   LIG d   1       3.096  87.832 114.086  0.00  0.00     0.119 C 
BRANCH   8   9
ATOM      9  C   LIG d   1       3.373  87.846 112.570  0.00  0.00     0.028 C 
ATOM     10  C   LIG d   1       4.484  86.862 112.168  0.00  0.00     0.006 C 
ENDBRANCH   8   9
BRANCH   8  11
ATOM     11  C   LIG d   1       1.865  86.937 114.265  0.00  0.00     0.028 C 
ATOM     12  C   LIG d   1       2.147  85.703 115.136  0.00  0.00     0.006 C 
ENDBRANCH   8  11
ENDBRANCH   7   8
ENDBRANCH   1   7
BRANCH   6  13
ATOM     13  N   LIG d   1       5.059  88.983 116.496  0.00  0.00    -0.311 N 
ATOM     14  C   LIG d   1       6.343  89.175 116.196  0.00  0.00     0.210 C 
ATOM     15  C   LIG d   1       7.226  87.928 116.305  0.00  0.00     0.109 C 
ATOM     16  O   LIG d   1       6.840  90.267 115.882  0.00  0.00    -0.276 OA
ATOM     17  H   LIG d   1       4.749  88.072 116.772  0.00  0.00     0.149 HD
ENDBRANCH   6  13
BRANCH   5  18
ATOM     18  N   LIG d   1       5.026  91.464 118.278  0.00  0.00     0.381 N 
ATOM     19  H   LIG d   1       4.966  91.605 119.267  0.00  0.00    -0.090 HD
ATOM     20  H   LIG d   1       5.067  92.364 117.833  0.00  0.00    -0.090 HD
ATOM     21  H   LIG d   1       5.844  90.939 118.059  0.00  0.00    -0.090 HD
ENDBRANCH   5  18
BRANCH   3  22
ATOM     22  C   LIG d   1       0.315  91.794 117.479  0.00  0.00     0.382 C 
ATOM     23  O   LIG d   1      -0.707  91.068 117.534  0.00  0.00    -0.241 OA
ATOM     24  O   LIG d   1       0.216  93.012 117.720  0.00  0.00    -0.241 OA
ENDBRANCH   3  22
TORSDOF 7
ENDMDL
MODEL 9
REMARK VINA RESULT:      -4.2      7.674      9.901
REMARK  7 active torsions:
REMARK  status: ('A' for Active; 'I' for Inactive)
REMARK    1  A    between atoms: C_2  and  C_3 
REMARK    2  A    between atoms: C_3  and  O_6 
REMARK    3  A    between atoms: C_3  and  C_4 
REMARK    4  A    between atoms: C_7  and  O_6 
REMARK    5  A    between atoms: C_9  and  C_10 
REMARK    6  A    between atoms: N_15  and  C_14 
REMARK    7  A    between atoms: N_20  and  C_19 
REMARK       I    between atoms: C_22  and  N_20 
ROOT
ATOM      1  C   LIG d   1      -3.905  92.563 117.745  0.00  0.00     0.161 C 
ATOM      2  C   LIG d   1      -3.253  93.725 118.190  0.00  0.00     0.016 C 
ATOM      3  C   LIG d   1      -3.927  94.933 118.480  0.00  0.00     0.038 C 
ATOM      4  C   LIG d   1      -5.327  95.016 118.491  0.00  0.00     0.028 C 
ATOM      5  C   LIG d   1      -6.001  94.013 117.560  0.00  0.00    -0.047 C 
ATOM      6  C   LIG d   1      -5.444  92.602 117.856  0.00  0.00     0.091 C 
ENDROOT
BRANCH   1   7
ATOM      7  O   LIG d   1      -3.382  91.412 118.438  0.00  0.00    -0.368 OA
BRANCH   7   8
ATOM      8  C   LIG d   1      -2.201  90.803 117.860  0.00  0.00     0.119 C 
BRANCH   8   9
ATOM      9  C   LIG d   1      -2.520  89.315 117.618  0.00  0.00     0.028 C 
ATOM     10  C   LIG d   1      -2.051  88.419 118.777  0.00  0.00     0.006 C 
ENDBRANCH   8   9
BRANCH   8  11
ATOM     11  C   LIG d   1      -1.030  90.812 118.846  0.00  0.00     0.028 C 
ATOM     12  C   LIG d   1       0.024  91.880 118.510  0.00  0.00     0.006 C 
ENDBRANCH   8  11
ENDBRANCH   7   8
ENDBRANCH   1   7
BRANCH   6  13
ATOM     13  N   LIG d   1      -5.988  91.573 116.933  0.00  0.00    -0.311 N 
ATOM     14  C   LIG d   1      -6.284  91.815 115.657  0.00  0.00     0.210 C 
ATOM     15  C   LIG d   1      -6.852  90.619 114.887  0.00  0.00     0.109 C 
ATOM     16  O   LIG d   1      -6.099  92.898 115.082  0.00  0.00    -0.276 OA
ATOM     17  H   LIG d   1      -6.139  90.657 117.309  0.00  0.00     0.149 HD
ENDBRANCH   6  13
BRANCH   5  18
ATOM     18  N   LIG d   1      -7.457  94.116 117.773  0.00  0.00     0.381 N 
ATOM     19  H   LIG d   1      -7.919  94.240 116.894  0.00  0.00    -0.090 HD
ATOM     20  H   LIG d   1      -7.646  94.921 118.344  0.00  0.00    -0.090 HD
ATOM     21  H   LIG d   1      -7.795  93.294 118.222  0.00  0.00    -0.090 HD
ENDBRANCH   5  18
BRANCH   3  22
ATOM     22  C   LIG d   1      -3.196  96.085 118.727  0.00  0.00     0.382 C 
ATOM     23  O   LIG d   1      -1.957  96.015 118.911  0.00  0.00    -0.241 OA
ATOM     24  O   LIG d   1      -3.767  97.189 118.812  0.00  0.00    -0.241 OA
ENDBRANCH   3  22
TORSDOF 7
ENDMDL
