MODEL 1
REMARK VINA RESULT:      -5.0      0.000      0.000
REMARK  7 active torsions:
REMARK  status: ('A' for Active; 'I' for Inactive)
REMARK    1  A    between atoms: C_2  and  C_3 
REMARK    2  A    between atoms: C_3  and  O_6 
REMARK    3  A    between atoms: C_3  and  C_4 
REMARK    4  A    between atoms: C_7  and  O_6 
REMARK    5  A    between atoms: C_9  and  C_10 
REMARK    6  A    between atoms: N_15  and  C_14 
REMARK    7  A    between atoms: N_20  and  C_19 
REMARK       I    between atoms: C_22  and  N_20 
ROOT
ATOM      1  C   LIG d   1      -5.214  92.475 117.775  0.00  0.00     0.161 C 
ATOM      2  C   LIG d   1      -5.687  93.682 118.317  0.00  0.00     0.016 C 
ATOM      3  C   LIG d   1      -6.837  94.351 117.840  0.00  0.00     0.038 C 
ATOM      4  C   LIG d   1      -7.684  93.778 116.880  0.00  0.00     0.028 C 
ATOM      5  C   LIG d   1      -6.971  92.801 115.950  0.00  0.00    -0.047 C 
ATOM      6  C   LIG d   1      -6.187  91.778 116.802  0.00  0.00     0.091 C 
ENDROOT
BRANCH   1   7
ATOM      7  O   LIG d   1      -4.838  91.576 118.838  0.00  0.00    -0.368 OA
BRANCH   7   8
ATOM      8  C   LIG d   1      -3.430  91.246 118.925  0.00  0.00     0.119 C 
BRANCH   8   9
ATOM      9  C   LIG d   1      -2.692  92.078 117.859  0.00  0.00     0.028 C 
ATOM     10  C   LIG d   1      -1.800  93.168 118.478  0.00  0.00     0.006 C 
ENDBRANCH   8   9
BRANCH   8  11
ATOM     11  C   LIG d   1      -3.176  89.784 118.546  0.00  0.00     0.028 C 
ATOM     12  C   LIG d   1      -1.772  89.554 117.964  0.00  0.00     0.006 C 
ENDBRANCH   8  11
ENDBRANCH   7   8
ENDBRANCH   1   7
BRANCH   6  13
ATOM     13  N   LIG d   1      -5.393  90.837 115.969  0.00  0.00    -0.311 N 
ATOM     14  C   LIG d   1      -5.717  89.557 115.798  0.00  0.00     0.210 C 
ATOM     15  C   LIG d   1      -4.752  88.757 114.917  0.00  0.00     0.109 C 
ATOM     16  O   LIG d   1      -6.730  89.015 116.266  0.00  0.00    -0.276 OA
ATOM     17  H   LIG d   1      -4.572  91.201 115.527  0.00  0.00     0.149 HD
ENDBRANCH   6  13
BRANCH   5  18
ATOM     18  N   LIG d   1      -7.995  92.176 115.092  0.00  0.00     0.381 N 
ATOM     19  H   LIG d   1      -8.838  92.040 115.614  0.00  0.00    -0.090 HD
ATOM     20  H   LIG d   1      -7.662  91.276 114.791  0.00  0.00    -0.090 HD
ATOM     21  H   LIG d   1      -8.176  92.753 114.300  0.00  0.00    -0.090 HD
ENDBRANCH   5  18
BRANCH   3  22
ATOM     22  C   LIG d   1      -7.127  95.628 118.296  0.00  0.00     0.382 C 
ATOM     23  O   LIG d   1      -8.237  96.151 118.032  0.00  0.00    -0.241 OA
ATOM     24  O   LIG d   1      -6.277  96.281 118.930  0.00  0.00    -0.241 OA
ENDBRANCH   3  22
TORSDOF 7
ENDMDL
MODEL 2
REMARK VINA RESULT:      -4.7      8.693     10.719
REMARK  7 active torsions:
REMARK  status: ('A' for Active; 'I' for Inactive)
REMARK    1  A    between atoms: C_2  and  C_3 
REMARK    2  A    between atoms: C_3  and  O_6 
REMARK    3  A    between atoms: C_3  and  C_4 
REMARK    4  A    between atoms: C_7  and  O_6 
REMARK    5  A    between atoms: C_9  and  C_10 
REMARK    6  A    between atoms: N_15  and  C_14 
REMARK    7  A    between atoms: N_20  and  C_19 
REMARK       I    between atoms: C_22  and  N_20 
ROOT
ATOM      1  C   LIG d   1       4.153  87.565 115.872  0.00  0.00     0.161 C 
ATOM      2  C   LIG d   1       4.518  88.429 116.917  0.00  0.00     0.016 C 
ATOM      3  C   LIG d   1       5.017  89.735 116.709  0.00  0.00     0.038 C 
ATOM      4  C   LIG d   1       5.043  90.324 115.436  0.00  0.00     0.028 C 
ATOM      5  C   LIG d   1       5.159  89.312 114.302  0.00  0.00    -0.047 C 
ATOM      6  C   LIG d   1       4.069  88.230 114.482  0.00  0.00     0.091 C 
ENDROOT
BRANCH   1   7
ATOM      7  O   LIG d   1       2.908  86.911 116.190  0.00  0.00    -0.368 OA
BRANCH   7   8
ATOM      8  C   LIG d   1       1.710  87.529 115.658  0.00  0.00     0.119 C 
BRANCH   8   9
ATOM      9  C   LIG d   1       0.947  88.156 116.841  0.00  0.00     0.028 C 
ATOM     10  C   LIG d   1       0.981  89.693 116.812  0.00  0.00     0.006 C 
ENDBRANCH   8   9
BRANCH   8  11
ATOM     11  C   LIG d   1       0.758  86.482 115.070  0.00  0.00     0.028 C 
ATOM     12  C   LIG d   1      -0.501  86.275 115.927  0.00  0.00     0.006 C 
ENDBRANCH   8  11
ENDBRANCH   7   8
ENDBRANCH   1   7
BRANCH   6  13
ATOM     13  N   LIG d   1       4.165  87.153 113.462  0.00  0.00    -0.311 N 
ATOM     14  C   LIG d   1       3.450  87.143 112.338  0.00  0.00     0.210 C 
ATOM     15  C   LIG d   1       3.687  85.930 111.432  0.00  0.00     0.109 C 
ATOM     16  O   LIG d   1       2.666  88.039 111.990  0.00  0.00    -0.276 OA
ATOM     17  H   LIG d   1       4.800  86.403 113.649  0.00  0.00     0.149 HD
ENDBRANCH   6  13
BRANCH   5  18
ATOM     18  N   LIG d   1       5.036  90.050 113.031  0.00  0.00     0.381 N 
ATOM     19  H   LIG d   1       5.891  89.983 112.516  0.00  0.00    -0.090 HD
ATOM     20  H   LIG d   1       4.864  91.019 113.233  0.00  0.00    -0.090 HD
ATOM     21  H   LIG d   1       4.285  89.678 112.491  0.00  0.00    -0.090 HD
ENDBRANCH   5  18
BRANCH   3  22
ATOM     22  C   LIG d   1       5.535  90.452 117.777  0.00  0.00     0.382 C 
ATOM     23  O   LIG d   1       4.851  90.607 118.818  0.00  0.00    -0.241 OA
ATOM     24  O   LIG d   1       6.659  90.982 117.696  0.00  0.00    -0.241 OA
ENDBRANCH   3  22
TORSDOF 7
ENDMDL
MODEL 3
REMARK VINA RESULT:      -4.5      7.981      9.911
REMARK  7 active torsions:
REMARK  status: ('A' for Active; 'I' for Inactive)
REMARK    1  A    between atoms: C_2  and  C_3 
REMARK    2  A    between atoms: C_3  and  O_6 
REMARK    3  A    between atoms: C_3  and  C_4 
REMARK    4  A    between atoms: C_7  and  O_6 
REMARK    5  A    between atoms: C_9  and  C_10 
REMARK    6  A    between atoms: N_15  and  C_14 
REMARK    7  A    between atoms: N_20  and  C_19 
REMARK       I    between atoms: C_22  and  N_20 
ROOT
ATOM      1  C   LIG d   1       2.832  88.081 115.055  0.00  0.00     0.161 C 
ATOM      2  C   LIG d   1       3.797  89.052 115.372  0.00  0.00     0.016 C 
ATOM      3  C   LIG d   1       3.637  89.998 116.410  0.00  0.00     0.038 C 
ATOM      4  C   LIG d   1       2.558  89.941 117.306  0.00  0.00     0.028 C 
ATOM      5  C   LIG d   1       1.311  89.295 116.712  0.00  0.00    -0.047 C 
ATOM      6  C   LIG d   1       1.699  87.933 116.092  0.00  0.00     0.091 C 
ENDROOT
BRANCH   1   7
ATOM      7  O   LIG d   1       3.473  86.811 114.828  0.00  0.00    -0.368 OA
BRANCH   7   8
ATOM      8  C   LIG d   1       3.506  86.349 113.455  0.00  0.00     0.119 C 
BRANCH   8   9
ATOM      9  C   LIG d   1       4.977  86.368 112.995  0.00  0.00     0.028 C 
ATOM     10  C   LIG d   1       5.392  87.730 112.413  0.00  0.00     0.006 C 
ENDBRANCH   8   9
BRANCH   8  11
ATOM     11  C   LIG d   1       2.778  87.322 112.523  0.00  0.00     0.028 C 
ATOM     12  C   LIG d   1       1.967  86.607 111.430  0.00  0.00     0.006 C 
ENDBRANCH   8  11
ENDBRANCH   7   8
ENDBRANCH   1   7
BRANCH   6  13
ATOM     13  N   LIG d   1       0.554  87.271 115.415  0.00  0.00    -0.311 N 
ATOM     14  C   LIG d   1      -0.260  86.409 116.023  0.00  0.00     0.210 C 
ATOM     15  C   LIG d   1      -1.365  85.828 115.137  0.00  0.00     0.109 C 
ATOM     16  O   LIG d   1      -0.190  86.096 117.221  0.00  0.00    -0.276 OA
ATOM     17  H   LIG d   1       0.405  87.492 114.450  0.00  0.00     0.149 HD
ENDBRANCH   6  13
BRANCH   5  18
ATOM     18  N   LIG d   1       0.314  89.175 117.792  0.00  0.00     0.381 N 
ATOM     19  H   LIG d   1       0.050  88.217 117.905  0.00  0.00    -0.090 HD
ATOM     20  H   LIG d   1      -0.505  89.700 117.538  0.00  0.00    -0.090 HD
ATOM     21  H   LIG d   1       0.691  89.527 118.644  0.00  0.00    -0.090 HD
ENDBRANCH   5  18
BRANCH   3  22
ATOM     22  C   LIG d   1       4.542  91.041 116.535  0.00  0.00     0.382 C 
ATOM     23  O   LIG d   1       4.131  92.204 116.765  0.00  0.00    -0.241 OA
ATOM     24  O   LIG d   1       5.761  90.841 116.377  0.00  0.00    -0.241 OA
ENDBRANCH   3  22
TORSDOF 7
ENDMDL
MODEL 4
REMARK VINA RESULT:      -4.4      2.305      3.375
REMARK  7 active torsions:
REMARK  status: ('A' for Active; 'I' for Inactive)
REMARK    1  A    between atoms: C_2  and  C_3 
REMARK    2  A    between atoms: C_3  and  O_6 
REMARK    3  A    between atoms: C_3  and  C_4 
REMARK    4  A    between atoms: C_7  and  O_6 
REMARK    5  A    between atoms: C_9  and  C_10 
REMARK    6  A    between atoms: N_15  and  C_14 
REMARK    7  A    between atoms: N_20  and  C_19 
REMARK       I    between atoms: C_22  and  N_20 
ROOT
ATOM      1  C   LIG d   1      -3.736  91.765 117.384  0.00  0.00     0.161 C 
ATOM      2  C   LIG d   1      -4.855  92.557 117.082  0.00  0.00     0.016 C 
ATOM      3  C   LIG d   1      -5.982  92.075 116.376  0.00  0.00     0.038 C 
ATOM      4  C   LIG d   1      -6.130  90.718 116.055  0.00  0.00     0.028 C 
ATOM      5  C   LIG d   1      -4.803  89.984 115.894  0.00  0.00    -0.047 C 
ATOM      6  C   LIG d   1      -3.927  90.253 117.139  0.00  0.00     0.091 C 
ENDROOT
BRANCH   1   7
ATOM      7  O   LIG d   1      -3.321  92.003 118.744  0.00  0.00    -0.368 OA
BRANCH   7   8
ATOM      8  C   LIG d   1      -2.284  92.998 118.929  0.00  0.00     0.119 C 
BRANCH   8   9
ATOM      9  C   LIG d   1      -2.928  94.382 118.719  0.00  0.00     0.028 C 
ATOM     10  C   LIG d   1      -1.895  95.521 118.752  0.00  0.00     0.006 C 
ENDBRANCH   8   9
BRANCH   8  11
ATOM     11  C   LIG d   1      -1.204  92.884 117.850  0.00  0.00     0.028 C 
ATOM     12  C   LIG d   1      -0.127  91.843 118.192  0.00  0.00     0.006 C 
ENDBRANCH   8  11
ENDBRANCH   7   8
ENDBRANCH   1   7
BRANCH   6  13
ATOM     13  N   LIG d   1      -2.578  89.641 117.026  0.00  0.00    -0.311 N 
ATOM     14  C   LIG d   1      -2.191  88.583 117.736  0.00  0.00     0.210 C 
ATOM     15  C   LIG d   1      -0.752  88.124 117.481  0.00  0.00     0.109 C 
ATOM     16  O   LIG d   1      -2.914  87.961 118.529  0.00  0.00    -0.276 OA
ATOM     17  H   LIG d   1      -1.938  90.064 116.383  0.00  0.00     0.149 HD
ENDBRANCH   6  13
BRANCH   5  18
ATOM     18  N   LIG d   1      -5.105  88.554 115.698  0.00  0.00     0.381 N 
ATOM     19  H   LIG d   1      -4.623  88.009 116.384  0.00  0.00    -0.090 HD
ATOM     20  H   LIG d   1      -4.780  88.275 114.788  0.00  0.00    -0.090 HD
ATOM     21  H   LIG d   1      -6.087  88.400 115.770  0.00  0.00    -0.090 HD
ENDBRANCH   5  18
BRANCH   3  22
ATOM     22  C   LIG d   1      -6.957  92.964 115.949  0.00  0.00     0.382 C 
ATOM     23  O   LIG d   1      -7.234  93.051 114.729  0.00  0.00    -0.241 OA
ATOM     24  O   LIG d   1      -7.532  93.710 116.764  0.00  0.00    -0.241 OA
ENDBRANCH   3  22
TORSDOF 7
ENDMDL
MODEL 5
REMARK VINA RESULT:      -4.4      8.538     10.517
REMARK  7 active torsions:
REMARK  status: ('A' for Active; 'I' for Inactive)
REMARK    1  A    between atoms: C_2  and  C_3 
REMARK    2  A    between atoms: C_3  and  O_6 
REMARK    3  A    between atoms: C_3  and  C_4 
REMARK    4  A    between atoms: C_7  and  O_6 
REMARK    5  A    between atoms: C_9  and  C_10 
REMARK    6  A    between atoms: N_15  and  C_14 
REMARK    7  A    between atoms: N_20  and  C_19 
REMARK       I    between atoms: C_22  and  N_20 
ROOT
ATOM      1  C   LIG d   1       4.547  89.049 114.917  0.00  0.00     0.161 C 
ATOM      2  C   LIG d   1       4.510  90.203 115.719  0.00  0.00     0.016 C 
ATOM      3  C   LIG d   1       3.403  90.555 116.525  0.00  0.00     0.038 C 
ATOM      4  C   LIG d   1       2.311  89.694 116.702  0.00  0.00     0.028 C 
ATOM      5  C   LIG d   1       2.081  88.756 115.521  0.00  0.00    -0.047 C 
ATOM      6  C   LIG d   1       3.410  88.041 115.183  0.00  0.00     0.091 C 
ENDROOT
BRANCH   1   7
ATOM      7  O   LIG d   1       5.829  88.404 115.048  0.00  0.00    -0.368 OA
BRANCH   7   8
ATOM      8  C   LIG d   1       6.217  88.024 116.391  0.00  0.00     0.119 C 
BRANCH   8   9
ATOM      9  C   LIG d   1       7.682  88.459 116.591  0.00  0.00     0.028 C 
ATOM     10  C   LIG d   1       7.799  89.879 117.171  0.00  0.00     0.006 C 
ENDBRANCH   8   9
BRANCH   8  11
ATOM     11  C   LIG d   1       6.220  86.502 116.561  0.00  0.00     0.028 C 
ATOM     12  C   LIG d   1       7.494  85.981 117.244  0.00  0.00     0.006 C 
ENDBRANCH   8  11
ENDBRANCH   7   8
ENDBRANCH   1   7
BRANCH   6  13
ATOM     13  N   LIG d   1       3.294  87.167 113.986  0.00  0.00    -0.311 N 
ATOM     14  C   LIG d   1       2.982  87.622 112.774  0.00  0.00     0.210 C 
ATOM     15  C   LIG d   1       2.897  86.550 111.683  0.00  0.00     0.109 C 
ATOM     16  O   LIG d   1       2.800  88.816 112.492  0.00  0.00    -0.276 OA
ATOM     17  H   LIG d   1       3.457  86.188 114.119  0.00  0.00     0.149 HD
ENDBRANCH   6  13
BRANCH   5  18
ATOM     18  N   LIG d   1       1.002  87.823 115.896  0.00  0.00     0.381 N 
ATOM     19  H   LIG d   1       0.485  88.195 116.668  0.00  0.00    -0.090 HD
ATOM     20  H   LIG d   1       1.411  86.951 116.182  0.00  0.00    -0.090 HD
ATOM     21  H   LIG d   1       0.394  87.675 115.121  0.00  0.00    -0.090 HD
ENDBRANCH   5  18
BRANCH   3  22
ATOM     22  C   LIG d   1       3.365  91.801 117.133  0.00  0.00     0.382 C 
ATOM     23  O   LIG d   1       4.306  92.612 116.960  0.00  0.00    -0.241 OA
ATOM     24  O   LIG d   1       2.424  92.106 117.889  0.00  0.00    -0.241 OA
ENDBRANCH   3  22
TORSDOF 7
ENDMDL
MODEL 6
REMARK VINA RESULT:      -4.4      8.045     11.114
REMARK  7 active torsions:
REMARK  status: ('A' for Active; 'I' for Inactive)
REMARK    1  A    between atoms: C_2  and  C_3 
REMARK    2  A    between atoms: C_3  and  O_6 
REMARK    3  A    between atoms: C_3  and  C_4 
REMARK    4  A    between atoms: C_7  and  O_6 
REMARK    5  A    between atoms: C_9  and  C_10 
REMARK    6  A    between atoms: N_15  and  C_14 
REMARK    7  A    between atoms: N_20  and  C_19 
REMARK       I    between atoms: C_22  and  N_20 
ROOT
ATOM      1  C   LIG d   1       3.097  88.553 115.752  0.00  0.00     0.161 C 
ATOM      2  C   LIG d   1       2.872  88.040 114.464  0.00  0.00     0.016 C 
ATOM      3  C   LIG d   1       3.912  87.706 113.566  0.00  0.00     0.038 C 
ATOM      4  C   LIG d   1       5.260  87.720 113.955  0.00  0.00     0.028 C 
ATOM      5  C   LIG d   1       5.556  88.711 115.076  0.00  0.00    -0.047 C 
ATOM      6  C   LIG d   1       4.561  88.471 116.234  0.00  0.00     0.091 C 
ENDROOT
BRANCH   1   7
ATOM      7  O   LIG d   1       2.222  87.905 116.696  0.00  0.00    -0.368 OA
BRANCH   7   8
ATOM      8  C   LIG d   1       0.819  88.254 116.608  0.00  0.00     0.119 C 
BRANCH   8   9
ATOM      9  C   LIG d   1       0.550  89.360 117.647  0.00  0.00     0.028 C 
ATOM     10  C   LIG d   1       0.442  90.754 117.006  0.00  0.00     0.006 C 
ENDBRANCH   8   9
BRANCH   8  11
ATOM     11  C   LIG d   1      -0.075  87.081 117.023  0.00  0.00     0.028 C 
ATOM     12  C   LIG d   1      -0.467  86.183 115.840  0.00  0.00     0.006 C 
ENDBRANCH   8  11
ENDBRANCH   7   8
ENDBRANCH   1   7
BRANCH   6  13
ATOM     13  N   LIG d   1       4.727  89.453 117.337  0.00  0.00    -0.311 N 
ATOM     14  C   LIG d   1       4.567  90.766 117.180  0.00  0.00     0.210 C 
ATOM     15  C   LIG d   1       4.805  91.601 118.441  0.00  0.00     0.109 C 
ATOM     16  O   LIG d   1       4.219  91.314 116.123  0.00  0.00    -0.276 OA
ATOM     17  H   LIG d   1       4.979  89.091 118.236  0.00  0.00     0.149 HD
ENDBRANCH   6  13
BRANCH   5  18
ATOM     18  N   LIG d   1       6.964  88.523 115.475  0.00  0.00     0.381 N 
ATOM     19  H   LIG d   1       7.153  89.048 116.306  0.00  0.00    -0.090 HD
ATOM     20  H   LIG d   1       7.558  88.868 114.742  0.00  0.00    -0.090 HD
ATOM     21  H   LIG d   1       7.147  87.557 115.635  0.00  0.00    -0.090 HD
ENDBRANCH   5  18
BRANCH   3  22
ATOM     22  C   LIG d   1       3.609  87.390 112.250  0.00  0.00     0.382 C 
ATOM     23  O   LIG d   1       4.442  86.770 111.547  0.00  0.00    -0.241 OA
ATOM     24  O   LIG d   1       2.531  87.757 111.745  0.00  0.00    -0.241 OA
ENDBRANCH   3  22
TORSDOF 7
ENDMDL
MODEL 7
REMARK VINA RESULT:      -4.3      9.689     12.049
REMARK  7 active torsions:
REMARK  status: ('A' for Active; 'I' for Inactive)
REMARK    1  A    between atoms: C_2  and  C_3 
REMARK    2  A    between atoms: C_3  and  O_6 
REMARK    3  A    between atoms: C_3  and  C_4 
REMARK    4  A    between atoms: C_7  and  O_6 
REMARK    5  A    between atoms: C_9  and  C_10 
REMARK    6  A    between atoms: N_15  and  C_14 
REMARK    7  A    between atoms: N_20  and  C_19 
REMARK       I    between atoms: C_22  and  N_20 
ROOT
ATOM      1  C   LIG d   1       4.585  86.342 115.511  0.00  0.00     0.161 C 
ATOM      2  C   LIG d   1       5.629  86.598 116.416  0.00  0.00     0.016 C 
ATOM      3  C   LIG d   1       6.615  87.589 116.207  0.00  0.00     0.038 C 
ATOM      4  C   LIG d   1       6.537  88.499 115.142  0.00  0.00     0.028 C 
ATOM      5  C   LIG d   1       5.785  87.954 113.933  0.00  0.00    -0.047 C 
ATOM      6  C   LIG d   1       4.420  87.399 114.399  0.00  0.00     0.091 C 
ENDROOT
BRANCH   1   7
ATOM      7  O   LIG d   1       3.347  86.171 116.229  0.00  0.00    -0.368 OA
BRANCH   7   8
ATOM      8  C   LIG d   1       2.457  87.315 116.245  0.00  0.00     0.119 C 
BRANCH   8   9
ATOM      9  C   LIG d   1       2.375  87.817 117.699  0.00  0.00     0.028 C 
ATOM     10  C   LIG d   1       3.385  88.940 117.990  0.00  0.00     0.006 C 
ENDBRANCH   8   9
BRANCH   8  11
ATOM     11  C   LIG d   1       1.027  86.912 115.874  0.00  0.00     0.028 C 
ATOM     12  C   LIG d   1       0.941  85.498 115.279  0.00  0.00     0.006 C 
ENDBRANCH   8  11
ENDBRANCH   7   8
ENDBRANCH   1   7
BRANCH   6  13
ATOM     13  N   LIG d   1       3.655  86.770 113.291  0.00  0.00    -0.311 N 
ATOM     14  C   LIG d   1       2.826  87.445 112.497  0.00  0.00     0.210 C 
ATOM     15  C   LIG d   1       2.122  86.601 111.430  0.00  0.00     0.109 C 
ATOM     16  O   LIG d   1       2.630  88.668 112.555  0.00  0.00    -0.276 OA
ATOM     17  H   LIG d   1       3.778  85.786 113.153  0.00  0.00     0.149 HD
ENDBRANCH   6  13
BRANCH   5  18
ATOM     18  N   LIG d   1       5.660  89.051 112.954  0.00  0.00     0.381 N 
ATOM     19  H   LIG d   1       6.531  89.535 112.875  0.00  0.00    -0.090 HD
ATOM     20  H   LIG d   1       4.967  89.701 113.282  0.00  0.00    -0.090 HD
ATOM     21  H   LIG d   1       5.391  88.687 112.067  0.00  0.00    -0.090 HD
ENDBRANCH   5  18
BRANCH   3  22
ATOM     22  C   LIG d   1       7.717  87.650 117.046  0.00  0.00     0.382 C 
ATOM     23  O   LIG d   1       8.691  88.383 116.750  0.00  0.00    -0.241 OA
ATOM     24  O   LIG d   1       7.768  86.948 118.074  0.00  0.00    -0.241 OA
ENDBRANCH   3  22
TORSDOF 7
ENDMDL
MODEL 8
REMARK VINA RESULT:      -4.3      2.386      3.250
REMARK  7 active torsions:
REMARK  status: ('A' for Active; 'I' for Inactive)
REMARK    1  A    between atoms: C_2  and  C_3 
REMARK    2  A    between atoms: C_3  and  O_6 
REMARK    3  A    between atoms: C_3  and  C_4 
REMARK    4  A    between atoms: C_7  and  O_6 
REMARK    5  A    between atoms: C_9  and  C_10 
REMARK    6  A    between atoms: N_15  and  C_14 
REMARK    7  A    between atoms: N_20  and  C_19 
REMARK       I    between atoms: C_22  and  N_20 
ROOT
ATOM      1  C   LIG d   1      -3.969  91.404 117.078  0.00  0.00     0.161 C 
ATOM      2  C   LIG d   1      -3.031  92.367 117.487  0.00  0.00     0.016 C 
ATOM      3  C   LIG d   1      -3.360  93.480 118.294  0.00  0.00     0.038 C 
ATOM      4  C   LIG d   1      -4.629  93.625 118.876  0.00  0.00     0.028 C 
ATOM      5  C   LIG d   1      -5.740  92.948 118.081  0.00  0.00    -0.047 C 
ATOM      6  C   LIG d   1      -5.333  91.485 117.795  0.00  0.00     0.091 C 
ENDROOT
BRANCH   1   7
ATOM      7  O   LIG d   1      -3.407  90.084 117.218  0.00  0.00    -0.368 OA
BRANCH   7   8
ATOM      8  C   LIG d   1      -2.361  89.939 118.211  0.00  0.00     0.119 C 
BRANCH   8   9
ATOM      9  C   LIG d   1      -1.010  90.082 117.483  0.00  0.00     0.028 C 
ATOM     10  C   LIG d   1       0.141  90.426 118.444  0.00  0.00     0.006 C 
ENDBRANCH   8   9
BRANCH   8  11
ATOM     11  C   LIG d   1      -2.352  88.529 118.809  0.00  0.00     0.028 C 
ATOM     12  C   LIG d   1      -2.101  87.437 117.757  0.00  0.00     0.006 C 
ENDBRANCH   8  11
ENDBRANCH   7   8
ENDBRANCH   1   7
BRANCH   6  13
ATOM     13  N   LIG d   1      -6.328  90.774 116.949  0.00  0.00    -0.311 N 
ATOM     14  C   LIG d   1      -6.715  91.209 115.751  0.00  0.00     0.210 C 
ATOM     15  C   LIG d   1      -7.765  90.337 115.055  0.00  0.00     0.109 C 
ATOM     16  O   LIG d   1      -6.265  92.216 115.185  0.00  0.00    -0.276 OA
ATOM     17  H   LIG d   1      -6.721  89.931 117.318  0.00  0.00     0.149 HD
ENDBRANCH   6  13
BRANCH   5  18
ATOM     18  N   LIG d   1      -6.982  93.058 118.869  0.00  0.00     0.381 N 
ATOM     19  H   LIG d   1      -7.256  92.154 119.198  0.00  0.00    -0.090 HD
ATOM     20  H   LIG d   1      -7.713  93.413 118.277  0.00  0.00    -0.090 HD
ATOM     21  H   LIG d   1      -6.843  93.672 119.641  0.00  0.00    -0.090 HD
ENDBRANCH   5  18
BRANCH   3  22
ATOM     22  C   LIG d   1      -2.426  94.485 118.493  0.00  0.00     0.382 C 
ATOM     23  O   LIG d   1      -2.801  95.630 118.841  0.00  0.00    -0.241 OA
ATOM     24  O   LIG d   1      -1.216  94.272 118.287  0.00  0.00    -0.241 OA
ENDBRANCH   3  22
TORSDOF 7
ENDMDL
MODEL 9
REMARK VINA RESULT:      -4.2      9.010     12.173
REMARK  7 active torsions:
REMARK  status: ('A' for Active; 'I' for Inactive)
REMARK    1  A    between atoms: C_2  and  C_3 
REMARK    2  A    between atoms: C_3  and  O_6 
REMARK    3  A    between atoms: C_3  and  C_4 
REMARK    4  A    between atoms: C_7  and  O_6 
REMARK    5  A    between atoms: C_9  and  C_10 
REMARK    6  A    between atoms: N_15  and  C_14 
REMARK    7  A    between atoms: N_20  and  C_19 
REMARK       I    between atoms: C_22  and  N_20 
ROOT
ATOM      1  C   LIG d   1       4.638  86.389 115.386  0.00  0.00     0.161 C 
ATOM      2  C   LIG d   1       3.253  86.591 115.268  0.00  0.00     0.016 C 
ATOM      3  C   LIG d   1       2.540  87.552 116.022  0.00  0.00     0.038 C 
ATOM      4  C   LIG d   1       3.193  88.485 116.841  0.00  0.00     0.028 C 
ATOM      5  C   LIG d   1       4.533  87.990 117.374  0.00  0.00    -0.047 C 
ATOM      6  C   LIG d   1       5.384  87.473 116.192  0.00  0.00     0.091 C 
ENDROOT
BRANCH   1   7
ATOM      7  O   LIG d   1       5.224  86.246 114.077  0.00  0.00    -0.368 OA
BRANCH   7   8
ATOM      8  C   LIG d   1       4.680  87.099 113.039  0.00  0.00     0.119 C 
BRANCH   8   9
ATOM      9  C   LIG d   1       4.590  86.259 111.750  0.00  0.00     0.028 C 
ATOM     10  C   LIG d   1       3.149  85.827 111.431  0.00  0.00     0.006 C 
ENDBRANCH   8   9
BRANCH   8  11
ATOM     11  C   LIG d   1       5.634  88.250 112.707  0.00  0.00     0.028 C 
ATOM     12  C   LIG d   1       5.104  89.616 113.170  0.00  0.00     0.006 C 
ENDBRANCH   8  11
ENDBRANCH   7   8
ENDBRANCH   1   7
BRANCH   6  13
ATOM     13  N   LIG d   1       6.678  86.892 116.636  0.00  0.00    -0.311 N 
ATOM     14  C   LIG d   1       7.813  87.586 116.687  0.00  0.00     0.210 C 
ATOM     15  C   LIG d   1       9.037  86.791 117.155  0.00  0.00     0.109 C 
ATOM     16  O   LIG d   1       7.918  88.793 116.421  0.00  0.00    -0.276 OA
ATOM     17  H   LIG d   1       6.678  85.927 116.901  0.00  0.00     0.149 HD
ENDBRANCH   6  13
BRANCH   5  18
ATOM     18  N   LIG d   1       5.166  89.110 118.096  0.00  0.00     0.381 N 
ATOM     19  H   LIG d   1       6.046  89.331 117.673  0.00  0.00    -0.090 HD
ATOM     20  H   LIG d   1       5.335  88.830 119.047  0.00  0.00    -0.090 HD
ATOM     21  H   LIG d   1       4.571  89.908 118.078  0.00  0.00    -0.090 HD
ENDBRANCH   5  18
BRANCH   3  22
ATOM     22  C   LIG d   1       1.154  87.559 115.991  0.00  0.00     0.382 C 
ATOM     23  O   LIG d   1       0.510  88.149 116.892  0.00  0.00    -0.241 OA
ATOM     24  O   LIG d   1       0.539  86.946 115.099  0.00  0.00    -0.241 OA
ENDBRANCH   3  22
TORSDOF 7
ENDMDL
