MODEL 1
REMARK VINA RESULT:      -5.0      0.000      0.000
REMARK  7 active torsions:
REMARK  status: ('A' for Active; 'I' for Inactive)
REMARK    1  A    between atoms: C_2  and  C_3 
REMARK    2  A    between atoms: C_3  and  O_6 
REMARK    3  A    between atoms: C_3  and  C_4 
REMARK    4  A    between atoms: C_7  and  O_6 
REMARK    5  A    between atoms: C_9  and  C_10 
REMARK    6  A    between atoms: N_15  and  C_14 
REMARK    7  A    between atoms: N_20  and  C_19 
REMARK       I    between atoms: C_22  and  N_20 
ROOT
ATOM      1  C   LIG d   1       3.588  87.865 115.480  0.00  0.00     0.161 C 
ATOM      2  C   LIG d   1       2.769  87.318 114.478  0.00  0.00     0.016 C 
ATOM      3  C   LIG d   1       3.150  87.238 113.119  0.00  0.00     0.038 C 
ATOM      4  C   LIG d   1       4.446  87.563 112.692  0.00  0.00     0.028 C 
ATOM      5  C   LIG d   1       5.137  88.592 113.581  0.00  0.00    -0.047 C 
ATOM      6  C   LIG d   1       5.048  88.123 115.052  0.00  0.00     0.091 C 
ENDROOT
BRANCH   1   7
ATOM      7  O   LIG d   1       3.550  87.028 116.653  0.00  0.00    -0.368 OA
BRANCH   7   8
ATOM      8  C   LIG d   1       2.827  87.558 117.790  0.00  0.00     0.119 C 
BRANCH   8   9
ATOM      9  C   LIG d   1       1.485  86.804 117.878  0.00  0.00     0.028 C 
ATOM     10  C   LIG d   1       0.289  87.687 117.485  0.00  0.00     0.006 C 
ENDBRANCH   8   9
BRANCH   8  11
ATOM     11  C   LIG d   1       2.452  89.028 117.578  0.00  0.00     0.028 C 
ATOM     12  C   LIG d   1       3.145  89.969 118.576  0.00  0.00     0.006 C 
ENDBRANCH   8  11
ENDBRANCH   7   8
ENDBRANCH   1   7
BRANCH   6  13
ATOM     13  N   LIG d   1       5.626  89.113 115.998  0.00  0.00    -0.311 N 
ATOM     14  C   LIG d   1       6.468  88.787 116.977  0.00  0.00     0.210 C 
ATOM     15  C   LIG d   1       6.929  89.958 117.850  0.00  0.00     0.109 C 
ATOM     16  O   LIG d   1       6.902  87.644 117.184  0.00  0.00    -0.276 OA
ATOM     17  H   LIG d   1       5.351  90.069 115.882  0.00  0.00     0.149 HD
ENDBRANCH   6  13
BRANCH   5  18
ATOM     18  N   LIG d   1       6.525  88.734 113.102  0.00  0.00     0.381 N 
ATOM     19  H   LIG d   1       6.660  89.651 112.725  0.00  0.00    -0.090 HD
ATOM     20  H   LIG d   1       6.686  88.065 112.371  0.00  0.00    -0.090 HD
ATOM     21  H   LIG d   1       7.162  88.578 113.852  0.00  0.00    -0.090 HD
ENDBRANCH   5  18
BRANCH   3  22
ATOM     22  C   LIG d   1       2.216  86.865 112.164  0.00  0.00     0.382 C 
ATOM     23  O   LIG d   1       1.386  87.704 111.738  0.00  0.00    -0.241 OA
ATOM     24  O   LIG d   1       2.165  85.689 111.756  0.00  0.00    -0.241 OA
ENDBRANCH   3  22
TORSDOF 7
ENDMDL
MODEL 2
REMARK VINA RESULT:      -4.5      6.578      8.837
REMARK  7 active torsions:
REMARK  status: ('A' for Active; 'I' for Inactive)
REMARK    1  A    between atoms: C_2  and  C_3 
REMARK    2  A    between atoms: C_3  and  O_6 
REMARK    3  A    between atoms: C_3  and  C_4 
REMARK    4  A    between atoms: C_7  and  O_6 
REMARK    5  A    between atoms: C_9  and  C_10 
REMARK    6  A    between atoms: N_15  and  C_14 
REMARK    7  A    between atoms: N_20  and  C_19 
REMARK       I    between atoms: C_22  and  N_20 
ROOT
ATOM      1  C   LIG d   1      -2.937  91.186 118.304  0.00  0.00     0.161 C 
ATOM      2  C   LIG d   1      -2.962  92.581 118.138  0.00  0.00     0.016 C 
ATOM      3  C   LIG d   1      -1.808  93.355 117.879  0.00  0.00     0.038 C 
ATOM      4  C   LIG d   1      -0.563  92.765 117.617  0.00  0.00     0.028 C 
ATOM      5  C   LIG d   1      -0.390  91.398 118.271  0.00  0.00    -0.047 C 
ATOM      6  C   LIG d   1      -1.605  90.513 117.911  0.00  0.00     0.091 C 
ENDROOT
BRANCH   1   7
ATOM      7  O   LIG d   1      -4.032  90.588 117.583  0.00  0.00    -0.368 OA
BRANCH   7   8
ATOM      8  C   LIG d   1      -4.874  91.498 116.832  0.00  0.00     0.119 C 
BRANCH   8   9
ATOM      9  C   LIG d   1      -6.153  91.733 117.659  0.00  0.00     0.028 C 
ATOM     10  C   LIG d   1      -6.505  93.225 117.784  0.00  0.00     0.006 C 
ENDBRANCH   8   9
BRANCH   8  11
ATOM     11  C   LIG d   1      -5.348  90.865 115.521  0.00  0.00     0.028 C 
ATOM     12  C   LIG d   1      -6.159  91.838 114.649  0.00  0.00     0.006 C 
ENDBRANCH   8  11
ENDBRANCH   7   8
ENDBRANCH   1   7
BRANCH   6  13
ATOM     13  N   LIG d   1      -1.558  89.186 118.580  0.00  0.00    -0.311 N 
ATOM     14  C   LIG d   1      -0.885  88.144 118.094  0.00  0.00     0.210 C 
ATOM     15  C   LIG d   1      -0.985  86.864 118.930  0.00  0.00     0.109 C 
ATOM     16  O   LIG d   1      -0.190  88.167 117.067  0.00  0.00    -0.276 OA
ATOM     17  H   LIG d   1      -2.069  89.088 119.435  0.00  0.00     0.149 HD
ENDBRANCH   6  13
BRANCH   5  18
ATOM     18  N   LIG d   1       0.892  90.839 117.804  0.00  0.00     0.381 N 
ATOM     19  H   LIG d   1       1.471  90.618 118.589  0.00  0.00    -0.090 HD
ATOM     20  H   LIG d   1       1.365  91.530 117.248  0.00  0.00    -0.090 HD
ATOM     21  H   LIG d   1       0.729  90.020 117.261  0.00  0.00    -0.090 HD
ENDBRANCH   5  18
BRANCH   3  22
ATOM     22  C   LIG d   1      -1.885  94.739 117.920  0.00  0.00     0.382 C 
ATOM     23  O   LIG d   1      -2.618  95.301 118.770  0.00  0.00    -0.241 OA
ATOM     24  O   LIG d   1      -1.266  95.431 117.090  0.00  0.00    -0.241 OA
ENDBRANCH   3  22
TORSDOF 7
ENDMDL
MODEL 3
REMARK VINA RESULT:      -4.4      1.732      4.694
REMARK  7 active torsions:
REMARK  status: ('A' for Active; 'I' for Inactive)
REMARK    1  A    between atoms: C_2  and  C_3 
REMARK    2  A    between atoms: C_3  and  O_6 
REMARK    3  A    between atoms: C_3  and  C_4 
REMARK    4  A    between atoms: C_7  and  O_6 
REMARK    5  A    between atoms: C_9  and  C_10 
REMARK    6  A    between atoms: N_15  and  C_14 
REMARK    7  A    between atoms: N_20  and  C_19 
REMARK       I    between atoms: C_22  and  N_20 
ROOT
ATOM      1  C   LIG d   1       3.711  87.024 116.023  0.00  0.00     0.161 C 
ATOM      2  C   LIG d   1       4.146  87.729 117.158  0.00  0.00     0.016 C 
ATOM      3  C   LIG d   1       4.958  88.885 117.092  0.00  0.00     0.038 C 
ATOM      4  C   LIG d   1       5.268  89.505 115.872  0.00  0.00     0.028 C 
ATOM      5  C   LIG d   1       5.273  88.544 114.688  0.00  0.00    -0.047 C 
ATOM      6  C   LIG d   1       3.947  87.749 114.681  0.00  0.00     0.091 C 
ENDROOT
BRANCH   1   7
ATOM      7  O   LIG d   1       2.320  86.677 116.167  0.00  0.00    -0.368 OA
BRANCH   7   8
ATOM      8  C   LIG d   1       1.737  86.907 117.473  0.00  0.00     0.119 C 
BRANCH   8   9
ATOM      9  C   LIG d   1       1.276  85.542 118.021  0.00  0.00     0.028 C 
ATOM     10  C   LIG d   1       0.034  85.660 118.921  0.00  0.00     0.006 C 
ENDBRANCH   8   9
BRANCH   8  11
ATOM     11  C   LIG d   1       0.466  87.755 117.375  0.00  0.00     0.028 C 
ATOM     12  C   LIG d   1       0.720  89.245 117.650  0.00  0.00     0.006 C 
ENDBRANCH   8  11
ENDBRANCH   7   8
ENDBRANCH   1   7
BRANCH   6  13
ATOM     13  N   LIG d   1       3.905  86.726 113.604  0.00  0.00    -0.311 N 
ATOM     14  C   LIG d   1       3.373  86.948 112.403  0.00  0.00     0.210 C 
ATOM     15  C   LIG d   1       3.415  85.752 111.447  0.00  0.00     0.109 C 
ATOM     16  O   LIG d   1       2.898  88.031 112.029  0.00  0.00    -0.276 OA
ATOM     17  H   LIG d   1       4.296  85.828 113.812  0.00  0.00     0.149 HD
ENDBRANCH   6  13
BRANCH   5  18
ATOM     18  N   LIG d   1       5.474  89.344 113.466  0.00  0.00     0.381 N 
ATOM     19  H   LIG d   1       5.342  90.314 113.670  0.00  0.00    -0.090 HD
ATOM     20  H   LIG d   1       4.791  89.070 112.782  0.00  0.00    -0.090 HD
ATOM     21  H   LIG d   1       6.392  89.194 113.107  0.00  0.00    -0.090 HD
ENDBRANCH   5  18
BRANCH   3  22
ATOM     22  C   LIG d   1       5.502  89.409 118.254  0.00  0.00     0.382 C 
ATOM     23  O   LIG d   1       4.855  90.247 118.928  0.00  0.00    -0.241 OA
ATOM     24  O   LIG d   1       6.651  89.088 118.615  0.00  0.00    -0.241 OA
ENDBRANCH   3  22
TORSDOF 7
ENDMDL
MODEL 4
REMARK VINA RESULT:      -4.4      1.865      4.728
REMARK  7 active torsions:
REMARK  status: ('A' for Active; 'I' for Inactive)
REMARK    1  A    between atoms: C_2  and  C_3 
REMARK    2  A    between atoms: C_3  and  O_6 
REMARK    3  A    between atoms: C_3  and  C_4 
REMARK    4  A    between atoms: C_7  and  O_6 
REMARK    5  A    between atoms: C_9  and  C_10 
REMARK    6  A    between atoms: N_15  and  C_14 
REMARK    7  A    between atoms: N_20  and  C_19 
REMARK       I    between atoms: C_22  and  N_20 
ROOT
ATOM      1  C   LIG d   1       2.593  86.883 115.489  0.00  0.00     0.161 C 
ATOM      2  C   LIG d   1       3.719  87.286 116.226  0.00  0.00     0.016 C 
ATOM      3  C   LIG d   1       4.959  87.619 115.635  0.00  0.00     0.038 C 
ATOM      4  C   LIG d   1       5.114  87.719 114.244  0.00  0.00     0.028 C 
ATOM      5  C   LIG d   1       4.149  86.833 113.462  0.00  0.00    -0.047 C 
ATOM      6  C   LIG d   1       2.710  87.093 113.964  0.00  0.00     0.091 C 
ENDROOT
BRANCH   1   7
ATOM      7  O   LIG d   1       1.416  87.541 115.996  0.00  0.00    -0.368 OA
BRANCH   7   8
ATOM      8  C   LIG d   1       1.514  88.078 117.338  0.00  0.00     0.119 C 
BRANCH   8   9
ATOM      9  C   LIG d   1       0.417  87.407 118.186  0.00  0.00     0.028 C 
ATOM     10  C   LIG d   1      -0.859  88.262 118.280  0.00  0.00     0.006 C 
ENDBRANCH   8   9
BRANCH   8  11
ATOM     11  C   LIG d   1       1.188  89.575 117.365  0.00  0.00     0.028 C 
ATOM     12  C   LIG d   1       2.424  90.449 117.628  0.00  0.00     0.006 C 
ENDBRANCH   8  11
ENDBRANCH   7   8
ENDBRANCH   1   7
BRANCH   6  13
ATOM     13  N   LIG d   1       1.713  86.206 113.310  0.00  0.00    -0.311 N 
ATOM     14  C   LIG d   1       0.997  86.567 112.247  0.00  0.00     0.210 C 
ATOM     15  C   LIG d   1       0.011  85.509 111.742  0.00  0.00     0.109 C 
ATOM     16  O   LIG d   1       1.108  87.651 111.654  0.00  0.00    -0.276 OA
ATOM     17  H   LIG d   1       1.582  85.297 113.708  0.00  0.00     0.149 HD
ENDBRANCH   6  13
BRANCH   5  18
ATOM     18  N   LIG d   1       4.325  87.138 112.030  0.00  0.00     0.381 N 
ATOM     19  H   LIG d   1       4.912  87.942 111.924  0.00  0.00    -0.090 HD
ATOM     20  H   LIG d   1       3.428  87.347 111.629  0.00  0.00    -0.090 HD
ATOM     21  H   LIG d   1       4.732  86.358 111.563  0.00  0.00    -0.090 HD
ENDBRANCH   5  18
BRANCH   3  22
ATOM     22  C   LIG d   1       6.072  87.818 116.437  0.00  0.00     0.382 C 
ATOM     23  O   LIG d   1       5.959  88.433 117.525  0.00  0.00    -0.241 OA
ATOM     24  O   LIG d   1       7.196  87.430 116.066  0.00  0.00    -0.241 OA
ENDBRANCH   3  22
TORSDOF 7
ENDMDL
MODEL 5
REMARK VINA RESULT:      -4.4      2.242      4.550
REMARK  7 active torsions:
REMARK  status: ('A' for Active; 'I' for Inactive)
REMARK    1  A    between atoms: C_2  and  C_3 
REMARK    2  A    between atoms: C_3  and  O_6 
REMARK    3  A    between atoms: C_3  and  C_4 
REMARK    4  A    between atoms: C_7  and  O_6 
REMARK    5  A    between atoms: C_9  and  C_10 
REMARK    6  A    between atoms: N_15  and  C_14 
REMARK    7  A    between atoms: N_20  and  C_19 
REMARK       I    between atoms: C_22  and  N_20 
ROOT
ATOM      1  C   LIG d   1       3.667  87.199 116.483  0.00  0.00     0.161 C 
ATOM      2  C   LIG d   1       2.531  88.026 116.461  0.00  0.00     0.016 C 
ATOM      3  C   LIG d   1       2.483  89.298 117.075  0.00  0.00     0.038 C 
ATOM      4  C   LIG d   1       3.625  89.899 117.627  0.00  0.00     0.028 C 
ATOM      5  C   LIG d   1       4.661  88.893 118.117  0.00  0.00    -0.047 C 
ATOM      6  C   LIG d   1       4.956  87.883 116.984  0.00  0.00     0.091 C 
ENDROOT
BRANCH   1   7
ATOM      7  O   LIG d   1       3.879  86.626 115.178  0.00  0.00    -0.368 OA
BRANCH   7   8
ATOM      8  C   LIG d   1       3.498  87.451 114.049  0.00  0.00     0.119 C 
BRANCH   8   9
ATOM      9  C   LIG d   1       2.572  86.608 113.151  0.00  0.00     0.028 C 
ATOM     10  C   LIG d   1       3.121  86.456 111.722  0.00  0.00     0.006 C 
ENDBRANCH   8   9
BRANCH   8  11
ATOM     11  C   LIG d   1       4.708  87.794 113.176  0.00  0.00     0.028 C 
ATOM     12  C   LIG d   1       5.390  89.107 113.592  0.00  0.00     0.006 C 
ENDBRANCH   8  11
ENDBRANCH   7   8
ENDBRANCH   1   7
BRANCH   6  13
ATOM     13  N   LIG d   1       5.897  86.814 117.408  0.00  0.00    -0.311 N 
ATOM     14  C   LIG d   1       7.071  86.595 116.819  0.00  0.00     0.210 C 
ATOM     15  C   LIG d   1       7.879  85.430 117.399  0.00  0.00     0.109 C 
ATOM     16  O   LIG d   1       7.535  87.276 115.892  0.00  0.00    -0.276 OA
ATOM     17  H   LIG d   1       5.614  86.234 118.174  0.00  0.00     0.149 HD
ENDBRANCH   6  13
BRANCH   5  18
ATOM     18  N   LIG d   1       5.854  89.651 118.540  0.00  0.00     0.381 N 
ATOM     19  H   LIG d   1       6.648  89.044 118.570  0.00  0.00    -0.090 HD
ATOM     20  H   LIG d   1       5.698  90.014 119.464  0.00  0.00    -0.090 HD
ATOM     21  H   LIG d   1       6.023  90.401 117.906  0.00  0.00    -0.090 HD
ENDBRANCH   5  18
BRANCH   3  22
ATOM     22  C   LIG d   1       1.273  89.968 117.176  0.00  0.00     0.382 C 
ATOM     23  O   LIG d   1       1.256  91.203 117.393  0.00  0.00    -0.241 OA
ATOM     24  O   LIG d   1       0.198  89.344 117.098  0.00  0.00    -0.241 OA
ENDBRANCH   3  22
TORSDOF 7
ENDMDL
MODEL 6
REMARK VINA RESULT:      -4.1      9.537     11.941
REMARK  7 active torsions:
REMARK  status: ('A' for Active; 'I' for Inactive)
REMARK    1  A    between atoms: C_2  and  C_3 
REMARK    2  A    between atoms: C_3  and  O_6 
REMARK    3  A    between atoms: C_3  and  C_4 
REMARK    4  A    between atoms: C_7  and  O_6 
REMARK    5  A    between atoms: C_9  and  C_10 
REMARK    6  A    between atoms: N_15  and  C_14 
REMARK    7  A    between atoms: N_20  and  C_19 
REMARK       I    between atoms: C_22  and  N_20 
ROOT
ATOM      1  C   LIG d   1      -6.415  91.768 117.984  0.00  0.00     0.161 C 
ATOM      2  C   LIG d   1      -7.455  92.712 117.947  0.00  0.00     0.016 C 
ATOM      3  C   LIG d   1      -7.267  94.088 118.209  0.00  0.00     0.038 C 
ATOM      4  C   LIG d   1      -5.990  94.642 118.380  0.00  0.00     0.028 C 
ATOM      5  C   LIG d   1      -4.967  93.651 118.925  0.00  0.00    -0.047 C 
ATOM      6  C   LIG d   1      -4.997  92.372 118.058  0.00  0.00     0.091 C 
ENDROOT
BRANCH   1   7
ATOM      7  O   LIG d   1      -6.522  90.878 116.855  0.00  0.00    -0.368 OA
BRANCH   7   8
ATOM      8  C   LIG d   1      -7.683  91.062 116.006  0.00  0.00     0.119 C 
BRANCH   8   9
ATOM      9  C   LIG d   1      -8.430  89.716 115.946  0.00  0.00     0.028 C 
ATOM     10  C   LIG d   1      -9.487  89.681 114.829  0.00  0.00     0.006 C 
ENDBRANCH   8   9
BRANCH   8  11
ATOM     11  C   LIG d   1      -7.274  91.364 114.562  0.00  0.00     0.028 C 
ATOM     12  C   LIG d   1      -5.848  91.927 114.451  0.00  0.00     0.006 C 
ENDBRANCH   8  11
ENDBRANCH   7   8
ENDBRANCH   1   7
BRANCH   6  13
ATOM     13  N   LIG d   1      -4.086  91.317 118.573  0.00  0.00    -0.311 N 
ATOM     14  C   LIG d   1      -3.328  90.554 117.787  0.00  0.00     0.210 C 
ATOM     15  C   LIG d   1      -2.476  89.514 118.521  0.00  0.00     0.109 C 
ATOM     16  O   LIG d   1      -3.256  90.663 116.554  0.00  0.00    -0.276 OA
ATOM     17  H   LIG d   1      -4.059  91.182 119.565  0.00  0.00     0.149 HD
ENDBRANCH   6  13
BRANCH   5  18
ATOM     18  N   LIG d   1      -3.652  94.321 118.922  0.00  0.00     0.381 N 
ATOM     19  H   LIG d   1      -2.933  93.654 118.724  0.00  0.00    -0.090 HD
ATOM     20  H   LIG d   1      -3.482  94.706 119.835  0.00  0.00    -0.090 HD
ATOM     21  H   LIG d   1      -3.640  95.046 118.240  0.00  0.00    -0.090 HD
ENDBRANCH   5  18
BRANCH   3  22
ATOM     22  C   LIG d   1      -8.369  94.919 118.343  0.00  0.00     0.382 C 
ATOM     23  O   LIG d   1      -8.252  96.026 118.922  0.00  0.00    -0.241 OA
ATOM     24  O   LIG d   1      -9.487  94.557 117.932  0.00  0.00    -0.241 OA
ENDBRANCH   3  22
TORSDOF 7
ENDMDL
MODEL 7
REMARK VINA RESULT:      -4.0      1.838      2.344
REMARK  7 active torsions:
REMARK  status: ('A' for Active; 'I' for Inactive)
REMARK    1  A    between atoms: C_2  and  C_3 
REMARK    2  A    between atoms: C_3  and  O_6 
REMARK    3  A    between atoms: C_3  and  C_4 
REMARK    4  A    between atoms: C_7  and  O_6 
REMARK    5  A    between atoms: C_9  and  C_10 
REMARK    6  A    between atoms: N_15  and  C_14 
REMARK    7  A    between atoms: N_20  and  C_19 
REMARK       I    between atoms: C_22  and  N_20 
ROOT
ATOM      1  C   LIG d   1       2.754  88.288 116.733  0.00  0.00     0.161 C 
ATOM      2  C   LIG d   1       2.356  87.695 115.523  0.00  0.00     0.016 C 
ATOM      3  C   LIG d   1       3.265  87.282 114.522  0.00  0.00     0.038 C 
ATOM      4  C   LIG d   1       4.652  87.296 114.730  0.00  0.00     0.028 C 
ATOM      5  C   LIG d   1       5.104  88.353 115.732  0.00  0.00    -0.047 C 
ATOM      6  C   LIG d   1       4.267  88.210 117.024  0.00  0.00     0.091 C 
ENDROOT
BRANCH   1   7
ATOM      7  O   LIG d   1       2.003  87.721 117.825  0.00  0.00    -0.368 OA
BRANCH   7   8
ATOM      8  C   LIG d   1       0.934  88.541 118.358  0.00  0.00     0.119 C 
BRANCH   8   9
ATOM      9  C   LIG d   1      -0.397  87.948 117.857  0.00  0.00     0.028 C 
ATOM     10  C   LIG d   1      -1.587  88.341 118.749  0.00  0.00     0.006 C 
ENDBRANCH   8   9
BRANCH   8  11
ATOM     11  C   LIG d   1       0.986  89.962 117.788  0.00  0.00     0.028 C 
ATOM     12  C   LIG d   1       0.945  91.043 118.880  0.00  0.00     0.006 C 
ENDBRANCH   8  11
ENDBRANCH   7   8
ENDBRANCH   1   7
BRANCH   6  13
ATOM     13  N   LIG d   1       4.587  89.260 118.026  0.00  0.00    -0.311 N 
ATOM     14  C   LIG d   1       4.544  90.564 117.761  0.00  0.00     0.210 C 
ATOM     15  C   LIG d   1       4.930  91.475 118.930  0.00  0.00     0.109 C 
ATOM     16  O   LIG d   1       4.192  91.054 116.677  0.00  0.00    -0.276 OA
ATOM     17  H   LIG d   1       4.852  88.951 118.941  0.00  0.00     0.149 HD
ENDBRANCH   6  13
BRANCH   5  18
ATOM     18  N   LIG d   1       6.550  88.166 115.957  0.00  0.00     0.381 N 
ATOM     19  H   LIG d   1       7.065  88.562 115.196  0.00  0.00    -0.090 HD
ATOM     20  H   LIG d   1       6.748  87.181 115.993  0.00  0.00    -0.090 HD
ATOM     21  H   LIG d   1       6.821  88.598 116.812  0.00  0.00    -0.090 HD
ENDBRANCH   5  18
BRANCH   3  22
ATOM     22  C   LIG d   1       2.789  86.885 113.282  0.00  0.00     0.382 C 
ATOM     23  O   LIG d   1       3.049  85.737 112.849  0.00  0.00    -0.241 OA
ATOM     24  O   LIG d   1       2.140  87.677 112.572  0.00  0.00    -0.241 OA
ENDBRANCH   3  22
TORSDOF 7
ENDMDL
MODEL 8
REMARK VINA RESULT:      -3.9      9.425     12.086
REMARK  7 active torsions:
REMARK  status: ('A' for Active; 'I' for Inactive)
REMARK    1  A    between atoms: C_2  and  C_3 
REMARK    2  A    between atoms: C_3  and  O_6 
REMARK    3  A    between atoms: C_3  and  C_4 
REMARK    4  A    between atoms: C_7  and  O_6 
REMARK    5  A    between atoms: C_9  and  C_10 
REMARK    6  A    between atoms: N_15  and  C_14 
REMARK    7  A    between atoms: N_20  and  C_19 
REMARK       I    between atoms: C_22  and  N_20 
ROOT
ATOM      1  C   LIG d   1      -6.497  91.762 118.150  0.00  0.00     0.161 C 
ATOM      2  C   LIG d   1      -5.255  92.148 118.680  0.00  0.00     0.016 C 
ATOM      3  C   LIG d   1      -4.034  92.016 117.978  0.00  0.00     0.038 C 
ATOM      4  C   LIG d   1      -3.992  91.627 116.631  0.00  0.00     0.028 C 
ATOM      5  C   LIG d   1      -5.167  90.748 116.217  0.00  0.00    -0.047 C 
ATOM      6  C   LIG d   1      -6.484  91.438 116.641  0.00  0.00     0.091 C 
ENDROOT
BRANCH   1   7
ATOM      7  O   LIG d   1      -7.486  92.770 118.437  0.00  0.00    -0.368 OA
BRANCH   7   8
ATOM      8  C   LIG d   1      -7.270  94.067 117.828  0.00  0.00     0.119 C 
BRANCH   8   9
ATOM      9  C   LIG d   1      -6.757  95.016 118.929  0.00  0.00     0.028 C 
ATOM     10  C   LIG d   1      -5.454  95.728 118.530  0.00  0.00     0.006 C 
ENDBRANCH   8   9
BRANCH   8  11
ATOM     11  C   LIG d   1      -8.586  94.681 117.344  0.00  0.00     0.028 C 
ATOM     12  C   LIG d   1      -9.431  95.259 118.490  0.00  0.00     0.006 C 
ENDBRANCH   8  11
ENDBRANCH   7   8
ENDBRANCH   1   7
BRANCH   6  13
ATOM     13  N   LIG d   1      -7.680  90.606 116.349  0.00  0.00    -0.311 N 
ATOM     14  C   LIG d   1      -8.207  90.480 115.132  0.00  0.00     0.210 C 
ATOM     15  C   LIG d   1      -9.451  89.590 115.055  0.00  0.00     0.109 C 
ATOM     16  O   LIG d   1      -7.743  90.996 114.104  0.00  0.00    -0.276 OA
ATOM     17  H   LIG d   1      -8.102  90.127 117.121  0.00  0.00     0.149 HD
ENDBRANCH   6  13
BRANCH   5  18
ATOM     18  N   LIG d   1      -5.071  90.530 114.762  0.00  0.00     0.381 N 
ATOM     19  H   LIG d   1      -5.083  91.410 114.286  0.00  0.00    -0.090 HD
ATOM     20  H   LIG d   1      -5.867  89.997 114.459  0.00  0.00    -0.090 HD
ATOM     21  H   LIG d   1      -4.232  90.039 114.545  0.00  0.00    -0.090 HD
ENDBRANCH   5  18
BRANCH   3  22
ATOM     22  C   LIG d   1      -2.835  92.238 118.637  0.00  0.00     0.382 C 
ATOM     23  O   LIG d   1      -2.474  93.410 118.906  0.00  0.00    -0.241 OA
ATOM     24  O   LIG d   1      -2.088  91.285 118.928  0.00  0.00    -0.241 OA
ENDBRANCH   3  22
TORSDOF 7
ENDMDL
MODEL 9
REMARK VINA RESULT:      -3.6      9.394     11.973
REMARK  7 active torsions:
REMARK  status: ('A' for Active; 'I' for Inactive)
REMARK    1  A    between atoms: C_2  and  C_3 
REMARK    2  A    between atoms: C_3  and  O_6 
REMARK    3  A    between atoms: C_3  and  C_4 
REMARK    4  A    between atoms: C_7  and  O_6 
REMARK    5  A    between atoms: C_9  and  C_10 
REMARK    6  A    between atoms: N_15  and  C_14 
REMARK    7  A    between atoms: N_20  and  C_19 
REMARK       I    between atoms: C_22  and  N_20 
ROOT
ATOM      1  C   LIG d   1      -6.496  91.908 117.475  0.00  0.00     0.161 C 
ATOM      2  C   LIG d   1      -5.260  92.293 118.019  0.00  0.00     0.016 C 
ATOM      3  C   LIG d   1      -4.015  91.874 117.497  0.00  0.00     0.038 C 
ATOM      4  C   LIG d   1      -3.918  91.157 116.295  0.00  0.00     0.028 C 
ATOM      5  C   LIG d   1      -5.155  90.320 115.989  0.00  0.00    -0.047 C 
ATOM      6  C   LIG d   1      -6.409  91.217 116.098  0.00  0.00     0.091 C 
ENDROOT
BRANCH   1   7
ATOM      7  O   LIG d   1      -7.378  93.046 117.410  0.00  0.00    -0.368 OA
BRANCH   7   8
ATOM      8  C   LIG d   1      -7.482  93.841 118.616  0.00  0.00     0.119 C 
BRANCH   8   9
ATOM      9  C   LIG d   1      -8.981  94.030 118.918  0.00  0.00     0.028 C 
ATOM     10  C   LIG d   1      -9.434  95.490 118.752  0.00  0.00     0.006 C 
ENDBRANCH   8   9
BRANCH   8  11
ATOM     11  C   LIG d   1      -6.931  95.254 118.401  0.00  0.00     0.028 C 
ATOM     12  C   LIG d   1      -5.494  95.419 118.920  0.00  0.00     0.006 C 
ENDBRANCH   8  11
ENDBRANCH   7   8
ENDBRANCH   1   7
BRANCH   6  13
ATOM     13  N   LIG d   1      -7.669  90.456 115.895  0.00  0.00    -0.311 N 
ATOM     14  C   LIG d   1      -8.322  90.415 114.735  0.00  0.00     0.210 C 
ATOM     15  C   LIG d   1      -9.612  89.589 114.748  0.00  0.00     0.109 C 
ATOM     16  O   LIG d   1      -7.939  90.957 113.688  0.00  0.00    -0.276 OA
ATOM     17  H   LIG d   1      -8.035  89.961 116.685  0.00  0.00     0.149 HD
ENDBRANCH   6  13
BRANCH   5  18
ATOM     18  N   LIG d   1      -4.976  89.736 114.646  0.00  0.00     0.381 N 
ATOM     19  H   LIG d   1      -5.049  90.454 113.952  0.00  0.00    -0.090 HD
ATOM     20  H   LIG d   1      -5.707  89.066 114.483  0.00  0.00    -0.090 HD
ATOM     21  H   LIG d   1      -4.087  89.292 114.582  0.00  0.00    -0.090 HD
ENDBRANCH   5  18
BRANCH   3  22
ATOM     22  C   LIG d   1      -2.850  92.138 118.202  0.00  0.00     0.382 C 
ATOM     23  O   LIG d   1      -2.554  93.319 118.504  0.00  0.00    -0.241 OA
ATOM     24  O   LIG d   1      -2.069  91.215 118.501  0.00  0.00    -0.241 OA
ENDBRANCH   3  22
TORSDOF 7
ENDMDL
