MODEL 1
REMARK VINA RESULT:      -5.1      0.000      0.000
REMARK  7 active torsions:
REMARK  status: ('A' for Active; 'I' for Inactive)
REMARK    1  A    between atoms: C_2  and  C_3 
REMARK    2  A    between atoms: C_3  and  O_6 
REMARK    3  A    between atoms: C_3  and  C_4 
REMARK    4  A    between atoms: C_7  and  O_6 
REMARK    5  A    between atoms: C_9  and  C_10 
REMARK    6  A    between atoms: N_15  and  C_14 
REMARK    7  A    between atoms: N_20  and  C_19 
REMARK       I    between atoms: C_22  and  N_20 
ROOT
ATOM      1  C   LIG d   1       1.789  87.553 115.019  0.00  0.00     0.161 C 
ATOM      2  C   LIG d   1       0.587  87.262 115.686  0.00  0.00     0.016 C 
ATOM      3  C   LIG d   1      -0.009  88.130 116.630  0.00  0.00     0.038 C 
ATOM      4  C   LIG d   1       0.481  89.424 116.861  0.00  0.00     0.028 C 
ATOM      5  C   LIG d   1       1.975  89.564 116.585  0.00  0.00    -0.047 C 
ATOM      6  C   LIG d   1       2.279  89.008 115.175  0.00  0.00     0.091 C 
ENDROOT
BRANCH   1   7
ATOM      7  O   LIG d   1       1.668  87.212 113.624  0.00  0.00    -0.368 OA
BRANCH   7   8
ATOM      8  C   LIG d   1       1.923  85.827 113.282  0.00  0.00     0.119 C 
BRANCH   8   9
ATOM      9  C   LIG d   1       3.426  85.697 112.968  0.00  0.00     0.028 C 
ATOM     10  C   LIG d   1       3.859  86.589 111.793  0.00  0.00     0.006 C 
ENDBRANCH   8   9
BRANCH   8  11
ATOM     11  C   LIG d   1       1.203  85.430 111.990  0.00  0.00     0.028 C 
ATOM     12  C   LIG d   1      -0.307  85.715 112.038  0.00  0.00     0.006 C 
ENDBRANCH   8  11
ENDBRANCH   7   8
ENDBRANCH   1   7
BRANCH   6  13
ATOM     13  N   LIG d   1       3.731  89.030 114.858  0.00  0.00    -0.311 N 
ATOM     14  C   LIG d   1       4.240  89.651 113.796  0.00  0.00     0.210 C 
ATOM     15  C   LIG d   1       5.760  89.533 113.645  0.00  0.00     0.109 C 
ATOM     16  O   LIG d   1       3.581  90.316 112.982  0.00  0.00    -0.276 OA
ATOM     17  H   LIG d   1       4.341  88.541 115.484  0.00  0.00     0.149 HD
ENDBRANCH   6  13
BRANCH   5  18
ATOM     18  N   LIG d   1       2.323  90.990 116.732  0.00  0.00     0.381 N 
ATOM     19  H   LIG d   1       1.659  91.441 117.330  0.00  0.00    -0.090 HD
ATOM     20  H   LIG d   1       2.283  91.429 115.829  0.00  0.00    -0.090 HD
ATOM     21  H   LIG d   1       3.239  91.079 117.113  0.00  0.00    -0.090 HD
ENDBRANCH   5  18
BRANCH   3  22
ATOM     22  C   LIG d   1      -1.085  87.689 117.385  0.00  0.00     0.382 C 
ATOM     23  O   LIG d   1      -0.959  86.691 118.135  0.00  0.00    -0.241 OA
ATOM     24  O   LIG d   1      -2.194  88.250 117.292  0.00  0.00    -0.241 OA
ENDBRANCH   3  22
TORSDOF 7
ENDMDL
MODEL 2
REMARK VINA RESULT:      -4.6      3.153      5.730
REMARK  7 active torsions:
REMARK  status: ('A' for Active; 'I' for Inactive)
REMARK    1  A    between atoms: C_2  and  C_3 
REMARK    2  A    between atoms: C_3  and  O_6 
REMARK    3  A    between atoms: C_3  and  C_4 
REMARK    4  A    between atoms: C_7  and  O_6 
REMARK    5  A    between atoms: C_9  and  C_10 
REMARK    6  A    between atoms: N_15  and  C_14 
REMARK    7  A    between atoms: N_20  and  C_19 
REMARK       I    between atoms: C_22  and  N_20 
ROOT
ATOM      1  C   LIG d   1       4.672  87.809 116.002  0.00  0.00     0.161 C 
ATOM      2  C   LIG d   1       5.568  88.242 116.994  0.00  0.00     0.016 C 
ATOM      3  C   LIG d   1       6.658  89.104 116.735  0.00  0.00     0.038 C 
ATOM      4  C   LIG d   1       6.840  89.715 115.485  0.00  0.00     0.028 C 
ATOM      5  C   LIG d   1       6.256  88.913 114.328  0.00  0.00    -0.047 C 
ATOM      6  C   LIG d   1       4.789  88.554 114.655  0.00  0.00     0.091 C 
ENDROOT
BRANCH   1   7
ATOM      7  O   LIG d   1       3.321  87.880 116.498  0.00  0.00    -0.368 OA
BRANCH   7   8
ATOM      8  C   LIG d   1       2.614  89.119 116.247  0.00  0.00     0.119 C 
BRANCH   8   9
ATOM      9  C   LIG d   1       2.651  89.945 117.547  0.00  0.00     0.028 C 
ATOM     10  C   LIG d   1       3.386  91.285 117.370  0.00  0.00     0.006 C 
ENDBRANCH   8   9
BRANCH   8  11
ATOM     11  C   LIG d   1       1.129  88.867 115.970  0.00  0.00     0.028 C 
ATOM     12  C   LIG d   1       0.843  87.426 115.518  0.00  0.00     0.006 C 
ENDBRANCH   8  11
ENDBRANCH   7   8
ENDBRANCH   1   7
BRANCH   6  13
ATOM     13  N   LIG d   1       4.168  87.696 113.612  0.00  0.00    -0.311 N 
ATOM     14  C   LIG d   1       3.242  88.132 112.760  0.00  0.00     0.210 C 
ATOM     15  C   LIG d   1       2.720  87.079 111.778  0.00  0.00     0.109 C 
ATOM     16  O   LIG d   1       2.826  89.299 112.704  0.00  0.00    -0.276 OA
ATOM     17  H   LIG d   1       4.470  86.743 113.566  0.00  0.00     0.149 HD
ENDBRANCH   6  13
BRANCH   5  18
ATOM     18  N   LIG d   1       6.393  89.728 113.106  0.00  0.00     0.381 N 
ATOM     19  H   LIG d   1       5.766  89.392 112.402  0.00  0.00    -0.090 HD
ATOM     20  H   LIG d   1       7.332  89.641 112.760  0.00  0.00    -0.090 HD
ATOM     21  H   LIG d   1       6.193  90.683 113.310  0.00  0.00    -0.090 HD
ENDBRANCH   5  18
BRANCH   3  22
ATOM     22  C   LIG d   1       7.605  89.330 117.723  0.00  0.00     0.382 C 
ATOM     23  O   LIG d   1       8.782  88.926 117.567  0.00  0.00    -0.241 OA
ATOM     24  O   LIG d   1       7.285  89.894 118.786  0.00  0.00    -0.241 OA
ENDBRANCH   3  22
TORSDOF 7
ENDMDL
MODEL 3
REMARK VINA RESULT:      -4.6      2.852      5.729
REMARK  7 active torsions:
REMARK  status: ('A' for Active; 'I' for Inactive)
REMARK    1  A    between atoms: C_2  and  C_3 
REMARK    2  A    between atoms: C_3  and  O_6 
REMARK    3  A    between atoms: C_3  and  C_4 
REMARK    4  A    between atoms: C_7  and  O_6 
REMARK    5  A    between atoms: C_9  and  C_10 
REMARK    6  A    between atoms: N_15  and  C_14 
REMARK    7  A    between atoms: N_20  and  C_19 
REMARK       I    between atoms: C_22  and  N_20 
ROOT
ATOM      1  C   LIG d   1       3.931  90.055 114.627  0.00  0.00     0.161 C 
ATOM      2  C   LIG d   1       3.396  89.365 113.526  0.00  0.00     0.016 C 
ATOM      3  C   LIG d   1       3.549  87.973 113.332  0.00  0.00     0.038 C 
ATOM      4  C   LIG d   1       4.121  87.146 114.310  0.00  0.00     0.028 C 
ATOM      5  C   LIG d   1       5.122  87.870 115.205  0.00  0.00    -0.047 C 
ATOM      6  C   LIG d   1       4.462  89.153 115.760  0.00  0.00     0.091 C 
ENDROOT
BRANCH   1   7
ATOM      7  O   LIG d   1       2.956  90.984 115.142  0.00  0.00    -0.368 OA
BRANCH   7   8
ATOM      8  C   LIG d   1       2.272  90.583 116.355  0.00  0.00     0.119 C 
BRANCH   8   9
ATOM      9  C   LIG d   1       0.871  90.083 115.954  0.00  0.00     0.028 C 
ATOM     10  C   LIG d   1       0.726  88.560 116.103  0.00  0.00     0.006 C 
ENDBRANCH   8   9
BRANCH   8  11
ATOM     11  C   LIG d   1       2.027  91.781 117.278  0.00  0.00     0.028 C 
ATOM     12  C   LIG d   1       3.167  92.810 117.234  0.00  0.00     0.006 C 
ENDBRANCH   8  11
ENDBRANCH   7   8
ENDBRANCH   1   7
BRANCH   6  13
ATOM     13  N   LIG d   1       5.401  89.964 116.578  0.00  0.00    -0.311 N 
ATOM     14  C   LIG d   1       5.480  89.877 117.905  0.00  0.00     0.210 C 
ATOM     15  C   LIG d   1       6.500  90.817 118.555  0.00  0.00     0.109 C 
ATOM     16  O   LIG d   1       4.825  89.088 118.602  0.00  0.00    -0.276 OA
ATOM     17  H   LIG d   1       5.992  90.608 116.090  0.00  0.00     0.149 HD
ENDBRANCH   6  13
BRANCH   5  18
ATOM     18  N   LIG d   1       5.536  86.929 116.262  0.00  0.00     0.381 N 
ATOM     19  H   LIG d   1       6.482  87.115 116.530  0.00  0.00    -0.090 HD
ATOM     20  H   LIG d   1       5.490  85.992 115.900  0.00  0.00    -0.090 HD
ATOM     21  H   LIG d   1       4.935  87.017 117.052  0.00  0.00    -0.090 HD
ENDBRANCH   5  18
BRANCH   3  22
ATOM     22  C   LIG d   1       3.161  87.401 112.130  0.00  0.00     0.382 C 
ATOM     23  O   LIG d   1       2.276  87.950 111.430  0.00  0.00    -0.241 OA
ATOM     24  O   LIG d   1       3.655  86.319 111.757  0.00  0.00    -0.241 OA
ENDBRANCH   3  22
TORSDOF 7
ENDMDL
MODEL 4
REMARK VINA RESULT:      -4.5      2.484      4.536
REMARK  7 active torsions:
REMARK  status: ('A' for Active; 'I' for Inactive)
REMARK    1  A    between atoms: C_2  and  C_3 
REMARK    2  A    between atoms: C_3  and  O_6 
REMARK    3  A    between atoms: C_3  and  C_4 
REMARK    4  A    between atoms: C_7  and  O_6 
REMARK    5  A    between atoms: C_9  and  C_10 
REMARK    6  A    between atoms: N_15  and  C_14 
REMARK    7  A    between atoms: N_20  and  C_19 
REMARK       I    between atoms: C_22  and  N_20 
ROOT
ATOM      1  C   LIG d   1       2.306  89.537 115.063  0.00  0.00     0.161 C 
ATOM      2  C   LIG d   1       2.566  90.791 115.641  0.00  0.00     0.016 C 
ATOM      3  C   LIG d   1       1.897  91.273 116.789  0.00  0.00     0.038 C 
ATOM      4  C   LIG d   1       1.022  90.465 117.531  0.00  0.00     0.028 C 
ATOM      5  C   LIG d   1       0.350  89.378 116.700  0.00  0.00    -0.047 C 
ATOM      6  C   LIG d   1       1.435  88.597 115.923  0.00  0.00     0.091 C 
ENDROOT
BRANCH   1   7
ATOM      7  O   LIG d   1       3.547  88.892 114.715  0.00  0.00    -0.368 OA
BRANCH   7   8
ATOM      8  C   LIG d   1       4.011  89.092 113.358  0.00  0.00     0.119 C 
BRANCH   8   9
ATOM      9  C   LIG d   1       3.284  88.069 112.464  0.00  0.00     0.028 C 
ATOM     10  C   LIG d   1       4.191  86.893 112.061  0.00  0.00     0.006 C 
ENDBRANCH   8   9
BRANCH   8  11
ATOM     11  C   LIG d   1       5.501  88.763 113.224  0.00  0.00     0.028 C 
ATOM     12  C   LIG d   1       6.377  89.557 114.205  0.00  0.00     0.006 C 
ENDBRANCH   8  11
ENDBRANCH   7   8
ENDBRANCH   1   7
BRANCH   6  13
ATOM     13  N   LIG d   1       0.856  87.569 115.019  0.00  0.00    -0.311 N 
ATOM     14  C   LIG d   1       1.349  86.337 114.899  0.00  0.00     0.210 C 
ATOM     15  C   LIG d   1       0.614  85.441 113.898  0.00  0.00     0.109 C 
ATOM     16  O   LIG d   1       2.305  85.892 115.551  0.00  0.00    -0.276 OA
ATOM     17  H   LIG d   1       0.058  87.836 114.476  0.00  0.00     0.149 HD
ENDBRANCH   6  13
BRANCH   5  18
ATOM     18  N   LIG d   1      -0.425  88.527 117.622  0.00  0.00     0.381 N 
ATOM     19  H   LIG d   1      -1.278  88.241 117.184  0.00  0.00    -0.090 HD
ATOM     20  H   LIG d   1      -0.656  89.061 118.441  0.00  0.00    -0.090 HD
ATOM     21  H   LIG d   1       0.109  87.726 117.878  0.00  0.00    -0.090 HD
ENDBRANCH   5  18
BRANCH   3  22
ATOM     22  C   LIG d   1       2.070  92.591 117.183  0.00  0.00     0.382 C 
ATOM     23  O   LIG d   1       3.097  93.220 116.832  0.00  0.00    -0.241 OA
ATOM     24  O   LIG d   1       1.234  93.145 117.921  0.00  0.00    -0.241 OA
ENDBRANCH   3  22
TORSDOF 7
ENDMDL
MODEL 5
REMARK VINA RESULT:      -4.5      2.849      5.545
REMARK  7 active torsions:
REMARK  status: ('A' for Active; 'I' for Inactive)
REMARK    1  A    between atoms: C_2  and  C_3 
REMARK    2  A    between atoms: C_3  and  O_6 
REMARK    3  A    between atoms: C_3  and  C_4 
REMARK    4  A    between atoms: C_7  and  O_6 
REMARK    5  A    between atoms: C_9  and  C_10 
REMARK    6  A    between atoms: N_15  and  C_14 
REMARK    7  A    between atoms: N_20  and  C_19 
REMARK       I    between atoms: C_22  and  N_20 
ROOT
ATOM      1  C   LIG d   1       4.125  88.212 115.479  0.00  0.00     0.161 C 
ATOM      2  C   LIG d   1       3.462  87.581 114.413  0.00  0.00     0.016 C 
ATOM      3  C   LIG d   1       3.896  87.662 113.070  0.00  0.00     0.038 C 
ATOM      4  C   LIG d   1       5.116  88.260 112.720  0.00  0.00     0.028 C 
ATOM      5  C   LIG d   1       5.561  89.344 113.695  0.00  0.00    -0.047 C 
ATOM      6  C   LIG d   1       5.518  88.776 115.132  0.00  0.00     0.091 C 
ENDROOT
BRANCH   1   7
ATOM      7  O   LIG d   1       4.214  87.311 116.601  0.00  0.00    -0.368 OA
BRANCH   7   8
ATOM      8  C   LIG d   1       3.388  87.636 117.746  0.00  0.00     0.119 C 
BRANCH   8   9
ATOM      9  C   LIG d   1       2.234  86.615 117.790  0.00  0.00     0.028 C 
ATOM     10  C   LIG d   1       0.922  87.189 117.230  0.00  0.00     0.006 C 
ENDBRANCH   8   9
BRANCH   8  11
ATOM     11  C   LIG d   1       2.715  89.002 117.579  0.00  0.00     0.028 C 
ATOM     12  C   LIG d   1       3.167  90.022 118.636  0.00  0.00     0.006 C 
ENDBRANCH   8  11
ENDBRANCH   7   8
ENDBRANCH   1   7
BRANCH   6  13
ATOM     13  N   LIG d   1       5.859  89.797 116.156  0.00  0.00    -0.311 N 
ATOM     14  C   LIG d   1       6.983  89.773 116.870  0.00  0.00     0.210 C 
ATOM     15  C   LIG d   1       7.128  90.910 117.886  0.00  0.00     0.109 C 
ATOM     16  O   LIG d   1       7.889  88.937 116.735  0.00  0.00    -0.276 OA
ATOM     17  H   LIG d   1       5.194  90.530 116.308  0.00  0.00     0.149 HD
ENDBRANCH   6  13
BRANCH   5  18
ATOM     18  N   LIG d   1       6.909  89.784 113.287  0.00  0.00     0.381 N 
ATOM     19  H   LIG d   1       7.600  89.213 113.731  0.00  0.00    -0.090 HD
ATOM     20  H   LIG d   1       7.045  90.734 113.586  0.00  0.00    -0.090 HD
ATOM     21  H   LIG d   1       7.002  89.723 112.297  0.00  0.00    -0.090 HD
ENDBRANCH   5  18
BRANCH   3  22
ATOM     22  C   LIG d   1       3.085  87.177 112.056  0.00  0.00     0.382 C 
ATOM     23  O   LIG d   1       3.213  85.991 111.665  0.00  0.00    -0.241 OA
ATOM     24  O   LIG d   1       2.258  87.921 111.496  0.00  0.00    -0.241 OA
ENDBRANCH   3  22
TORSDOF 7
ENDMDL
MODEL 6
REMARK VINA RESULT:      -4.3      2.295      5.202
REMARK  7 active torsions:
REMARK  status: ('A' for Active; 'I' for Inactive)
REMARK    1  A    between atoms: C_2  and  C_3 
REMARK    2  A    between atoms: C_3  and  O_6 
REMARK    3  A    between atoms: C_3  and  C_4 
REMARK    4  A    between atoms: C_7  and  O_6 
REMARK    5  A    between atoms: C_9  and  C_10 
REMARK    6  A    between atoms: N_15  and  C_14 
REMARK    7  A    between atoms: N_20  and  C_19 
REMARK       I    between atoms: C_22  and  N_20 
ROOT
ATOM      1  C   LIG d   1       2.187  90.075 115.326  0.00  0.00     0.161 C 
ATOM      2  C   LIG d   1       3.020  89.543 114.327  0.00  0.00     0.016 C 
ATOM      3  C   LIG d   1       4.416  89.386 114.480  0.00  0.00     0.038 C 
ATOM      4  C   LIG d   1       5.058  89.612 115.707  0.00  0.00     0.028 C 
ATOM      5  C   LIG d   1       4.339  90.628 116.588  0.00  0.00    -0.047 C 
ATOM      6  C   LIG d   1       2.852  90.223 116.710  0.00  0.00     0.091 C 
ENDROOT
BRANCH   1   7
ATOM      7  O   LIG d   1       0.984  89.288 115.429  0.00  0.00    -0.368 OA
BRANCH   7   8
ATOM      8  C   LIG d   1       1.117  88.004 116.089  0.00  0.00     0.119 C 
BRANCH   8   9
ATOM      9  C   LIG d   1       0.566  86.932 115.129  0.00  0.00     0.028 C 
ATOM     10  C   LIG d   1       1.683  86.124 114.448  0.00  0.00     0.006 C 
ENDBRANCH   8   9
BRANCH   8  11
ATOM     11  C   LIG d   1       0.233  87.925 117.337  0.00  0.00     0.028 C 
ATOM     12  C   LIG d   1      -0.870  88.995 117.355  0.00  0.00     0.006 C 
ENDBRANCH   8  11
ENDBRANCH   7   8
ENDBRANCH   1   7
BRANCH   6  13
ATOM     13  N   LIG d   1       2.058  91.211 117.487  0.00  0.00    -0.311 N 
ATOM     14  C   LIG d   1       2.239  92.527 117.402  0.00  0.00     0.210 C 
ATOM     15  C   LIG d   1       1.327  93.365 118.303  0.00  0.00     0.109 C 
ATOM     16  O   LIG d   1       3.046  93.082 116.641  0.00  0.00    -0.276 OA
ATOM     17  H   LIG d   1       1.359  90.848 118.106  0.00  0.00     0.149 HD
ENDBRANCH   6  13
BRANCH   5  18
ATOM     18  N   LIG d   1       5.037  90.665 117.887  0.00  0.00     0.381 N 
ATOM     19  H   LIG d   1       4.368  90.649 118.631  0.00  0.00    -0.090 HD
ATOM     20  H   LIG d   1       5.560  91.520 117.951  0.00  0.00    -0.090 HD
ATOM     21  H   LIG d   1       5.651  89.885 117.966  0.00  0.00    -0.090 HD
ENDBRANCH   5  18
BRANCH   3  22
ATOM     22  C   LIG d   1       5.193  89.037 113.385  0.00  0.00     0.382 C 
ATOM     23  O   LIG d   1       6.278  89.629 113.172  0.00  0.00    -0.241 OA
ATOM     24  O   LIG d   1       4.800  88.167 112.584  0.00  0.00    -0.241 OA
ENDBRANCH   3  22
TORSDOF 7
ENDMDL
MODEL 7
REMARK VINA RESULT:      -4.3      5.981      8.440
REMARK  7 active torsions:
REMARK  status: ('A' for Active; 'I' for Inactive)
REMARK    1  A    between atoms: C_2  and  C_3 
REMARK    2  A    between atoms: C_3  and  O_6 
REMARK    3  A    between atoms: C_3  and  C_4 
REMARK    4  A    between atoms: C_7  and  O_6 
REMARK    5  A    between atoms: C_9  and  C_10 
REMARK    6  A    between atoms: N_15  and  C_14 
REMARK    7  A    between atoms: N_20  and  C_19 
REMARK       I    between atoms: C_22  and  N_20 
ROOT
ATOM      1  C   LIG d   1      -4.937  90.734 117.785  0.00  0.00     0.161 C 
ATOM      2  C   LIG d   1      -5.724  91.888 117.931  0.00  0.00     0.016 C 
ATOM      3  C   LIG d   1      -5.194  93.152 118.278  0.00  0.00     0.038 C 
ATOM      4  C   LIG d   1      -3.812  93.381 118.356  0.00  0.00     0.028 C 
ATOM      5  C   LIG d   1      -3.011  92.133 118.712  0.00  0.00    -0.047 C 
ATOM      6  C   LIG d   1      -3.416  90.987 117.756  0.00  0.00     0.091 C 
ENDROOT
BRANCH   1   7
ATOM      7  O   LIG d   1      -5.347  90.009 116.608  0.00  0.00    -0.368 OA
BRANCH   7   8
ATOM      8  C   LIG d   1      -6.604  90.416 116.014  0.00  0.00     0.119 C 
BRANCH   8   9
ATOM      9  C   LIG d   1      -7.715  89.555 116.648  0.00  0.00     0.028 C 
ATOM     10  C   LIG d   1      -8.820  89.190 115.643  0.00  0.00     0.006 C 
ENDBRANCH   8   9
BRANCH   8  11
ATOM     11  C   LIG d   1      -6.645  90.092 114.518  0.00  0.00     0.028 C 
ATOM     12  C   LIG d   1      -7.326  91.192 113.689  0.00  0.00     0.006 C 
ENDBRANCH   8  11
ENDBRANCH   7   8
ENDBRANCH   1   7
BRANCH   6  13
ATOM     13  N   LIG d   1      -2.740  89.706 118.090  0.00  0.00    -0.311 N 
ATOM     14  C   LIG d   1      -1.560  89.347 117.587  0.00  0.00     0.210 C 
ATOM     15  C   LIG d   1      -1.051  87.977 118.046  0.00  0.00     0.109 C 
ATOM     16  O   LIG d   1      -0.871  90.048 116.830  0.00  0.00    -0.276 OA
ATOM     17  H   LIG d   1      -3.214  89.091 118.721  0.00  0.00     0.149 HD
ENDBRANCH   6  13
BRANCH   5  18
ATOM     18  N   LIG d   1      -1.580  92.482 118.623  0.00  0.00     0.381 N 
ATOM     19  H   LIG d   1      -1.463  93.285 118.038  0.00  0.00    -0.090 HD
ATOM     20  H   LIG d   1      -1.084  91.714 118.208  0.00  0.00    -0.090 HD
ATOM     21  H   LIG d   1      -1.218  92.669 119.532  0.00  0.00    -0.090 HD
ENDBRANCH   5  18
BRANCH   3  22
ATOM     22  C   LIG d   1      -6.053  94.195 118.591  0.00  0.00     0.382 C 
ATOM     23  O   LIG d   1      -7.294  94.037 118.492  0.00  0.00    -0.241 OA
ATOM     24  O   LIG d   1      -5.601  95.306 118.929  0.00  0.00    -0.241 OA
ENDBRANCH   3  22
TORSDOF 7
ENDMDL
MODEL 8
REMARK VINA RESULT:      -4.3      2.801      4.803
REMARK  7 active torsions:
REMARK  status: ('A' for Active; 'I' for Inactive)
REMARK    1  A    between atoms: C_2  and  C_3 
REMARK    2  A    between atoms: C_3  and  O_6 
REMARK    3  A    between atoms: C_3  and  C_4 
REMARK    4  A    between atoms: C_7  and  O_6 
REMARK    5  A    between atoms: C_9  and  C_10 
REMARK    6  A    between atoms: N_15  and  C_14 
REMARK    7  A    between atoms: N_20  and  C_19 
REMARK       I    between atoms: C_22  and  N_20 
ROOT
ATOM      1  C   LIG d   1       3.885  89.357 115.873  0.00  0.00     0.161 C 
ATOM      2  C   LIG d   1       3.561  90.641 116.342  0.00  0.00     0.016 C 
ATOM      3  C   LIG d   1       2.240  91.054 116.632  0.00  0.00     0.038 C 
ATOM      4  C   LIG d   1       1.163  90.155 116.617  0.00  0.00     0.028 C 
ATOM      5  C   LIG d   1       1.366  88.982 115.664  0.00  0.00    -0.047 C 
ATOM      6  C   LIG d   1       2.737  88.330 115.957  0.00  0.00     0.091 C 
ENDROOT
BRANCH   1   7
ATOM      7  O   LIG d   1       5.050  88.864 116.564  0.00  0.00    -0.368 OA
BRANCH   7   8
ATOM      8  C   LIG d   1       6.193  88.540 115.736  0.00  0.00     0.119 C 
BRANCH   8   9
ATOM      9  C   LIG d   1       7.431  88.496 116.652  0.00  0.00     0.028 C 
ATOM     10  C   LIG d   1       8.098  87.110 116.671  0.00  0.00     0.006 C 
ENDBRANCH   8   9
BRANCH   8  11
ATOM     11  C   LIG d   1       6.479  89.652 114.722  0.00  0.00     0.028 C 
ATOM     12  C   LIG d   1       6.359  89.176 113.266  0.00  0.00     0.006 C 
ENDBRANCH   8  11
ENDBRANCH   7   8
ENDBRANCH   1   7
BRANCH   6  13
ATOM     13  N   LIG d   1       3.052  87.225 115.014  0.00  0.00    -0.311 N 
ATOM     14  C   LIG d   1       3.058  87.371 113.690  0.00  0.00     0.210 C 
ATOM     15  C   LIG d   1       3.389  86.101 112.901  0.00  0.00     0.109 C 
ATOM     16  O   LIG d   1       2.852  88.440 113.095  0.00  0.00    -0.276 OA
ATOM     17  H   LIG d   1       3.261  86.331 115.412  0.00  0.00     0.149 HD
ENDBRANCH   6  13
BRANCH   5  18
ATOM     18  N   LIG d   1       0.233  88.055 115.851  0.00  0.00     0.381 N 
ATOM     19  H   LIG d   1      -0.575  88.564 116.148  0.00  0.00    -0.090 HD
ATOM     20  H   LIG d   1       0.470  87.393 116.568  0.00  0.00    -0.090 HD
ATOM     21  H   LIG d   1       0.040  87.578 114.998  0.00  0.00    -0.090 HD
ENDBRANCH   5  18
BRANCH   3  22
ATOM     22  C   LIG d   1       1.981  92.389 116.903  0.00  0.00     0.382 C 
ATOM     23  O   LIG d   1       0.805  92.767 117.122  0.00  0.00    -0.241 OA
ATOM     24  O   LIG d   1       2.902  93.227 116.887  0.00  0.00    -0.241 OA
ENDBRANCH   3  22
TORSDOF 7
ENDMDL
MODEL 9
REMARK VINA RESULT:      -4.2      2.441      6.129
REMARK  7 active torsions:
REMARK  status: ('A' for Active; 'I' for Inactive)
REMARK    1  A    between atoms: C_2  and  C_3 
REMARK    2  A    between atoms: C_3  and  O_6 
REMARK    3  A    between atoms: C_3  and  C_4 
REMARK    4  A    between atoms: C_7  and  O_6 
REMARK    5  A    between atoms: C_9  and  C_10 
REMARK    6  A    between atoms: N_15  and  C_14 
REMARK    7  A    between atoms: N_20  and  C_19 
REMARK       I    between atoms: C_22  and  N_20 
ROOT
ATOM      1  C   LIG d   1       2.902  88.053 116.011  0.00  0.00     0.161 C 
ATOM      2  C   LIG d   1       3.792  88.360 114.968  0.00  0.00     0.016 C 
ATOM      3  C   LIG d   1       3.661  87.847 113.657  0.00  0.00     0.038 C 
ATOM      4  C   LIG d   1       2.538  87.108 113.259  0.00  0.00     0.028 C 
ATOM      5  C   LIG d   1       1.872  86.354 114.405  0.00  0.00    -0.047 C 
ATOM      6  C   LIG d   1       1.609  87.338 115.567  0.00  0.00     0.091 C 
ENDROOT
BRANCH   1   7
ATOM      7  O   LIG d   1       2.585  89.248 116.751  0.00  0.00    -0.368 OA
BRANCH   7   8
ATOM      8  C   LIG d   1       2.328  90.436 115.962  0.00  0.00     0.119 C 
BRANCH   8   9
ATOM      9  C   LIG d   1       3.052  91.612 116.646  0.00  0.00     0.028 C 
ATOM     10  C   LIG d   1       4.199  91.145 117.557  0.00  0.00     0.006 C 
ENDBRANCH   8   9
BRANCH   8  11
ATOM     11  C   LIG d   1       0.842  90.807 115.983  0.00  0.00     0.028 C 
ATOM     12  C   LIG d   1       0.575  92.157 116.668  0.00  0.00     0.006 C 
ENDBRANCH   8  11
ENDBRANCH   7   8
ENDBRANCH   1   7
BRANCH   6  13
ATOM     13  N   LIG d   1       1.036  86.664 116.762  0.00  0.00    -0.311 N 
ATOM     14  C   LIG d   1      -0.157  86.966 117.272  0.00  0.00     0.210 C 
ATOM     15  C   LIG d   1      -0.549  86.165 118.518  0.00  0.00     0.109 C 
ATOM     16  O   LIG d   1      -0.941  87.799 116.793  0.00  0.00    -0.276 OA
ATOM     17  H   LIG d   1       1.592  85.953 117.195  0.00  0.00     0.149 HD
ENDBRANCH   6  13
BRANCH   5  18
ATOM     18  N   LIG d   1       0.639  85.740 113.877  0.00  0.00     0.381 N 
ATOM     19  H   LIG d   1      -0.115  85.890 114.517  0.00  0.00    -0.090 HD
ATOM     20  H   LIG d   1       0.782  84.749 113.785  0.00  0.00    -0.090 HD
ATOM     21  H   LIG d   1       0.414  86.133 112.990  0.00  0.00    -0.090 HD
ENDBRANCH   5  18
BRANCH   3  22
ATOM     22  C   LIG d   1       4.682  88.040 112.739  0.00  0.00     0.382 C 
ATOM     23  O   LIG d   1       4.749  87.318 111.714  0.00  0.00    -0.241 OA
ATOM     24  O   LIG d   1       5.563  88.896 112.944  0.00  0.00    -0.241 OA
ENDBRANCH   3  22
TORSDOF 7
ENDMDL
