MODEL 1
REMARK VINA RESULT:      -5.0      0.000      0.000
REMARK  7 active torsions:
REMARK  status: ('A' for Active; 'I' for Inactive)
REMARK    1  A    between atoms: C_2  and  C_3 
REMARK    2  A    between atoms: C_3  and  O_6 
REMARK    3  A    between atoms: C_3  and  C_4 
REMARK    4  A    between atoms: C_7  and  O_6 
REMARK    5  A    between atoms: C_9  and  C_10 
REMARK    6  A    between atoms: N_15  and  C_14 
REMARK    7  A    between atoms: N_20  and  C_19 
REMARK       I    between atoms: C_22  and  N_20 
ROOT
ATOM      1  C   LIG d   1       3.788  88.728 115.676  0.00  0.00     0.161 C 
ATOM      2  C   LIG d   1       4.617  89.491 116.515  0.00  0.00     0.016 C 
ATOM      3  C   LIG d   1       5.933  89.875 116.168  0.00  0.00     0.038 C 
ATOM      4  C   LIG d   1       6.458  89.650 114.887  0.00  0.00     0.028 C 
ATOM      5  C   LIG d   1       5.843  88.444 114.184  0.00  0.00    -0.047 C 
ATOM      6  C   LIG d   1       4.303  88.568 114.230  0.00  0.00     0.091 C 
ENDROOT
BRANCH   1   7
ATOM      7  O   LIG d   1       2.456  89.278 115.675  0.00  0.00    -0.368 OA
BRANCH   7   8
ATOM      8  C   LIG d   1       1.972  89.779 116.946  0.00  0.00     0.119 C 
BRANCH   8   9
ATOM      9  C   LIG d   1       0.788  88.891 117.373  0.00  0.00     0.028 C 
ATOM     10  C   LIG d   1      -0.521  89.686 117.516  0.00  0.00     0.006 C 
ENDBRANCH   8   9
BRANCH   8  11
ATOM     11  C   LIG d   1       1.392  91.189 116.805  0.00  0.00     0.028 C 
ATOM     12  C   LIG d   1       2.247  92.258 117.502  0.00  0.00     0.006 C 
ENDBRANCH   8  11
ENDBRANCH   7   8
ENDBRANCH   1   7
BRANCH   6  13
ATOM     13  N   LIG d   1       3.621  87.387 113.638  0.00  0.00    -0.311 N 
ATOM     14  C   LIG d   1       2.640  87.480 112.743  0.00  0.00     0.210 C 
ATOM     15  C   LIG d   1       2.062  86.140 112.276  0.00  0.00     0.109 C 
ATOM     16  O   LIG d   1       2.215  88.543 112.266  0.00  0.00    -0.276 OA
ATOM     17  H   LIG d   1       3.925  86.484 113.946  0.00  0.00     0.149 HD
ENDBRANCH   6  13
BRANCH   5  18
ATOM     18  N   LIG d   1       6.379  88.408 112.810  0.00  0.00     0.381 N 
ATOM     19  H   LIG d   1       6.409  87.463 112.483  0.00  0.00    -0.090 HD
ATOM     20  H   LIG d   1       7.317  88.769 112.818  0.00  0.00    -0.090 HD
ATOM     21  H   LIG d   1       5.808  88.958 112.207  0.00  0.00    -0.090 HD
ENDBRANCH   5  18
BRANCH   3  22
ATOM     22  C   LIG d   1       6.753  90.458 117.122  0.00  0.00     0.382 C 
ATOM     23  O   LIG d   1       7.966  90.145 117.182  0.00  0.00    -0.241 OA
ATOM     24  O   LIG d   1       6.285  91.260 117.953  0.00  0.00    -0.241 OA
ENDBRANCH   3  22
TORSDOF 7
ENDMDL
MODEL 2
REMARK VINA RESULT:      -4.6      3.575      7.003
REMARK  7 active torsions:
REMARK  status: ('A' for Active; 'I' for Inactive)
REMARK    1  A    between atoms: C_2  and  C_3 
REMARK    2  A    between atoms: C_3  and  O_6 
REMARK    3  A    between atoms: C_3  and  C_4 
REMARK    4  A    between atoms: C_7  and  O_6 
REMARK    5  A    between atoms: C_9  and  C_10 
REMARK    6  A    between atoms: N_15  and  C_14 
REMARK    7  A    between atoms: N_20  and  C_19 
REMARK       I    between atoms: C_22  and  N_20 
ROOT
ATOM      1  C   LIG d   1       0.985  90.071 117.472  0.00  0.00     0.161 C 
ATOM      2  C   LIG d   1      -0.402  89.852 117.426  0.00  0.00     0.016 C 
ATOM      3  C   LIG d   1      -1.358  90.850 117.727  0.00  0.00     0.038 C 
ATOM      4  C   LIG d   1      -0.991  92.186 117.948  0.00  0.00     0.028 C 
ATOM      5  C   LIG d   1       0.422  92.342 118.500  0.00  0.00    -0.047 C 
ATOM      6  C   LIG d   1       1.402  91.551 117.603  0.00  0.00     0.091 C 
ENDROOT
BRANCH   1   7
ATOM      7  O   LIG d   1       1.612  89.474 116.320  0.00  0.00    -0.368 OA
BRANCH   7   8
ATOM      8  C   LIG d   1       2.445  88.317 116.576  0.00  0.00     0.119 C 
BRANCH   8   9
ATOM      9  C   LIG d   1       3.872  88.660 116.105  0.00  0.00     0.028 C 
ATOM     10  C   LIG d   1       3.894  89.826 115.102  0.00  0.00     0.006 C 
ENDBRANCH   8   9
BRANCH   8  11
ATOM     11  C   LIG d   1       2.014  87.120 115.723  0.00  0.00     0.028 C 
ATOM     12  C   LIG d   1       0.747  86.433 116.257  0.00  0.00     0.006 C 
ENDBRANCH   8  11
ENDBRANCH   7   8
ENDBRANCH   1   7
BRANCH   6  13
ATOM     13  N   LIG d   1       2.795  91.582 118.120  0.00  0.00    -0.311 N 
ATOM     14  C   LIG d   1       3.688  92.505 117.767  0.00  0.00     0.210 C 
ATOM     15  C   LIG d   1       5.072  92.341 118.402  0.00  0.00     0.109 C 
ATOM     16  O   LIG d   1       3.455  93.462 117.014  0.00  0.00    -0.276 OA
ATOM     17  H   LIG d   1       3.059  90.859 118.761  0.00  0.00     0.149 HD
ENDBRANCH   6  13
BRANCH   5  18
ATOM     18  N   LIG d   1       0.723  93.785 118.552  0.00  0.00     0.381 N 
ATOM     19  H   LIG d   1       0.550  94.200 117.658  0.00  0.00    -0.090 HD
ATOM     20  H   LIG d   1       1.696  93.907 118.774  0.00  0.00    -0.090 HD
ATOM     21  H   LIG d   1       0.159  94.226 119.245  0.00  0.00    -0.090 HD
ENDBRANCH   5  18
BRANCH   3  22
ATOM     22  C   LIG d   1      -2.696  90.506 117.848  0.00  0.00     0.382 C 
ATOM     23  O   LIG d   1      -3.064  89.329 117.614  0.00  0.00    -0.241 OA
ATOM     24  O   LIG d   1      -3.545  91.367 118.143  0.00  0.00    -0.241 OA
ENDBRANCH   3  22
TORSDOF 7
ENDMDL
MODEL 3
REMARK VINA RESULT:      -4.5      1.727      2.491
REMARK  7 active torsions:
REMARK  status: ('A' for Active; 'I' for Inactive)
REMARK    1  A    between atoms: C_2  and  C_3 
REMARK    2  A    between atoms: C_3  and  O_6 
REMARK    3  A    between atoms: C_3  and  C_4 
REMARK    4  A    between atoms: C_7  and  O_6 
REMARK    5  A    between atoms: C_9  and  C_10 
REMARK    6  A    between atoms: N_15  and  C_14 
REMARK    7  A    between atoms: N_20  and  C_19 
REMARK       I    between atoms: C_22  and  N_20 
ROOT
ATOM      1  C   LIG d   1       5.235  87.119 115.775  0.00  0.00     0.161 C 
ATOM      2  C   LIG d   1       5.772  87.886 116.822  0.00  0.00     0.016 C 
ATOM      3  C   LIG d   1       6.439  89.117 116.622  0.00  0.00     0.038 C 
ATOM      4  C   LIG d   1       6.482  89.741 115.367  0.00  0.00     0.028 C 
ATOM      5  C   LIG d   1       6.395  88.763 114.200  0.00  0.00    -0.047 C 
ATOM      6  C   LIG d   1       5.175  87.838 114.411  0.00  0.00     0.091 C 
ENDROOT
BRANCH   1   7
ATOM      7  O   LIG d   1       3.929  86.634 116.144  0.00  0.00    -0.368 OA
BRANCH   7   8
ATOM      8  C   LIG d   1       2.809  87.476 115.776  0.00  0.00     0.119 C 
BRANCH   8   9
ATOM      9  C   LIG d   1       2.284  88.138 117.065  0.00  0.00     0.028 C 
ATOM     10  C   LIG d   1       2.522  89.657 117.084  0.00  0.00     0.006 C 
ENDBRANCH   8   9
BRANCH   8  11
ATOM     11  C   LIG d   1       1.639  86.645 115.241  0.00  0.00     0.028 C 
ATOM     12  C   LIG d   1       0.394  86.723 116.138  0.00  0.00     0.006 C 
ENDBRANCH   8  11
ENDBRANCH   7   8
ENDBRANCH   1   7
BRANCH   6  13
ATOM     13  N   LIG d   1       5.065  86.796 113.357  0.00  0.00    -0.311 N 
ATOM     14  C   LIG d   1       4.134  86.811 112.405  0.00  0.00     0.210 C 
ATOM     15  C   LIG d   1       4.187  85.631 111.430  0.00  0.00     0.109 C 
ATOM     16  O   LIG d   1       3.290  87.707 112.256  0.00  0.00    -0.276 OA
ATOM     17  H   LIG d   1       5.730  86.047 113.385  0.00  0.00     0.149 HD
ENDBRANCH   6  13
BRANCH   5  18
ATOM     18  N   LIG d   1       6.311  89.556 112.959  0.00  0.00     0.381 N 
ATOM     19  H   LIG d   1       5.497  90.137 112.983  0.00  0.00    -0.090 HD
ATOM     20  H   LIG d   1       6.229  88.930 112.178  0.00  0.00    -0.090 HD
ATOM     21  H   LIG d   1       7.127  90.119 112.858  0.00  0.00    -0.090 HD
ENDBRANCH   5  18
BRANCH   3  22
ATOM     22  C   LIG d   1       7.107  89.716 117.679  0.00  0.00     0.382 C 
ATOM     23  O   LIG d   1       6.638  89.641 118.840  0.00  0.00    -0.241 OA
ATOM     24  O   LIG d   1       8.149  90.368 117.480  0.00  0.00    -0.241 OA
ENDBRANCH   3  22
TORSDOF 7
ENDMDL
MODEL 4
REMARK VINA RESULT:      -4.4      1.651      2.378
REMARK  7 active torsions:
REMARK  status: ('A' for Active; 'I' for Inactive)
REMARK    1  A    between atoms: C_2  and  C_3 
REMARK    2  A    between atoms: C_3  and  O_6 
REMARK    3  A    between atoms: C_3  and  C_4 
REMARK    4  A    between atoms: C_7  and  O_6 
REMARK    5  A    between atoms: C_9  and  C_10 
REMARK    6  A    between atoms: N_15  and  C_14 
REMARK    7  A    between atoms: N_20  and  C_19 
REMARK       I    between atoms: C_22  and  N_20 
ROOT
ATOM      1  C   LIG d   1       4.863  87.234 116.047  0.00  0.00     0.161 C 
ATOM      2  C   LIG d   1       5.853  87.690 116.933  0.00  0.00     0.016 C 
ATOM      3  C   LIG d   1       6.795  88.690 116.599  0.00  0.00     0.038 C 
ATOM      4  C   LIG d   1       6.715  89.413 115.399  0.00  0.00     0.028 C 
ATOM      5  C   LIG d   1       6.043  88.640 114.269  0.00  0.00    -0.047 C 
ATOM      6  C   LIG d   1       4.690  88.089 114.774  0.00  0.00     0.091 C 
ENDROOT
BRANCH   1   7
ATOM      7  O   LIG d   1       3.606  87.109 116.741  0.00  0.00    -0.368 OA
BRANCH   7   8
ATOM      8  C   LIG d   1       2.753  88.280 116.731  0.00  0.00     0.119 C 
BRANCH   8   9
ATOM      9  C   LIG d   1       2.834  88.924 118.129  0.00  0.00     0.028 C 
ATOM     10  C   LIG d   1       3.517  90.302 118.101  0.00  0.00     0.006 C 
ENDBRANCH   8   9
BRANCH   8  11
ATOM     11  C   LIG d   1       1.282  87.896 116.546  0.00  0.00     0.028 C 
ATOM     12  C   LIG d   1       1.104  86.505 115.918  0.00  0.00     0.006 C 
ENDBRANCH   8  11
ENDBRANCH   7   8
ENDBRANCH   1   7
BRANCH   6  13
ATOM     13  N   LIG d   1       4.005  87.248 113.757  0.00  0.00    -0.311 N 
ATOM     14  C   LIG d   1       3.075  87.715 112.927  0.00  0.00     0.210 C 
ATOM     15  C   LIG d   1       2.482  86.675 111.970  0.00  0.00     0.109 C 
ATOM     16  O   LIG d   1       2.706  88.898 112.870  0.00  0.00    -0.276 OA
ATOM     17  H   LIG d   1       4.266  86.282 113.714  0.00  0.00     0.149 HD
ENDBRANCH   6  13
BRANCH   5  18
ATOM     18  N   LIG d   1       5.902  89.557 113.123  0.00  0.00     0.381 N 
ATOM     19  H   LIG d   1       6.727  90.116 113.034  0.00  0.00    -0.090 HD
ATOM     20  H   LIG d   1       5.123  90.169 113.290  0.00  0.00    -0.090 HD
ATOM     21  H   LIG d   1       5.752  89.038 112.287  0.00  0.00    -0.090 HD
ENDBRANCH   5  18
BRANCH   3  22
ATOM     22  C   LIG d   1       7.856  88.948 117.453  0.00  0.00     0.382 C 
ATOM     23  O   LIG d   1       8.435  90.060 117.416  0.00  0.00    -0.241 OA
ATOM     24  O   LIG d   1       8.271  88.066 118.229  0.00  0.00    -0.241 OA
ENDBRANCH   3  22
TORSDOF 7
ENDMDL
MODEL 5
REMARK VINA RESULT:      -4.3      2.475      5.167
REMARK  7 active torsions:
REMARK  status: ('A' for Active; 'I' for Inactive)
REMARK    1  A    between atoms: C_2  and  C_3 
REMARK    2  A    between atoms: C_3  and  O_6 
REMARK    3  A    between atoms: C_3  and  C_4 
REMARK    4  A    between atoms: C_7  and  O_6 
REMARK    5  A    between atoms: C_9  and  C_10 
REMARK    6  A    between atoms: N_15  and  C_14 
REMARK    7  A    between atoms: N_20  and  C_19 
REMARK       I    between atoms: C_22  and  N_20 
ROOT
ATOM      1  C   LIG d   1       2.796  87.115 114.700  0.00  0.00     0.161 C 
ATOM      2  C   LIG d   1       1.501  86.660 114.403  0.00  0.00     0.016 C 
ATOM      3  C   LIG d   1       1.173  85.964 113.216  0.00  0.00     0.038 C 
ATOM      4  C   LIG d   1       2.157  85.542 112.310  0.00  0.00     0.028 C 
ATOM      5  C   LIG d   1       3.406  86.416 112.319  0.00  0.00    -0.047 C 
ATOM      6  C   LIG d   1       3.902  86.566 113.775  0.00  0.00     0.091 C 
ENDROOT
BRANCH   1   7
ATOM      7  O   LIG d   1       3.109  86.832 116.079  0.00  0.00    -0.368 OA
BRANCH   7   8
ATOM      8  C   LIG d   1       3.058  87.958 116.988  0.00  0.00     0.119 C 
BRANCH   8   9
ATOM      9  C   LIG d   1       1.784  87.806 117.842  0.00  0.00     0.028 C 
ATOM     10  C   LIG d   1       0.655  88.746 117.384  0.00  0.00     0.006 C 
ENDBRANCH   8   9
BRANCH   8  11
ATOM     11  C   LIG d   1       2.884  89.278 116.231  0.00  0.00     0.028 C 
ATOM     12  C   LIG d   1       3.968  90.311 116.577  0.00  0.00     0.006 C 
ENDBRANCH   8  11
ENDBRANCH   7   8
ENDBRANCH   1   7
BRANCH   6  13
ATOM     13  N   LIG d   1       5.072  87.476 113.885  0.00  0.00    -0.311 N 
ATOM     14  C   LIG d   1       5.060  88.740 113.466  0.00  0.00     0.210 C 
ATOM     15  C   LIG d   1       6.378  89.497 113.654  0.00  0.00     0.109 C 
ATOM     16  O   LIG d   1       4.072  89.316 112.985  0.00  0.00    -0.276 OA
ATOM     17  H   LIG d   1       5.906  87.100 114.291  0.00  0.00     0.149 HD
ENDBRANCH   6  13
BRANCH   5  18
ATOM     18  N   LIG d   1       4.400  85.784 111.431  0.00  0.00     0.381 N 
ATOM     19  H   LIG d   1       4.792  84.981 111.880  0.00  0.00    -0.090 HD
ATOM     20  H   LIG d   1       5.140  86.440 111.254  0.00  0.00    -0.090 HD
ATOM     21  H   LIG d   1       3.969  85.517 110.573  0.00  0.00    -0.090 HD
ENDBRANCH   5  18
BRANCH   3  22
ATOM     22  C   LIG d   1      -0.156  85.720 112.908  0.00  0.00     0.382 C 
ATOM     23  O   LIG d   1      -0.485  85.443 111.729  0.00  0.00    -0.241 OA
ATOM     24  O   LIG d   1      -1.036  85.816 113.784  0.00  0.00    -0.241 OA
ENDBRANCH   3  22
TORSDOF 7
ENDMDL
MODEL 6
REMARK VINA RESULT:      -4.3      2.870      6.642
REMARK  7 active torsions:
REMARK  status: ('A' for Active; 'I' for Inactive)
REMARK    1  A    between atoms: C_2  and  C_3 
REMARK    2  A    between atoms: C_3  and  O_6 
REMARK    3  A    between atoms: C_3  and  C_4 
REMARK    4  A    between atoms: C_7  and  O_6 
REMARK    5  A    between atoms: C_9  and  C_10 
REMARK    6  A    between atoms: N_15  and  C_14 
REMARK    7  A    between atoms: N_20  and  C_19 
REMARK       I    between atoms: C_22  and  N_20 
ROOT
ATOM      1  C   LIG d   1       3.002  86.716 114.941  0.00  0.00     0.161 C 
ATOM      2  C   LIG d   1       1.770  86.264 114.441  0.00  0.00     0.016 C 
ATOM      3  C   LIG d   1       0.549  86.402 115.141  0.00  0.00     0.038 C 
ATOM      4  C   LIG d   1       0.455  87.142 116.329  0.00  0.00     0.028 C 
ATOM      5  C   LIG d   1       1.757  87.182 117.122  0.00  0.00    -0.047 C 
ATOM      6  C   LIG d   1       2.903  87.624 116.184  0.00  0.00     0.091 C 
ENDROOT
BRANCH   1   7
ATOM      7  O   LIG d   1       3.740  87.378 113.894  0.00  0.00    -0.368 OA
BRANCH   7   8
ATOM      8  C   LIG d   1       4.981  86.747 113.492  0.00  0.00     0.119 C 
BRANCH   8   9
ATOM      9  C   LIG d   1       6.110  87.778 113.690  0.00  0.00     0.028 C 
ATOM     10  C   LIG d   1       5.660  89.211 113.357  0.00  0.00     0.006 C 
ENDBRANCH   8   9
BRANCH   8  11
ATOM     11  C   LIG d   1       4.983  86.425 111.995  0.00  0.00     0.028 C 
ATOM     12  C   LIG d   1       3.570  86.209 111.430  0.00  0.00     0.006 C 
ENDBRANCH   8  11
ENDBRANCH   7   8
ENDBRANCH   1   7
BRANCH   6  13
ATOM     13  N   LIG d   1       4.226  87.608 116.860  0.00  0.00    -0.311 N 
ATOM     14  C   LIG d   1       4.971  88.698 117.039  0.00  0.00     0.210 C 
ATOM     15  C   LIG d   1       6.311  88.457 117.741  0.00  0.00     0.109 C 
ATOM     16  O   LIG d   1       4.634  89.846 116.712  0.00  0.00    -0.276 OA
ATOM     17  H   LIG d   1       4.562  86.723 117.184  0.00  0.00     0.149 HD
ENDBRANCH   6  13
BRANCH   5  18
ATOM     18  N   LIG d   1       1.556  88.098 118.261  0.00  0.00     0.381 N 
ATOM     19  H   LIG d   1       0.578  88.210 118.438  0.00  0.00    -0.090 HD
ATOM     20  H   LIG d   1       1.939  88.997 118.027  0.00  0.00    -0.090 HD
ATOM     21  H   LIG d   1       2.009  87.737 119.072  0.00  0.00    -0.090 HD
ENDBRANCH   5  18
BRANCH   3  22
ATOM     22  C   LIG d   1      -0.588  85.762 114.672  0.00  0.00     0.382 C 
ATOM     23  O   LIG d   1      -0.670  85.433 113.464  0.00  0.00    -0.241 OA
ATOM     24  O   LIG d   1      -1.552  85.549 115.432  0.00  0.00    -0.241 OA
ENDBRANCH   3  22
TORSDOF 7
ENDMDL
MODEL 7
REMARK VINA RESULT:      -4.3      2.541      5.137
REMARK  7 active torsions:
REMARK  status: ('A' for Active; 'I' for Inactive)
REMARK    1  A    between atoms: C_2  and  C_3 
REMARK    2  A    between atoms: C_3  and  O_6 
REMARK    3  A    between atoms: C_3  and  C_4 
REMARK    4  A    between atoms: C_7  and  O_6 
REMARK    5  A    between atoms: C_9  and  C_10 
REMARK    6  A    between atoms: N_15  and  C_14 
REMARK    7  A    between atoms: N_20  and  C_19 
REMARK       I    between atoms: C_22  and  N_20 
ROOT
ATOM      1  C   LIG d   1       3.726  87.798 116.207  0.00  0.00     0.161 C 
ATOM      2  C   LIG d   1       2.798  88.849 116.124  0.00  0.00     0.016 C 
ATOM      3  C   LIG d   1       3.044  90.147 116.628  0.00  0.00     0.038 C 
ATOM      4  C   LIG d   1       4.302  90.525 117.119  0.00  0.00     0.028 C 
ATOM      5  C   LIG d   1       5.107  89.359 117.685  0.00  0.00    -0.047 C 
ATOM      6  C   LIG d   1       5.145  88.222 116.639  0.00  0.00     0.091 C 
ENDROOT
BRANCH   1   7
ATOM      7  O   LIG d   1       3.775  87.089 114.953  0.00  0.00    -0.368 OA
BRANCH   7   8
ATOM      8  C   LIG d   1       3.885  87.907 113.762  0.00  0.00     0.119 C 
BRANCH   8   9
ATOM      9  C   LIG d   1       2.988  87.273 112.681  0.00  0.00     0.028 C 
ATOM     10  C   LIG d   1       3.780  86.386 111.706  0.00  0.00     0.006 C 
ENDBRANCH   8   9
BRANCH   8  11
ATOM     11  C   LIG d   1       5.304  87.865 113.187  0.00  0.00     0.028 C 
ATOM     12  C   LIG d   1       6.041  89.206 113.321  0.00  0.00     0.006 C 
ENDBRANCH   8  11
ENDBRANCH   7   8
ENDBRANCH   1   7
BRANCH   6  13
ATOM     13  N   LIG d   1       5.842  87.010 117.145  0.00  0.00    -0.311 N 
ATOM     14  C   LIG d   1       7.122  86.742 116.894  0.00  0.00     0.210 C 
ATOM     15  C   LIG d   1       7.637  85.430 117.494  0.00  0.00     0.109 C 
ATOM     16  O   LIG d   1       7.888  87.482 116.258  0.00  0.00    -0.276 OA
ATOM     17  H   LIG d   1       5.303  86.371 117.696  0.00  0.00     0.149 HD
ENDBRANCH   6  13
BRANCH   5  18
ATOM     18  N   LIG d   1       6.446  89.870 118.034  0.00  0.00     0.381 N 
ATOM     19  H   LIG d   1       6.871  89.270 118.712  0.00  0.00    -0.090 HD
ATOM     20  H   LIG d   1       6.350  90.785 118.439  0.00  0.00    -0.090 HD
ATOM     21  H   LIG d   1       7.016  89.918 117.218  0.00  0.00    -0.090 HD
ENDBRANCH   5  18
BRANCH   3  22
ATOM     22  C   LIG d   1       2.011  91.071 116.681  0.00  0.00     0.382 C 
ATOM     23  O   LIG d   1       0.842  90.722 116.390  0.00  0.00    -0.241 OA
ATOM     24  O   LIG d   1       2.241  92.259 116.974  0.00  0.00    -0.241 OA
ENDBRANCH   3  22
TORSDOF 7
ENDMDL
MODEL 8
REMARK VINA RESULT:      -4.2      2.364      5.490
REMARK  7 active torsions:
REMARK  status: ('A' for Active; 'I' for Inactive)
REMARK    1  A    between atoms: C_2  and  C_3 
REMARK    2  A    between atoms: C_3  and  O_6 
REMARK    3  A    between atoms: C_3  and  C_4 
REMARK    4  A    between atoms: C_7  and  O_6 
REMARK    5  A    between atoms: C_9  and  C_10 
REMARK    6  A    between atoms: N_15  and  C_14 
REMARK    7  A    between atoms: N_20  and  C_19 
REMARK       I    between atoms: C_22  and  N_20 
ROOT
ATOM      1  C   LIG d   1       3.764  88.698 116.533  0.00  0.00     0.161 C 
ATOM      2  C   LIG d   1       2.438  89.158 116.485  0.00  0.00     0.016 C 
ATOM      3  C   LIG d   1       2.039  90.434 116.948  0.00  0.00     0.038 C 
ATOM      4  C   LIG d   1       2.972  91.400 117.354  0.00  0.00     0.028 C 
ATOM      5  C   LIG d   1       4.267  90.802 117.893  0.00  0.00    -0.047 C 
ATOM      6  C   LIG d   1       4.812  89.780 116.870  0.00  0.00     0.091 C 
ENDROOT
BRANCH   1   7
ATOM      7  O   LIG d   1       4.100  88.044 115.293  0.00  0.00    -0.368 OA
BRANCH   7   8
ATOM      8  C   LIG d   1       3.854  88.805 114.085  0.00  0.00     0.119 C 
BRANCH   8   9
ATOM      9  C   LIG d   1       3.178  87.859 113.072  0.00  0.00     0.028 C 
ATOM     10  C   LIG d   1       2.488  86.666 113.754  0.00  0.00     0.006 C 
ENDBRANCH   8   9
BRANCH   8  11
ATOM     11  C   LIG d   1       5.165  89.238 113.422  0.00  0.00     0.028 C 
ATOM     12  C   LIG d   1       6.305  88.232 113.645  0.00  0.00     0.006 C 
ENDBRANCH   8  11
ENDBRANCH   7   8
ENDBRANCH   1   7
BRANCH   6  13
ATOM     13  N   LIG d   1       6.033  89.086 117.357  0.00  0.00    -0.311 N 
ATOM     14  C   LIG d   1       7.269  89.509 117.096  0.00  0.00     0.210 C 
ATOM     15  C   LIG d   1       8.386  88.636 117.677  0.00  0.00     0.109 C 
ATOM     16  O   LIG d   1       7.546  90.541 116.466  0.00  0.00    -0.276 OA
ATOM     17  H   LIG d   1       5.900  88.257 117.902  0.00  0.00     0.149 HD
ENDBRANCH   6  13
BRANCH   5  18
ATOM     18  N   LIG d   1       5.199  91.917 118.149  0.00  0.00     0.381 N 
ATOM     19  H   LIG d   1       6.075  91.735 117.701  0.00  0.00    -0.090 HD
ATOM     20  H   LIG d   1       5.359  91.985 119.139  0.00  0.00    -0.090 HD
ATOM     21  H   LIG d   1       4.813  92.769 117.808  0.00  0.00    -0.090 HD
ENDBRANCH   5  18
BRANCH   3  22
ATOM     22  C   LIG d   1       0.690  90.739 117.045  0.00  0.00     0.382 C 
ATOM     23  O   LIG d   1       0.328  91.923 117.247  0.00  0.00    -0.241 OA
ATOM     24  O   LIG d   1      -0.168  89.838 116.976  0.00  0.00    -0.241 OA
ENDBRANCH   3  22
TORSDOF 7
ENDMDL
MODEL 9
REMARK VINA RESULT:      -4.2      2.096      4.788
REMARK  7 active torsions:
REMARK  status: ('A' for Active; 'I' for Inactive)
REMARK    1  A    between atoms: C_2  and  C_3 
REMARK    2  A    between atoms: C_3  and  O_6 
REMARK    3  A    between atoms: C_3  and  C_4 
REMARK    4  A    between atoms: C_7  and  O_6 
REMARK    5  A    between atoms: C_9  and  C_10 
REMARK    6  A    between atoms: N_15  and  C_14 
REMARK    7  A    between atoms: N_20  and  C_19 
REMARK       I    between atoms: C_22  and  N_20 
ROOT
ATOM      1  C   LIG d   1       2.907  90.264 115.950  0.00  0.00     0.161 C 
ATOM      2  C   LIG d   1       1.720  90.700 116.563  0.00  0.00     0.016 C 
ATOM      3  C   LIG d   1       0.778  89.823 117.147  0.00  0.00     0.038 C 
ATOM      4  C   LIG d   1       1.033  88.451 117.293  0.00  0.00     0.028 C 
ATOM      5  C   LIG d   1       1.987  87.898 116.240  0.00  0.00    -0.047 C 
ATOM      6  C   LIG d   1       3.255  88.781 116.198  0.00  0.00     0.091 C 
ENDROOT
BRANCH   1   7
ATOM      7  O   LIG d   1       4.003  91.110 116.350  0.00  0.00    -0.368 OA
BRANCH   7   8
ATOM      8  C   LIG d   1       4.184  91.286 117.777  0.00  0.00     0.119 C 
BRANCH   8   9
ATOM      9  C   LIG d   1       4.187  92.801 118.059  0.00  0.00     0.028 C 
ATOM     10  C   LIG d   1       2.997  93.239 118.930  0.00  0.00     0.006 C 
ENDBRANCH   8   9
BRANCH   8  11
ATOM     11  C   LIG d   1       5.558  90.787 118.231  0.00  0.00     0.028 C 
ATOM     12  C   LIG d   1       6.497  90.475 117.055  0.00  0.00     0.006 C 
ENDBRANCH   8  11
ENDBRANCH   7   8
ENDBRANCH   1   7
BRANCH   6  13
ATOM     13  N   LIG d   1       4.205  88.359 115.136  0.00  0.00    -0.311 N 
ATOM     14  C   LIG d   1       3.972  88.525 113.835  0.00  0.00     0.210 C 
ATOM     15  C   LIG d   1       5.073  88.000 112.909  0.00  0.00     0.109 C 
ATOM     16  O   LIG d   1       2.972  89.085 113.362  0.00  0.00    -0.276 OA
ATOM     17  H   LIG d   1       5.057  87.924 115.432  0.00  0.00     0.149 HD
ENDBRANCH   6  13
BRANCH   5  18
ATOM     18  N   LIG d   1       2.273  86.494 116.592  0.00  0.00     0.381 N 
ATOM     19  H   LIG d   1       3.009  86.142 116.012  0.00  0.00    -0.090 HD
ATOM     20  H   LIG d   1       1.449  85.943 116.425  0.00  0.00    -0.090 HD
ATOM     21  H   LIG d   1       2.536  86.429 117.551  0.00  0.00    -0.090 HD
ENDBRANCH   5  18
BRANCH   3  22
ATOM     22  C   LIG d   1      -0.453  90.311 117.557  0.00  0.00     0.382 C 
ATOM     23  O   LIG d   1      -0.586  91.529 117.828  0.00  0.00    -0.241 OA
ATOM     24  O   LIG d   1      -1.422  89.541 117.702  0.00  0.00    -0.241 OA
ENDBRANCH   3  22
TORSDOF 7
ENDMDL
