MODEL 1
REMARK VINA RESULT:      -4.8      0.000      0.000
REMARK  7 active torsions:
REMARK  status: ('A' for Active; 'I' for Inactive)
REMARK    1  A    between atoms: C_2  and  C_3 
REMARK    2  A    between atoms: C_3  and  O_6 
REMARK    3  A    between atoms: C_3  and  C_4 
REMARK    4  A    between atoms: C_7  and  O_6 
REMARK    5  A    between atoms: C_9  and  C_10 
REMARK    6  A    between atoms: N_15  and  C_14 
REMARK    7  A    between atoms: N_20  and  C_19 
REMARK       I    between atoms: C_22  and  N_20 
ROOT
ATOM      1  C   LIG d   1       3.796  88.930 116.866  0.00  0.00     0.161 C 
ATOM      2  C   LIG d   1       2.521  89.503 116.721  0.00  0.00     0.016 C 
ATOM      3  C   LIG d   1       2.199  90.807 117.163  0.00  0.00     0.038 C 
ATOM      4  C   LIG d   1       3.178  91.688 117.648  0.00  0.00     0.028 C 
ATOM      5  C   LIG d   1       4.372  90.980 118.279  0.00  0.00    -0.047 C 
ATOM      6  C   LIG d   1       4.904  89.917 117.291  0.00  0.00     0.091 C 
ENDROOT
BRANCH   1   7
ATOM      7  O   LIG d   1       4.168  88.253 115.649  0.00  0.00    -0.368 OA
BRANCH   7   8
ATOM      8  C   LIG d   1       3.406  88.601 114.467  0.00  0.00     0.119 C 
BRANCH   8   9
ATOM      9  C   LIG d   1       2.937  87.286 113.815  0.00  0.00     0.028 C 
ATOM     10  C   LIG d   1       2.631  87.451 112.317  0.00  0.00     0.006 C 
ENDBRANCH   8   9
BRANCH   8  11
ATOM     11  C   LIG d   1       4.288  89.282 113.417  0.00  0.00     0.028 C 
ATOM     12  C   LIG d   1       5.790  89.124 113.705  0.00  0.00     0.006 C 
ENDBRANCH   8  11
ENDBRANCH   7   8
ENDBRANCH   1   7
BRANCH   6  13
ATOM     13  N   LIG d   1       6.020  89.120 117.864  0.00  0.00    -0.311 N 
ATOM     14  C   LIG d   1       7.299  89.478 117.771  0.00  0.00     0.210 C 
ATOM     15  C   LIG d   1       8.292  88.503 118.413  0.00  0.00     0.109 C 
ATOM     16  O   LIG d   1       7.704  90.526 117.246  0.00  0.00    -0.276 OA
ATOM     17  H   LIG d   1       5.779  88.269 118.334  0.00  0.00     0.149 HD
ENDBRANCH   6  13
BRANCH   5  18
ATOM     18  N   LIG d   1       5.373  92.009 118.616  0.00  0.00     0.381 N 
ATOM     19  H   LIG d   1       4.929  92.776 119.080  0.00  0.00    -0.090 HD
ATOM     20  H   LIG d   1       5.785  92.352 117.766  0.00  0.00    -0.090 HD
ATOM     21  H   LIG d   1       6.078  91.620 119.202  0.00  0.00    -0.090 HD
ENDBRANCH   5  18
BRANCH   3  22
ATOM     22  C   LIG d   1       0.878  91.227 117.160  0.00  0.00     0.382 C 
ATOM     23  O   LIG d   1       0.608  92.448 117.264  0.00  0.00    -0.241 OA
ATOM     24  O   LIG d   1      -0.049  90.397 117.099  0.00  0.00    -0.241 OA
ENDBRANCH   3  22
TORSDOF 7
ENDMDL
MODEL 2
REMARK VINA RESULT:      -4.7      2.477      5.455
REMARK  7 active torsions:
REMARK  status: ('A' for Active; 'I' for Inactive)
REMARK    1  A    between atoms: C_2  and  C_3 
REMARK    2  A    between atoms: C_3  and  O_6 
REMARK    3  A    between atoms: C_3  and  C_4 
REMARK    4  A    between atoms: C_7  and  O_6 
REMARK    5  A    between atoms: C_9  and  C_10 
REMARK    6  A    between atoms: N_15  and  C_14 
REMARK    7  A    between atoms: N_20  and  C_19 
REMARK       I    between atoms: C_22  and  N_20 
ROOT
ATOM      1  C   LIG d   1       3.028  88.141 116.313  0.00  0.00     0.161 C 
ATOM      2  C   LIG d   1       3.738  88.812 117.323  0.00  0.00     0.016 C 
ATOM      3  C   LIG d   1       4.959  89.489 117.096  0.00  0.00     0.038 C 
ATOM      4  C   LIG d   1       5.478  89.670 115.806  0.00  0.00     0.028 C 
ATOM      5  C   LIG d   1       5.059  88.579 114.826  0.00  0.00    -0.047 C 
ATOM      6  C   LIG d   1       3.522  88.421 114.879  0.00  0.00     0.091 C 
ENDROOT
BRANCH   1   7
ATOM      7  O   LIG d   1       1.622  88.438 116.426  0.00  0.00    -0.368 OA
BRANCH   7   8
ATOM      8  C   LIG d   1       1.219  89.179 117.603  0.00  0.00     0.119 C 
BRANCH   8   9
ATOM      9  C   LIG d   1       0.148  88.344 118.333  0.00  0.00     0.028 C 
ATOM     10  C   LIG d   1      -1.140  89.142 118.596  0.00  0.00     0.006 C 
ENDBRANCH   8   9
BRANCH   8  11
ATOM     11  C   LIG d   1       0.522  90.490 117.225  0.00  0.00     0.028 C 
ATOM     12  C   LIG d   1       1.375  91.729 117.538  0.00  0.00     0.006 C 
ENDBRANCH   8  11
ENDBRANCH   7   8
ENDBRANCH   1   7
BRANCH   6  13
ATOM     13  N   LIG d   1       3.035  87.317 114.012  0.00  0.00    -0.311 N 
ATOM     14  C   LIG d   1       2.521  87.510 112.798  0.00  0.00     0.210 C 
ATOM     15  C   LIG d   1       2.062  86.236 112.081  0.00  0.00     0.109 C 
ATOM     16  O   LIG d   1       2.431  88.611 112.235  0.00  0.00    -0.276 OA
ATOM     17  H   LIG d   1       3.100  86.387 114.378  0.00  0.00     0.149 HD
ENDBRANCH   6  13
BRANCH   5  18
ATOM     18  N   LIG d   1       5.555  88.964 113.491  0.00  0.00     0.381 N 
ATOM     19  H   LIG d   1       6.552  88.886 113.465  0.00  0.00    -0.090 HD
ATOM     20  H   LIG d   1       5.310  89.923 113.318  0.00  0.00    -0.090 HD
ATOM     21  H   LIG d   1       5.150  88.379 112.795  0.00  0.00    -0.090 HD
ENDBRANCH   5  18
BRANCH   3  22
ATOM     22  C   LIG d   1       5.693  89.960 118.174  0.00  0.00     0.382 C 
ATOM     23  O   LIG d   1       6.315  89.154 118.908  0.00  0.00    -0.241 OA
ATOM     24  O   LIG d   1       5.706  91.175 118.448  0.00  0.00    -0.241 OA
ENDBRANCH   3  22
TORSDOF 7
ENDMDL
MODEL 3
REMARK VINA RESULT:      -4.4      8.781     11.658
REMARK  7 active torsions:
REMARK  status: ('A' for Active; 'I' for Inactive)
REMARK    1  A    between atoms: C_2  and  C_3 
REMARK    2  A    between atoms: C_3  and  O_6 
REMARK    3  A    between atoms: C_3  and  C_4 
REMARK    4  A    between atoms: C_7  and  O_6 
REMARK    5  A    between atoms: C_9  and  C_10 
REMARK    6  A    between atoms: N_15  and  C_14 
REMARK    7  A    between atoms: N_20  and  C_19 
REMARK       I    between atoms: C_22  and  N_20 
ROOT
ATOM      1  C   LIG d   1      -6.061  93.358 117.659  0.00  0.00     0.161 C 
ATOM      2  C   LIG d   1      -6.539  94.585 118.147  0.00  0.00     0.016 C 
ATOM      3  C   LIG d   1      -7.646  95.267 117.591  0.00  0.00     0.038 C 
ATOM      4  C   LIG d   1      -8.449  94.689 116.597  0.00  0.00     0.028 C 
ATOM      5  C   LIG d   1      -7.706  93.678 115.729  0.00  0.00    -0.047 C 
ATOM      6  C   LIG d   1      -6.993  92.658 116.646  0.00  0.00     0.091 C 
ENDROOT
BRANCH   1   7
ATOM      7  O   LIG d   1      -5.765  92.476 118.759  0.00  0.00    -0.368 OA
BRANCH   7   8
ATOM      8  C   LIG d   1      -4.373  92.114 118.930  0.00  0.00     0.119 C 
BRANCH   8   9
ATOM      9  C   LIG d   1      -3.567  92.848 117.840  0.00  0.00     0.028 C 
ATOM     10  C   LIG d   1      -2.676  93.960 118.418  0.00  0.00     0.006 C 
ENDBRANCH   8   9
BRANCH   8  11
ATOM     11  C   LIG d   1      -4.147  90.623 118.665  0.00  0.00     0.028 C 
ATOM     12  C   LIG d   1      -2.673  90.281 118.398  0.00  0.00     0.006 C 
ENDBRANCH   8  11
ENDBRANCH   7   8
ENDBRANCH   1   7
BRANCH   6  13
ATOM     13  N   LIG d   1      -6.173  91.684 115.880  0.00  0.00    -0.311 N 
ATOM     14  C   LIG d   1      -6.371  90.367 115.921  0.00  0.00     0.210 C 
ATOM     15  C   LIG d   1      -5.401  89.541 115.072  0.00  0.00     0.109 C 
ATOM     16  O   LIG d   1      -7.278  89.808 116.556  0.00  0.00    -0.276 OA
ATOM     17  H   LIG d   1      -5.435  92.054 115.314  0.00  0.00     0.149 HD
ENDBRANCH   6  13
BRANCH   5  18
ATOM     18  N   LIG d   1      -8.693  93.054 114.828  0.00  0.00     0.381 N 
ATOM     19  H   LIG d   1      -9.047  92.215 115.242  0.00  0.00    -0.090 HD
ATOM     20  H   LIG d   1      -8.238  92.812 113.965  0.00  0.00    -0.090 HD
ATOM     21  H   LIG d   1      -9.442  93.687 114.651  0.00  0.00    -0.090 HD
ENDBRANCH   5  18
BRANCH   3  22
ATOM     22  C   LIG d   1      -7.935  96.559 118.002  0.00  0.00     0.382 C 
ATOM     23  O   LIG d   1      -8.820  97.222 117.410  0.00  0.00    -0.241 OA
ATOM     24  O   LIG d   1      -7.291  97.085 118.930  0.00  0.00    -0.241 OA
ENDBRANCH   3  22
TORSDOF 7
ENDMDL
MODEL 4
REMARK VINA RESULT:      -4.4      7.223     10.386
REMARK  7 active torsions:
REMARK  status: ('A' for Active; 'I' for Inactive)
REMARK    1  A    between atoms: C_2  and  C_3 
REMARK    2  A    between atoms: C_3  and  O_6 
REMARK    3  A    between atoms: C_3  and  C_4 
REMARK    4  A    between atoms: C_7  and  O_6 
REMARK    5  A    between atoms: C_9  and  C_10 
REMARK    6  A    between atoms: N_15  and  C_14 
REMARK    7  A    between atoms: N_20  and  C_19 
REMARK       I    between atoms: C_22  and  N_20 
ROOT
ATOM      1  C   LIG d   1      -5.198  92.284 117.039  0.00  0.00     0.161 C 
ATOM      2  C   LIG d   1      -6.384  92.643 116.376  0.00  0.00     0.016 C 
ATOM      3  C   LIG d   1      -7.033  91.810 115.436  0.00  0.00     0.038 C 
ATOM      4  C   LIG d   1      -6.619  90.489 115.206  0.00  0.00     0.028 C 
ATOM      5  C   LIG d   1      -5.135  90.264 115.476  0.00  0.00    -0.047 C 
ATOM      6  C   LIG d   1      -4.794  90.803 116.884  0.00  0.00     0.091 C 
ENDROOT
BRANCH   1   7
ATOM      7  O   LIG d   1      -5.293  92.634 118.434  0.00  0.00    -0.368 OA
BRANCH   7   8
ATOM      8  C   LIG d   1      -4.380  93.659 118.898  0.00  0.00     0.119 C 
BRANCH   8   9
ATOM      9  C   LIG d   1      -5.152  94.992 118.919  0.00  0.00     0.028 C 
ATOM     10  C   LIG d   1      -6.668  94.795 118.749  0.00  0.00     0.006 C 
ENDBRANCH   8   9
BRANCH   8  11
ATOM     11  C   LIG d   1      -3.231  93.871 117.907  0.00  0.00     0.028 C 
ATOM     12  C   LIG d   1      -2.225  94.932 118.381  0.00  0.00     0.006 C 
ENDBRANCH   8  11
ENDBRANCH   7   8
ENDBRANCH   1   7
BRANCH   6  13
ATOM     13  N   LIG d   1      -3.344  90.698 117.195  0.00  0.00    -0.311 N 
ATOM     14  C   LIG d   1      -2.859  89.954 118.187  0.00  0.00     0.210 C 
ATOM     15  C   LIG d   1      -1.337  90.002 118.348  0.00  0.00     0.109 C 
ATOM     16  O   LIG d   1      -3.543  89.233 118.930  0.00  0.00    -0.276 OA
ATOM     17  H   LIG d   1      -2.715  91.226 116.622  0.00  0.00     0.149 HD
ENDBRANCH   6  13
BRANCH   5  18
ATOM     18  N   LIG d   1      -4.870  88.820 115.330  0.00  0.00     0.381 N 
ATOM     19  H   LIG d   1      -4.703  88.414 116.229  0.00  0.00    -0.090 HD
ATOM     20  H   LIG d   1      -4.046  88.696 114.770  0.00  0.00    -0.090 HD
ATOM     21  H   LIG d   1      -5.647  88.373 114.895  0.00  0.00    -0.090 HD
ENDBRANCH   5  18
BRANCH   3  22
ATOM     22  C   LIG d   1      -8.085  92.311 114.685  0.00  0.00     0.382 C 
ATOM     23  O   LIG d   1      -8.596  91.612 113.778  0.00  0.00    -0.241 OA
ATOM     24  O   LIG d   1      -8.500  93.470 114.874  0.00  0.00    -0.241 OA
ENDBRANCH   3  22
TORSDOF 7
ENDMDL
MODEL 5
REMARK VINA RESULT:      -4.3      7.388     10.741
REMARK  7 active torsions:
REMARK  status: ('A' for Active; 'I' for Inactive)
REMARK    1  A    between atoms: C_2  and  C_3 
REMARK    2  A    between atoms: C_3  and  O_6 
REMARK    3  A    between atoms: C_3  and  C_4 
REMARK    4  A    between atoms: C_7  and  O_6 
REMARK    5  A    between atoms: C_9  and  C_10 
REMARK    6  A    between atoms: N_15  and  C_14 
REMARK    7  A    between atoms: N_20  and  C_19 
REMARK       I    between atoms: C_22  and  N_20 
ROOT
ATOM      1  C   LIG d   1      -5.107  91.481 117.220  0.00  0.00     0.161 C 
ATOM      2  C   LIG d   1      -3.936  90.747 117.469  0.00  0.00     0.016 C 
ATOM      3  C   LIG d   1      -2.796  91.292 118.103  0.00  0.00     0.038 C 
ATOM      4  C   LIG d   1      -2.805  92.576 118.669  0.00  0.00     0.028 C 
ATOM      5  C   LIG d   1      -3.789  93.528 117.997  0.00  0.00    -0.047 C 
ATOM      6  C   LIG d   1      -5.176  92.850 117.930  0.00  0.00     0.091 C 
ENDROOT
BRANCH   1   7
ATOM      7  O   LIG d   1      -6.263  90.686 117.552  0.00  0.00    -0.368 OA
BRANCH   7   8
ATOM      8  C   LIG d   1      -7.367  90.744 116.615  0.00  0.00     0.119 C 
BRANCH   8   9
ATOM      9  C   LIG d   1      -8.081  89.379 116.657  0.00  0.00     0.028 C 
ATOM     10  C   LIG d   1      -9.224  89.283 115.632  0.00  0.00     0.006 C 
ENDBRANCH   8   9
BRANCH   8  11
ATOM     11  C   LIG d   1      -6.868  90.897 115.175  0.00  0.00     0.028 C 
ATOM     12  C   LIG d   1      -7.560  92.046 114.424  0.00  0.00     0.006 C 
ENDBRANCH   8  11
ENDBRANCH   7   8
ENDBRANCH   1   7
BRANCH   6  13
ATOM     13  N   LIG d   1      -6.178  93.679 117.211  0.00  0.00    -0.311 N 
ATOM     14  C   LIG d   1      -7.323  94.085 117.758  0.00  0.00     0.210 C 
ATOM     15  C   LIG d   1      -8.222  94.915 116.837  0.00  0.00     0.109 C 
ATOM     16  O   LIG d   1      -7.663  93.864 118.930  0.00  0.00    -0.276 OA
ATOM     17  H   LIG d   1      -5.968  93.931 116.265  0.00  0.00     0.149 HD
ENDBRANCH   6  13
BRANCH   5  18
ATOM     18  N   LIG d   1      -3.795  94.783 118.772  0.00  0.00     0.381 N 
ATOM     19  H   LIG d   1      -2.897  94.929 119.187  0.00  0.00    -0.090 HD
ATOM     20  H   LIG d   1      -4.474  94.706 119.508  0.00  0.00    -0.090 HD
ATOM     21  H   LIG d   1      -4.023  95.549 118.178  0.00  0.00    -0.090 HD
ENDBRANCH   5  18
BRANCH   3  22
ATOM     22  C   LIG d   1      -1.616  90.565 118.139  0.00  0.00     0.382 C 
ATOM     23  O   LIG d   1      -0.595  90.996 117.551  0.00  0.00    -0.241 OA
ATOM     24  O   LIG d   1      -1.572  89.461 118.715  0.00  0.00    -0.241 OA
ENDBRANCH   3  22
TORSDOF 7
ENDMDL
MODEL 6
REMARK VINA RESULT:      -4.2      1.860      4.750
REMARK  7 active torsions:
REMARK  status: ('A' for Active; 'I' for Inactive)
REMARK    1  A    between atoms: C_2  and  C_3 
REMARK    2  A    between atoms: C_3  and  O_6 
REMARK    3  A    between atoms: C_3  and  C_4 
REMARK    4  A    between atoms: C_7  and  O_6 
REMARK    5  A    between atoms: C_9  and  C_10 
REMARK    6  A    between atoms: N_15  and  C_14 
REMARK    7  A    between atoms: N_20  and  C_19 
REMARK       I    between atoms: C_22  and  N_20 
ROOT
ATOM      1  C   LIG d   1       3.544  89.318 116.491  0.00  0.00     0.161 C 
ATOM      2  C   LIG d   1       2.929  88.936 115.287  0.00  0.00     0.016 C 
ATOM      3  C   LIG d   1       3.176  87.701 114.644  0.00  0.00     0.038 C 
ATOM      4  C   LIG d   1       3.946  86.694 115.245  0.00  0.00     0.028 C 
ATOM      5  C   LIG d   1       4.990  87.229 116.219  0.00  0.00    -0.047 C 
ATOM      6  C   LIG d   1       4.301  88.186 117.217  0.00  0.00     0.091 C 
ENDROOT
BRANCH   1   7
ATOM      7  O   LIG d   1       2.569  89.913 117.370  0.00  0.00    -0.368 OA
BRANCH   7   8
ATOM      8  C   LIG d   1       2.499  91.360 117.357  0.00  0.00     0.119 C 
BRANCH   8   9
ATOM      9  C   LIG d   1       3.226  91.870 118.617  0.00  0.00     0.028 C 
ATOM     10  C   LIG d   1       4.463  92.718 118.278  0.00  0.00     0.006 C 
ENDBRANCH   8   9
BRANCH   8  11
ATOM     11  C   LIG d   1       1.055  91.850 117.497  0.00  0.00     0.028 C 
ATOM     12  C   LIG d   1       0.030  90.707 117.430  0.00  0.00     0.006 C 
ENDBRANCH   8  11
ENDBRANCH   7   8
ENDBRANCH   1   7
BRANCH   6  13
ATOM     13  N   LIG d   1       5.266  88.820 118.153  0.00  0.00    -0.311 N 
ATOM     14  C   LIG d   1       6.273  89.596 117.754  0.00  0.00     0.210 C 
ATOM     15  C   LIG d   1       7.162  90.132 118.881  0.00  0.00     0.109 C 
ATOM     16  O   LIG d   1       6.494  89.918 116.577  0.00  0.00    -0.276 OA
ATOM     17  H   LIG d   1       5.142  88.637 119.130  0.00  0.00     0.149 HD
ENDBRANCH   6  13
BRANCH   5  18
ATOM     18  N   LIG d   1       5.625  86.069 116.873  0.00  0.00     0.381 N 
ATOM     19  H   LIG d   1       4.959  85.330 116.972  0.00  0.00    -0.090 HD
ATOM     20  H   LIG d   1       5.932  86.342 117.790  0.00  0.00    -0.090 HD
ATOM     21  H   LIG d   1       6.402  85.757 116.334  0.00  0.00    -0.090 HD
ENDBRANCH   5  18
BRANCH   3  22
ATOM     22  C   LIG d   1       2.682  87.480 113.368  0.00  0.00     0.382 C 
ATOM     23  O   LIG d   1       2.599  88.431 112.554  0.00  0.00    -0.241 OA
ATOM     24  O   LIG d   1       2.276  86.350 113.035  0.00  0.00    -0.241 OA
ENDBRANCH   3  22
TORSDOF 7
ENDMDL
MODEL 7
REMARK VINA RESULT:      -4.0      8.605     11.912
REMARK  7 active torsions:
REMARK  status: ('A' for Active; 'I' for Inactive)
REMARK    1  A    between atoms: C_2  and  C_3 
REMARK    2  A    between atoms: C_3  and  O_6 
REMARK    3  A    between atoms: C_3  and  C_4 
REMARK    4  A    between atoms: C_7  and  O_6 
REMARK    5  A    between atoms: C_9  and  C_10 
REMARK    6  A    between atoms: N_15  and  C_14 
REMARK    7  A    between atoms: N_20  and  C_19 
REMARK       I    between atoms: C_22  and  N_20 
ROOT
ATOM      1  C   LIG d   1      -6.549  92.293 118.327  0.00  0.00     0.161 C 
ATOM      2  C   LIG d   1      -5.373  92.965 118.702  0.00  0.00     0.016 C 
ATOM      3  C   LIG d   1      -4.106  92.690 118.137  0.00  0.00     0.038 C 
ATOM      4  C   LIG d   1      -3.954  91.824 117.044  0.00  0.00     0.028 C 
ATOM      5  C   LIG d   1      -5.033  90.749 116.968  0.00  0.00    -0.047 C 
ATOM      6  C   LIG d   1      -6.421  91.424 117.059  0.00  0.00     0.091 C 
ENDROOT
BRANCH   1   7
ATOM      7  O   LIG d   1      -7.626  93.239 118.179  0.00  0.00    -0.368 OA
BRANCH   7   8
ATOM      8  C   LIG d   1      -7.329  94.427 117.404  0.00  0.00     0.119 C 
BRANCH   8   9
ATOM      9  C   LIG d   1      -7.460  95.639 118.347  0.00  0.00     0.028 C 
ATOM     10  C   LIG d   1      -8.105  96.853 117.655  0.00  0.00     0.006 C 
ENDBRANCH   8   9
BRANCH   8  11
ATOM     11  C   LIG d   1      -8.373  94.652 116.307  0.00  0.00     0.028 C 
ATOM     12  C   LIG d   1      -8.284  93.613 115.178  0.00  0.00     0.006 C 
ENDBRANCH   8  11
ENDBRANCH   7   8
ENDBRANCH   1   7
BRANCH   6  13
ATOM     13  N   LIG d   1      -7.531  90.436 117.076  0.00  0.00    -0.311 N 
ATOM     14  C   LIG d   1      -8.047  89.894 115.974  0.00  0.00     0.210 C 
ATOM     15  C   LIG d   1      -9.199  88.914 116.215  0.00  0.00     0.109 C 
ATOM     16  O   LIG d   1      -7.638  90.107 114.823  0.00  0.00    -0.276 OA
ATOM     17  H   LIG d   1      -7.902  90.183 117.971  0.00  0.00     0.149 HD
ENDBRANCH   6  13
BRANCH   5  18
ATOM     18  N   LIG d   1      -4.833  90.005 115.710  0.00  0.00     0.381 N 
ATOM     19  H   LIG d   1      -4.084  89.351 115.819  0.00  0.00    -0.090 HD
ATOM     20  H   LIG d   1      -4.583  90.654 114.985  0.00  0.00    -0.090 HD
ATOM     21  H   LIG d   1      -5.669  89.524 115.461  0.00  0.00    -0.090 HD
ENDBRANCH   5  18
BRANCH   3  22
ATOM     22  C   LIG d   1      -2.969  93.255 118.694  0.00  0.00     0.382 C 
ATOM     23  O   LIG d   1      -2.928  94.488 118.921  0.00  0.00    -0.241 OA
ATOM     24  O   LIG d   1      -1.966  92.554 118.930  0.00  0.00    -0.241 OA
ENDBRANCH   3  22
TORSDOF 7
ENDMDL
MODEL 8
REMARK VINA RESULT:      -4.0      1.433      2.156
REMARK  7 active torsions:
REMARK  status: ('A' for Active; 'I' for Inactive)
REMARK    1  A    between atoms: C_2  and  C_3 
REMARK    2  A    between atoms: C_3  and  O_6 
REMARK    3  A    between atoms: C_3  and  C_4 
REMARK    4  A    between atoms: C_7  and  O_6 
REMARK    5  A    between atoms: C_9  and  C_10 
REMARK    6  A    between atoms: N_15  and  C_14 
REMARK    7  A    between atoms: N_20  and  C_19 
REMARK       I    between atoms: C_22  and  N_20 
ROOT
ATOM      1  C   LIG d   1       2.813  89.681 116.391  0.00  0.00     0.161 C 
ATOM      2  C   LIG d   1       1.447  89.768 116.707  0.00  0.00     0.016 C 
ATOM      3  C   LIG d   1       0.919  90.709 117.620  0.00  0.00     0.038 C 
ATOM      4  C   LIG d   1       1.706  91.733 118.169  0.00  0.00     0.028 C 
ATOM      5  C   LIG d   1       3.184  91.372 118.270  0.00  0.00    -0.047 C 
ATOM      6  C   LIG d   1       3.671  90.860 116.894  0.00  0.00     0.091 C 
ENDROOT
BRANCH   1   7
ATOM      7  O   LIG d   1       2.976  89.515 114.968  0.00  0.00    -0.368 OA
BRANCH   7   8
ATOM      8  C   LIG d   1       3.617  88.288 114.539  0.00  0.00     0.119 C 
BRANCH   8   9
ATOM      9  C   LIG d   1       4.434  88.612 113.273  0.00  0.00     0.028 C 
ATOM     10  C   LIG d   1       5.834  89.158 113.602  0.00  0.00     0.006 C 
ENDBRANCH   8   9
BRANCH   8  11
ATOM     11  C   LIG d   1       2.586  87.244 114.100  0.00  0.00     0.028 C 
ATOM     12  C   LIG d   1       2.502  87.095 112.573  0.00  0.00     0.006 C 
ENDBRANCH   8  11
ENDBRANCH   7   8
ENDBRANCH   1   7
BRANCH   6  13
ATOM     13  N   LIG d   1       5.086  90.407 116.927  0.00  0.00    -0.311 N 
ATOM     14  C   LIG d   1       5.511  89.384 117.666  0.00  0.00     0.210 C 
ATOM     15  C   LIG d   1       7.012  89.095 117.568  0.00  0.00     0.109 C 
ATOM     16  O   LIG d   1       4.782  88.668 118.369  0.00  0.00    -0.276 OA
ATOM     17  H   LIG d   1       5.740  90.912 116.362  0.00  0.00     0.149 HD
ENDBRANCH   6  13
BRANCH   5  18
ATOM     18  N   LIG d   1       3.906  92.574 118.727  0.00  0.00     0.381 N 
ATOM     19  H   LIG d   1       3.888  93.274 118.012  0.00  0.00    -0.090 HD
ATOM     20  H   LIG d   1       4.865  92.330 118.905  0.00  0.00    -0.090 HD
ATOM     21  H   LIG d   1       3.486  92.928 119.559  0.00  0.00    -0.090 HD
ENDBRANCH   5  18
BRANCH   3  22
ATOM     22  C   LIG d   1      -0.403  90.607 118.025  0.00  0.00     0.382 C 
ATOM     23  O   LIG d   1      -1.064  91.644 118.276  0.00  0.00    -0.241 OA
ATOM     24  O   LIG d   1      -0.931  89.490 118.184  0.00  0.00    -0.241 OA
ENDBRANCH   3  22
TORSDOF 7
ENDMDL
MODEL 9
REMARK VINA RESULT:      -3.9      2.297      4.575
REMARK  7 active torsions:
REMARK  status: ('A' for Active; 'I' for Inactive)
REMARK    1  A    between atoms: C_2  and  C_3 
REMARK    2  A    between atoms: C_3  and  O_6 
REMARK    3  A    between atoms: C_3  and  C_4 
REMARK    4  A    between atoms: C_7  and  O_6 
REMARK    5  A    between atoms: C_9  and  C_10 
REMARK    6  A    between atoms: N_15  and  C_14 
REMARK    7  A    between atoms: N_20  and  C_19 
REMARK       I    between atoms: C_22  and  N_20 
ROOT
ATOM      1  C   LIG d   1       4.831  88.985 114.983  0.00  0.00     0.161 C 
ATOM      2  C   LIG d   1       3.840  88.755 114.014  0.00  0.00     0.016 C 
ATOM      3  C   LIG d   1       3.138  87.534 113.895  0.00  0.00     0.038 C 
ATOM      4  C   LIG d   1       3.275  86.504 114.838  0.00  0.00     0.028 C 
ATOM      5  C   LIG d   1       4.630  86.499 115.536  0.00  0.00    -0.047 C 
ATOM      6  C   LIG d   1       4.915  87.914 116.090  0.00  0.00     0.091 C 
ENDROOT
BRANCH   1   7
ATOM      7  O   LIG d   1       4.653  90.293 115.563  0.00  0.00    -0.368 OA
BRANCH   7   8
ATOM      8  C   LIG d   1       3.867  90.348 116.779  0.00  0.00     0.119 C 
BRANCH   8   9
ATOM      9  C   LIG d   1       2.384  90.232 116.377  0.00  0.00     0.028 C 
ATOM     10  C   LIG d   1       1.656  89.111 117.138  0.00  0.00     0.006 C 
ENDBRANCH   8   9
BRANCH   8  11
ATOM     11  C   LIG d   1       3.996  91.712 117.464  0.00  0.00     0.028 C 
ATOM     12  C   LIG d   1       3.535  91.689 118.930  0.00  0.00     0.006 C 
ENDBRANCH   8  11
ENDBRANCH   7   8
ENDBRANCH   1   7
BRANCH   6  13
ATOM     13  N   LIG d   1       6.259  88.018 116.715  0.00  0.00    -0.311 N 
ATOM     14  C   LIG d   1       6.448  88.236 118.015  0.00  0.00     0.210 C 
ATOM     15  C   LIG d   1       7.914  88.328 118.449  0.00  0.00     0.109 C 
ATOM     16  O   LIG d   1       5.541  88.329 118.856  0.00  0.00    -0.276 OA
ATOM     17  H   LIG d   1       7.052  87.923 116.111  0.00  0.00     0.149 HD
ENDBRANCH   6  13
BRANCH   5  18
ATOM     18  N   LIG d   1       4.586  85.465 116.587  0.00  0.00     0.381 N 
ATOM     19  H   LIG d   1       3.766  84.903 116.475  0.00  0.00    -0.090 HD
ATOM     20  H   LIG d   1       4.539  85.915 117.484  0.00  0.00    -0.090 HD
ATOM     21  H   LIG d   1       5.400  84.892 116.537  0.00  0.00    -0.090 HD
ENDBRANCH   5  18
BRANCH   3  22
ATOM     22  C   LIG d   1       2.317  87.317 112.798  0.00  0.00     0.382 C 
ATOM     23  O   LIG d   1       1.226  86.714 112.941  0.00  0.00    -0.241 OA
ATOM     24  O   LIG d   1       2.674  87.679 111.661  0.00  0.00    -0.241 OA
ENDBRANCH   3  22
TORSDOF 7
ENDMDL
