MODEL 1
REMARK VINA RESULT:      -5.1      0.000      0.000
REMARK  7 active torsions:
REMARK  status: ('A' for Active; 'I' for Inactive)
REMARK    1  A    between atoms: C_2  and  C_3 
REMARK    2  A    between atoms: C_3  and  O_6 
REMARK    3  A    between atoms: C_3  and  C_4 
REMARK    4  A    between atoms: C_7  and  O_6 
REMARK    5  A    between atoms: C_9  and  C_10 
REMARK    6  A    between atoms: N_15  and  C_14 
REMARK    7  A    between atoms: N_20  and  C_19 
REMARK       I    between atoms: C_22  and  N_20 
ROOT
ATOM      1  C   LIG d   1       3.406  88.189 115.574  0.00  0.00     0.161 C 
ATOM      2  C   LIG d   1       4.038  88.841 116.646  0.00  0.00     0.016 C 
ATOM      3  C   LIG d   1       5.296  89.479 116.537  0.00  0.00     0.038 C 
ATOM      4  C   LIG d   1       5.941  89.639 115.302  0.00  0.00     0.028 C 
ATOM      5  C   LIG d   1       5.582  88.559 114.286  0.00  0.00    -0.047 C 
ATOM      6  C   LIG d   1       4.043  88.450 114.193  0.00  0.00     0.091 C 
ENDROOT
BRANCH   1   7
ATOM      7  O   LIG d   1       2.006  88.530 115.553  0.00  0.00    -0.368 OA
BRANCH   7   8
ATOM      8  C   LIG d   1       1.432  88.948 116.815  0.00  0.00     0.119 C 
BRANCH   8   9
ATOM      9  C   LIG d   1       0.314  87.948 117.169  0.00  0.00     0.028 C 
ATOM     10  C   LIG d   1      -1.028  88.645 117.453  0.00  0.00     0.006 C 
ENDBRANCH   8   9
BRANCH   8  11
ATOM     11  C   LIG d   1       0.737  90.306 116.689  0.00  0.00     0.028 C 
ATOM     12  C   LIG d   1       1.567  91.457 117.280  0.00  0.00     0.006 C 
ENDBRANCH   8  11
ENDBRANCH   7   8
ENDBRANCH   1   7
BRANCH   6  13
ATOM     13  N   LIG d   1       3.607  87.358 113.284  0.00  0.00    -0.311 N 
ATOM     14  C   LIG d   1       2.685  87.519 112.336  0.00  0.00     0.210 C 
ATOM     15  C   LIG d   1       2.368  86.260 111.522  0.00  0.00     0.109 C 
ATOM     16  O   LIG d   1       2.123  88.592 112.070  0.00  0.00    -0.276 OA
ATOM     17  H   LIG d   1       4.034  86.462 113.409  0.00  0.00     0.149 HD
ENDBRANCH   6  13
BRANCH   5  18
ATOM     18  N   LIG d   1       6.215  88.925 113.005  0.00  0.00     0.381 N 
ATOM     19  H   LIG d   1       5.512  89.049 112.304  0.00  0.00    -0.090 HD
ATOM     20  H   LIG d   1       6.820  88.176 112.716  0.00  0.00    -0.090 HD
ATOM     21  H   LIG d   1       6.740  89.764 113.111  0.00  0.00    -0.090 HD
ENDBRANCH   5  18
BRANCH   3  22
ATOM     22  C   LIG d   1       5.939  89.929 117.680  0.00  0.00     0.382 C 
ATOM     23  O   LIG d   1       5.301  90.049 118.753  0.00  0.00    -0.241 OA
ATOM     24  O   LIG d   1       7.140  90.259 117.640  0.00  0.00    -0.241 OA
ENDBRANCH   3  22
TORSDOF 7
ENDMDL
MODEL 2
REMARK VINA RESULT:      -5.1      1.539      4.656
REMARK  7 active torsions:
REMARK  status: ('A' for Active; 'I' for Inactive)
REMARK    1  A    between atoms: C_2  and  C_3 
REMARK    2  A    between atoms: C_3  and  O_6 
REMARK    3  A    between atoms: C_3  and  C_4 
REMARK    4  A    between atoms: C_7  and  O_6 
REMARK    5  A    between atoms: C_9  and  C_10 
REMARK    6  A    between atoms: N_15  and  C_14 
REMARK    7  A    between atoms: N_20  and  C_19 
REMARK       I    between atoms: C_22  and  N_20 
ROOT
ATOM      1  C   LIG d   1       3.352  88.468 115.425  0.00  0.00     0.161 C 
ATOM      2  C   LIG d   1       2.659  87.915 114.335  0.00  0.00     0.016 C 
ATOM      3  C   LIG d   1       3.202  87.826 113.032  0.00  0.00     0.038 C 
ATOM      4  C   LIG d   1       4.540  88.148 112.763  0.00  0.00     0.028 C 
ATOM      5  C   LIG d   1       5.119  89.182 113.723  0.00  0.00    -0.047 C 
ATOM      6  C   LIG d   1       4.853  88.723 115.175  0.00  0.00     0.091 C 
ENDROOT
BRANCH   1   7
ATOM      7  O   LIG d   1       3.172  87.638 116.590  0.00  0.00    -0.368 OA
BRANCH   7   8
ATOM      8  C   LIG d   1       2.330  88.183 117.636  0.00  0.00     0.119 C 
BRANCH   8   9
ATOM      9  C   LIG d   1       1.060  87.314 117.707  0.00  0.00     0.028 C 
ATOM     10  C   LIG d   1      -0.165  88.014 117.095  0.00  0.00     0.006 C 
ENDBRANCH   8   9
BRANCH   8  11
ATOM     11  C   LIG d   1       1.840  89.590 117.281  0.00  0.00     0.028 C 
ATOM     12  C   LIG d   1       2.329  90.658 118.272  0.00  0.00     0.006 C 
ENDBRANCH   8  11
ENDBRANCH   7   8
ENDBRANCH   1   7
BRANCH   6  13
ATOM     13  N   LIG d   1       5.314  89.718 116.178  0.00  0.00    -0.311 N 
ATOM     14  C   LIG d   1       6.412  89.562 116.915  0.00  0.00     0.210 C 
ATOM     15  C   LIG d   1       6.694  90.699 117.903  0.00  0.00     0.109 C 
ATOM     16  O   LIG d   1       7.196  88.606 116.823  0.00  0.00    -0.276 OA
ATOM     17  H   LIG d   1       4.753  90.540 116.296  0.00  0.00     0.149 HD
ENDBRANCH   6  13
BRANCH   5  18
ATOM     18  N   LIG d   1       6.555  89.321 113.415  0.00  0.00     0.381 N 
ATOM     19  H   LIG d   1       6.689  89.338 112.423  0.00  0.00    -0.090 HD
ATOM     20  H   LIG d   1       7.046  88.527 113.785  0.00  0.00    -0.090 HD
ATOM     21  H   LIG d   1       6.911  90.159 113.819  0.00  0.00    -0.090 HD
ENDBRANCH   5  18
BRANCH   3  22
ATOM     22  C   LIG d   1       2.390  87.448 111.974  0.00  0.00     0.382 C 
ATOM     23  O   LIG d   1       1.634  88.290 111.431  0.00  0.00    -0.241 OA
ATOM     24  O   LIG d   1       2.370  86.265 111.585  0.00  0.00    -0.241 OA
ENDBRANCH   3  22
TORSDOF 7
ENDMDL
MODEL 3
REMARK VINA RESULT:      -4.9      1.100      1.871
REMARK  7 active torsions:
REMARK  status: ('A' for Active; 'I' for Inactive)
REMARK    1  A    between atoms: C_2  and  C_3 
REMARK    2  A    between atoms: C_3  and  O_6 
REMARK    3  A    between atoms: C_3  and  C_4 
REMARK    4  A    between atoms: C_7  and  O_6 
REMARK    5  A    between atoms: C_9  and  C_10 
REMARK    6  A    between atoms: N_15  and  C_14 
REMARK    7  A    between atoms: N_20  and  C_19 
REMARK       I    between atoms: C_22  and  N_20 
ROOT
ATOM      1  C   LIG d   1       3.455  88.079 115.558  0.00  0.00     0.161 C 
ATOM      2  C   LIG d   1       4.075  88.694 116.658  0.00  0.00     0.016 C 
ATOM      3  C   LIG d   1       5.318  89.363 116.577  0.00  0.00     0.038 C 
ATOM      4  C   LIG d   1       5.957  89.594 115.350  0.00  0.00     0.028 C 
ATOM      5  C   LIG d   1       5.620  88.554 114.286  0.00  0.00    -0.047 C 
ATOM      6  C   LIG d   1       4.083  88.416 114.189  0.00  0.00     0.091 C 
ENDROOT
BRANCH   1   7
ATOM      7  O   LIG d   1       2.048  88.390 115.553  0.00  0.00    -0.368 OA
BRANCH   7   8
ATOM      8  C   LIG d   1       1.157  87.319 115.951  0.00  0.00     0.119 C 
BRANCH   8   9
ATOM      9  C   LIG d   1       0.599  87.675 117.343  0.00  0.00     0.028 C 
ATOM     10  C   LIG d   1      -0.792  88.328 117.268  0.00  0.00     0.006 C 
ENDBRANCH   8   9
BRANCH   8  11
ATOM     11  C   LIG d   1       1.918  86.004 116.144  0.00  0.00     0.028 C 
ATOM     12  C   LIG d   1       1.767  85.430 117.562  0.00  0.00     0.006 C 
ENDBRANCH   8  11
ENDBRANCH   7   8
ENDBRANCH   1   7
BRANCH   6  13
ATOM     13  N   LIG d   1       3.669  87.358 113.231  0.00  0.00    -0.311 N 
ATOM     14  C   LIG d   1       2.731  87.537 112.302  0.00  0.00     0.210 C 
ATOM     15  C   LIG d   1       2.442  86.311 111.431  0.00  0.00     0.109 C 
ATOM     16  O   LIG d   1       2.134  88.604 112.097  0.00  0.00    -0.276 OA
ATOM     17  H   LIG d   1       4.125  86.470 113.307  0.00  0.00     0.149 HD
ENDBRANCH   6  13
BRANCH   5  18
ATOM     18  N   LIG d   1       6.242  88.992 113.022  0.00  0.00     0.381 N 
ATOM     19  H   LIG d   1       6.857  88.279 112.683  0.00  0.00    -0.090 HD
ATOM     20  H   LIG d   1       6.785  89.819 113.196  0.00  0.00    -0.090 HD
ATOM     21  H   LIG d   1       5.538  89.184 112.344  0.00  0.00    -0.090 HD
ENDBRANCH   5  18
BRANCH   3  22
ATOM     22  C   LIG d   1       5.954  89.775 117.738  0.00  0.00     0.382 C 
ATOM     23  O   LIG d   1       7.118  90.240 117.685  0.00  0.00    -0.241 OA
ATOM     24  O   LIG d   1       5.395  89.645 118.844  0.00  0.00    -0.241 OA
ENDBRANCH   3  22
TORSDOF 7
ENDMDL
MODEL 4
REMARK VINA RESULT:      -4.6      3.259      6.436
REMARK  7 active torsions:
REMARK  status: ('A' for Active; 'I' for Inactive)
REMARK    1  A    between atoms: C_2  and  C_3 
REMARK    2  A    between atoms: C_3  and  O_6 
REMARK    3  A    between atoms: C_3  and  C_4 
REMARK    4  A    between atoms: C_7  and  O_6 
REMARK    5  A    between atoms: C_9  and  C_10 
REMARK    6  A    between atoms: N_15  and  C_14 
REMARK    7  A    between atoms: N_20  and  C_19 
REMARK       I    between atoms: C_22  and  N_20 
ROOT
ATOM      1  C   LIG d   1       0.970  88.791 117.158  0.00  0.00     0.161 C 
ATOM      2  C   LIG d   1      -0.418  88.575 117.185  0.00  0.00     0.016 C 
ATOM      3  C   LIG d   1      -1.346  89.538 117.642  0.00  0.00     0.038 C 
ATOM      4  C   LIG d   1      -0.959  90.847 117.964  0.00  0.00     0.028 C 
ATOM      5  C   LIG d   1       0.489  90.953 118.432  0.00  0.00    -0.047 C 
ATOM      6  C   LIG d   1       1.402  90.252 117.400  0.00  0.00     0.091 C 
ENDROOT
BRANCH   1   7
ATOM      7  O   LIG d   1       1.516  88.307 115.915  0.00  0.00    -0.368 OA
BRANCH   7   8
ATOM      8  C   LIG d   1       2.467  87.219 116.017  0.00  0.00     0.119 C 
BRANCH   8   9
ATOM      9  C   LIG d   1       3.590  87.489 114.997  0.00  0.00     0.028 C 
ATOM     10  C   LIG d   1       3.559  88.929 114.456  0.00  0.00     0.006 C 
ENDBRANCH   8   9
BRANCH   8  11
ATOM     11  C   LIG d   1       1.841  85.889 115.588  0.00  0.00     0.028 C 
ATOM     12  C   LIG d   1       1.136  85.975 114.224  0.00  0.00     0.006 C 
ENDBRANCH   8  11
ENDBRANCH   7   8
ENDBRANCH   1   7
BRANCH   6  13
ATOM     13  N   LIG d   1       2.827  90.236 117.823  0.00  0.00    -0.311 N 
ATOM     14  C   LIG d   1       3.701  91.185 117.492  0.00  0.00     0.210 C 
ATOM     15  C   LIG d   1       5.123  90.965 118.016  0.00  0.00     0.109 C 
ATOM     16  O   LIG d   1       3.425  92.204 116.842  0.00  0.00    -0.276 OA
ATOM     17  H   LIG d   1       3.128  89.460 118.380  0.00  0.00     0.149 HD
ENDBRANCH   6  13
BRANCH   5  18
ATOM     18  N   LIG d   1       0.799  92.385 118.601  0.00  0.00     0.381 N 
ATOM     19  H   LIG d   1       0.730  92.635 119.568  0.00  0.00    -0.090 HD
ATOM     20  H   LIG d   1       0.127  92.926 118.087  0.00  0.00    -0.090 HD
ATOM     21  H   LIG d   1       1.718  92.577 118.266  0.00  0.00    -0.090 HD
ENDBRANCH   5  18
BRANCH   3  22
ATOM     22  C   LIG d   1      -2.675  89.182 117.819  0.00  0.00     0.382 C 
ATOM     23  O   LIG d   1      -3.568  89.733 117.133  0.00  0.00    -0.241 OA
ATOM     24  O   LIG d   1      -2.995  88.349 118.688  0.00  0.00    -0.241 OA
ENDBRANCH   3  22
TORSDOF 7
ENDMDL
MODEL 5
REMARK VINA RESULT:      -4.6      2.560      5.458
REMARK  7 active torsions:
REMARK  status: ('A' for Active; 'I' for Inactive)
REMARK    1  A    between atoms: C_2  and  C_3 
REMARK    2  A    between atoms: C_3  and  O_6 
REMARK    3  A    between atoms: C_3  and  C_4 
REMARK    4  A    between atoms: C_7  and  O_6 
REMARK    5  A    between atoms: C_9  and  C_10 
REMARK    6  A    between atoms: N_15  and  C_14 
REMARK    7  A    between atoms: N_20  and  C_19 
REMARK       I    between atoms: C_22  and  N_20 
ROOT
ATOM      1  C   LIG d   1       3.026  89.403 116.027  0.00  0.00     0.161 C 
ATOM      2  C   LIG d   1       1.831  90.128 116.171  0.00  0.00     0.016 C 
ATOM      3  C   LIG d   1       1.646  91.136 117.145  0.00  0.00     0.038 C 
ATOM      4  C   LIG d   1       2.700  91.594 117.948  0.00  0.00     0.028 C 
ATOM      5  C   LIG d   1       3.782  90.545 118.184  0.00  0.00    -0.047 C 
ATOM      6  C   LIG d   1       4.223  89.965 116.821  0.00  0.00     0.091 C 
ENDROOT
BRANCH   1   7
ATOM      7  O   LIG d   1       3.361  89.285 114.630  0.00  0.00    -0.368 OA
BRANCH   7   8
ATOM      8  C   LIG d   1       3.718  87.959 114.170  0.00  0.00     0.119 C 
BRANCH   8   9
ATOM      9  C   LIG d   1       4.759  88.123 113.046  0.00  0.00     0.028 C 
ATOM     10  C   LIG d   1       5.821  89.185 113.380  0.00  0.00     0.006 C 
ENDBRANCH   8   9
BRANCH   8  11
ATOM     11  C   LIG d   1       2.524  87.256 113.517  0.00  0.00     0.028 C 
ATOM     12  C   LIG d   1       2.385  87.583 112.021  0.00  0.00     0.006 C 
ENDBRANCH   8  11
ENDBRANCH   7   8
ENDBRANCH   1   7
BRANCH   6  13
ATOM     13  N   LIG d   1       5.219  88.871 116.967  0.00  0.00    -0.311 N 
ATOM     14  C   LIG d   1       6.536  89.075 116.974  0.00  0.00     0.210 C 
ATOM     15  C   LIG d   1       7.385  87.808 117.115  0.00  0.00     0.109 C 
ATOM     16  O   LIG d   1       7.080  90.188 116.910  0.00  0.00    -0.276 OA
ATOM     17  H   LIG d   1       4.864  87.939 117.056  0.00  0.00     0.149 HD
ENDBRANCH   6  13
BRANCH   5  18
ATOM     18  N   LIG d   1       4.882  91.197 118.919  0.00  0.00     0.381 N 
ATOM     19  H   LIG d   1       4.767  91.051 119.902  0.00  0.00    -0.090 HD
ATOM     20  H   LIG d   1       4.851  92.185 118.741  0.00  0.00    -0.090 HD
ATOM     21  H   LIG d   1       5.758  90.826 118.621  0.00  0.00    -0.090 HD
ENDBRANCH   5  18
BRANCH   3  22
ATOM     22  C   LIG d   1       0.382  91.670 117.350  0.00  0.00     0.382 C 
ATOM     23  O   LIG d   1      -0.612  90.910 117.439  0.00  0.00    -0.241 OA
ATOM     24  O   LIG d   1       0.218  92.903 117.402  0.00  0.00    -0.241 OA
ENDBRANCH   3  22
TORSDOF 7
ENDMDL
MODEL 6
REMARK VINA RESULT:      -4.4      2.372      5.401
REMARK  7 active torsions:
REMARK  status: ('A' for Active; 'I' for Inactive)
REMARK    1  A    between atoms: C_2  and  C_3 
REMARK    2  A    between atoms: C_3  and  O_6 
REMARK    3  A    between atoms: C_3  and  C_4 
REMARK    4  A    between atoms: C_7  and  O_6 
REMARK    5  A    between atoms: C_9  and  C_10 
REMARK    6  A    between atoms: N_15  and  C_14 
REMARK    7  A    between atoms: N_20  and  C_19 
REMARK       I    between atoms: C_22  and  N_20 
ROOT
ATOM      1  C   LIG d   1       3.738  87.307 115.960  0.00  0.00     0.161 C 
ATOM      2  C   LIG d   1       2.381  87.664 115.893  0.00  0.00     0.016 C 
ATOM      3  C   LIG d   1       1.792  88.645 116.724  0.00  0.00     0.038 C 
ATOM      4  C   LIG d   1       2.560  89.449 117.581  0.00  0.00     0.028 C 
ATOM      5  C   LIG d   1       3.848  88.779 118.046  0.00  0.00    -0.047 C 
ATOM      6  C   LIG d   1       4.614  88.251 116.811  0.00  0.00     0.091 C 
ENDROOT
BRANCH   1   7
ATOM      7  O   LIG d   1       4.278  87.188 114.629  0.00  0.00    -0.368 OA
BRANCH   7   8
ATOM      8  C   LIG d   1       3.652  88.007 113.611  0.00  0.00     0.119 C 
BRANCH   8   9
ATOM      9  C   LIG d   1       3.777  87.256 112.271  0.00  0.00     0.028 C 
ATOM     10  C   LIG d   1       2.412  87.003 111.611  0.00  0.00     0.006 C 
ENDBRANCH   8   9
BRANCH   8  11
ATOM     11  C   LIG d   1       4.409  89.323 113.411  0.00  0.00     0.028 C 
ATOM     12  C   LIG d   1       5.934  89.149 113.482  0.00  0.00     0.006 C 
ENDBRANCH   8  11
ENDBRANCH   7   8
ENDBRANCH   1   7
BRANCH   6  13
ATOM     13  N   LIG d   1       5.846  87.507 117.183  0.00  0.00    -0.311 N 
ATOM     14  C   LIG d   1       7.056  88.063 117.216  0.00  0.00     0.210 C 
ATOM     15  C   LIG d   1       8.193  87.114 117.606  0.00  0.00     0.109 C 
ATOM     16  O   LIG d   1       7.291  89.260 116.990  0.00  0.00    -0.276 OA
ATOM     17  H   LIG d   1       5.742  86.538 117.412  0.00  0.00     0.149 HD
ENDBRANCH   6  13
BRANCH   5  18
ATOM     18  N   LIG d   1       4.615  89.775 118.819  0.00  0.00     0.381 N 
ATOM     19  H   LIG d   1       4.760  89.442 119.751  0.00  0.00    -0.090 HD
ATOM     20  H   LIG d   1       4.084  90.627 118.867  0.00  0.00    -0.090 HD
ATOM     21  H   LIG d   1       5.492  89.947 118.379  0.00  0.00    -0.090 HD
ENDBRANCH   5  18
BRANCH   3  22
ATOM     22  C   LIG d   1       0.415  88.803 116.732  0.00  0.00     0.382 C 
ATOM     23  O   LIG d   1      -0.332  87.801 116.623  0.00  0.00    -0.241 OA
ATOM     24  O   LIG d   1      -0.090  89.940 116.801  0.00  0.00    -0.241 OA
ENDBRANCH   3  22
TORSDOF 7
ENDMDL
MODEL 7
REMARK VINA RESULT:      -4.4      2.589      4.604
REMARK  7 active torsions:
REMARK  status: ('A' for Active; 'I' for Inactive)
REMARK    1  A    between atoms: C_2  and  C_3 
REMARK    2  A    between atoms: C_3  and  O_6 
REMARK    3  A    between atoms: C_3  and  C_4 
REMARK    4  A    between atoms: C_7  and  O_6 
REMARK    5  A    between atoms: C_9  and  C_10 
REMARK    6  A    between atoms: N_15  and  C_14 
REMARK    7  A    between atoms: N_20  and  C_19 
REMARK       I    between atoms: C_22  and  N_20 
ROOT
ATOM      1  C   LIG d   1       2.979  88.829 115.801  0.00  0.00     0.161 C 
ATOM      2  C   LIG d   1       3.833  88.903 114.688  0.00  0.00     0.016 C 
ATOM      3  C   LIG d   1       3.844  87.942 113.650  0.00  0.00     0.038 C 
ATOM      4  C   LIG d   1       2.891  86.915 113.580  0.00  0.00     0.028 C 
ATOM      5  C   LIG d   1       2.337  86.509 114.942  0.00  0.00    -0.047 C 
ATOM      6  C   LIG d   1       1.857  87.776 115.686  0.00  0.00     0.091 C 
ENDROOT
BRANCH   1   7
ATOM      7  O   LIG d   1       2.421  90.128 116.077  0.00  0.00    -0.368 OA
BRANCH   7   8
ATOM      8  C   LIG d   1       2.780  90.719 117.350  0.00  0.00     0.119 C 
BRANCH   8   9
ATOM      9  C   LIG d   1       1.755  91.831 117.650  0.00  0.00     0.028 C 
ATOM     10  C   LIG d   1       0.343  91.476 117.155  0.00  0.00     0.006 C 
ENDBRANCH   8   9
BRANCH   8  11
ATOM     11  C   LIG d   1       4.135  91.428 117.273  0.00  0.00     0.028 C 
ATOM     12  C   LIG d   1       5.173  90.835 118.239  0.00  0.00     0.006 C 
ENDBRANCH   8  11
ENDBRANCH   7   8
ENDBRANCH   1   7
BRANCH   6  13
ATOM     13  N   LIG d   1       1.377  87.478 117.061  0.00  0.00    -0.311 N 
ATOM     14  C   LIG d   1       0.129  87.706 117.468  0.00  0.00     0.210 C 
ATOM     15  C   LIG d   1      -0.150  87.345 118.930  0.00  0.00     0.109 C 
ATOM     16  O   LIG d   1      -0.781  88.142 116.747  0.00  0.00    -0.276 OA
ATOM     17  H   LIG d   1       2.042  87.093 117.703  0.00  0.00     0.149 HD
ENDBRANCH   6  13
BRANCH   5  18
ATOM     18  N   LIG d   1       1.258  85.531 114.710  0.00  0.00     0.381 N 
ATOM     19  H   LIG d   1       1.130  84.968 115.527  0.00  0.00    -0.090 HD
ATOM     20  H   LIG d   1       1.523  84.928 113.951  0.00  0.00    -0.090 HD
ATOM     21  H   LIG d   1       0.410  86.004 114.488  0.00  0.00    -0.090 HD
ENDBRANCH   5  18
BRANCH   3  22
ATOM     22  C   LIG d   1       4.843  87.981 112.689  0.00  0.00     0.382 C 
ATOM     23  O   LIG d   1       5.835  88.733 112.845  0.00  0.00    -0.241 OA
ATOM     24  O   LIG d   1       4.743  87.306 111.647  0.00  0.00    -0.241 OA
ENDBRANCH   3  22
TORSDOF 7
ENDMDL
MODEL 8
REMARK VINA RESULT:      -4.3      5.601      7.738
REMARK  7 active torsions:
REMARK  status: ('A' for Active; 'I' for Inactive)
REMARK    1  A    between atoms: C_2  and  C_3 
REMARK    2  A    between atoms: C_3  and  O_6 
REMARK    3  A    between atoms: C_3  and  C_4 
REMARK    4  A    between atoms: C_7  and  O_6 
REMARK    5  A    between atoms: C_9  and  C_10 
REMARK    6  A    between atoms: N_15  and  C_14 
REMARK    7  A    between atoms: N_20  and  C_19 
REMARK       I    between atoms: C_22  and  N_20 
ROOT
ATOM      1  C   LIG d   1      -2.739  91.449 118.684  0.00  0.00     0.161 C 
ATOM      2  C   LIG d   1      -2.846  92.840 118.513  0.00  0.00     0.016 C 
ATOM      3  C   LIG d   1      -1.816  93.638 117.963  0.00  0.00     0.038 C 
ATOM      4  C   LIG d   1      -0.659  93.074 117.405  0.00  0.00     0.028 C 
ATOM      5  C   LIG d   1      -0.289  91.725 118.013  0.00  0.00    -0.047 C 
ATOM      6  C   LIG d   1      -1.529  90.802 117.979  0.00  0.00     0.091 C 
ENDROOT
BRANCH   1   7
ATOM      7  O   LIG d   1      -3.962  90.810 118.268  0.00  0.00    -0.368 OA
BRANCH   7   8
ATOM      8  C   LIG d   1      -4.764  91.535 117.305  0.00  0.00     0.119 C 
BRANCH   8   9
ATOM      9  C   LIG d   1      -6.100  91.890 117.987  0.00  0.00     0.028 C 
ATOM     10  C   LIG d   1      -6.370  93.404 117.997  0.00  0.00     0.006 C 
ENDBRANCH   8   9
BRANCH   8  11
ATOM     11  C   LIG d   1      -5.141  90.649 116.114  0.00  0.00     0.028 C 
ATOM     12  C   LIG d   1      -6.282  91.238 115.269  0.00  0.00     0.006 C 
ENDBRANCH   8  11
ENDBRANCH   7   8
ENDBRANCH   1   7
BRANCH   6  13
ATOM     13  N   LIG d   1      -1.277  89.491 118.632  0.00  0.00    -0.311 N 
ATOM     14  C   LIG d   1      -0.860  88.412 117.971  0.00  0.00     0.210 C 
ATOM     15  C   LIG d   1      -0.682  87.156 118.831  0.00  0.00     0.109 C 
ATOM     16  O   LIG d   1      -0.590  88.383 116.761  0.00  0.00    -0.276 OA
ATOM     17  H   LIG d   1      -1.440  89.433 119.618  0.00  0.00     0.149 HD
ENDBRANCH   6  13
BRANCH   5  18
ATOM     18  N   LIG d   1       0.852  91.189 117.247  0.00  0.00     0.381 N 
ATOM     19  H   LIG d   1       1.090  90.279 117.586  0.00  0.00    -0.090 HD
ATOM     20  H   LIG d   1       1.644  91.792 117.379  0.00  0.00    -0.090 HD
ATOM     21  H   LIG d   1       0.620  91.141 116.279  0.00  0.00    -0.090 HD
ENDBRANCH   5  18
BRANCH   3  22
ATOM     22  C   LIG d   1      -1.921  95.020 118.005  0.00  0.00     0.382 C 
ATOM     23  O   LIG d   1      -2.566  95.572 118.929  0.00  0.00    -0.241 OA
ATOM     24  O   LIG d   1      -1.417  95.719 117.106  0.00  0.00    -0.241 OA
ENDBRANCH   3  22
TORSDOF 7
ENDMDL
MODEL 9
REMARK VINA RESULT:      -4.1      6.996      9.448
REMARK  7 active torsions:
REMARK  status: ('A' for Active; 'I' for Inactive)
REMARK    1  A    between atoms: C_2  and  C_3 
REMARK    2  A    between atoms: C_3  and  O_6 
REMARK    3  A    between atoms: C_3  and  C_4 
REMARK    4  A    between atoms: C_7  and  O_6 
REMARK    5  A    between atoms: C_9  and  C_10 
REMARK    6  A    between atoms: N_15  and  C_14 
REMARK    7  A    between atoms: N_20  and  C_19 
REMARK       I    between atoms: C_22  and  N_20 
ROOT
ATOM      1  C   LIG d   1      -4.285  91.281 117.041  0.00  0.00     0.161 C 
ATOM      2  C   LIG d   1      -3.497  92.259 117.671  0.00  0.00     0.016 C 
ATOM      3  C   LIG d   1      -4.038  93.387 118.330  0.00  0.00     0.038 C 
ATOM      4  C   LIG d   1      -5.417  93.536 118.534  0.00  0.00     0.028 C 
ATOM      5  C   LIG d   1      -6.265  92.835 117.479  0.00  0.00    -0.047 C 
ATOM      6  C   LIG d   1      -5.794  91.368 117.349  0.00  0.00     0.091 C 
ENDROOT
BRANCH   1   7
ATOM      7  O   LIG d   1      -3.783  89.969 117.361  0.00  0.00    -0.368 OA
BRANCH   7   8
ATOM      8  C   LIG d   1      -2.654  89.922 118.268  0.00  0.00     0.119 C 
BRANCH   8   9
ATOM      9  C   LIG d   1      -1.375  90.087 117.425  0.00  0.00     0.028 C 
ATOM     10  C   LIG d   1      -0.287  90.888 118.160  0.00  0.00     0.006 C 
ENDBRANCH   8   9
BRANCH   8  11
ATOM     11  C   LIG d   1      -2.528  88.546 118.930  0.00  0.00     0.028 C 
ATOM     12  C   LIG d   1      -1.339  87.733 118.393  0.00  0.00     0.006 C 
ENDBRANCH   8  11
ENDBRANCH   7   8
ENDBRANCH   1   7
BRANCH   6  13
ATOM     13  N   LIG d   1      -6.515  90.634 116.278  0.00  0.00    -0.311 N 
ATOM     14  C   LIG d   1      -6.676  91.108 115.044  0.00  0.00     0.210 C 
ATOM     15  C   LIG d   1      -7.469  90.199 114.099  0.00  0.00     0.109 C 
ATOM     16  O   LIG d   1      -6.210  92.182 114.632  0.00  0.00    -0.276 OA
ATOM     17  H   LIG d   1      -6.899  89.740 116.516  0.00  0.00     0.149 HD
ENDBRANCH   6  13
BRANCH   5  18
ATOM     18  N   LIG d   1      -7.677  92.954 117.890  0.00  0.00     0.381 N 
ATOM     19  H   LIG d   1      -8.266  92.965 117.081  0.00  0.00    -0.090 HD
ATOM     20  H   LIG d   1      -7.800  93.822 118.381  0.00  0.00    -0.090 HD
ATOM     21  H   LIG d   1      -7.926  92.192 118.480  0.00  0.00    -0.090 HD
ENDBRANCH   5  18
BRANCH   3  22
ATOM     22  C   LIG d   1      -3.195  94.402 118.757  0.00  0.00     0.382 C 
ATOM     23  O   LIG d   1      -3.646  95.560 118.930  0.00  0.00    -0.241 OA
ATOM     24  O   LIG d   1      -1.981  94.185 118.930  0.00  0.00    -0.241 OA
ENDBRANCH   3  22
TORSDOF 7
ENDMDL
