MODEL 1
REMARK VINA RESULT:      -4.5      0.000      0.000
REMARK  7 active torsions:
REMARK  status: ('A' for Active; 'I' for Inactive)
REMARK    1  A    between atoms: C_2  and  C_3 
REMARK    2  A    between atoms: C_3  and  O_6 
REMARK    3  A    between atoms: C_3  and  C_4 
REMARK    4  A    between atoms: C_7  and  O_6 
REMARK    5  A    between atoms: C_9  and  C_10 
REMARK    6  A    between atoms: N_15  and  C_14 
REMARK    7  A    between atoms: N_20  and  C_19 
REMARK       I    between atoms: C_22  and  N_20 
ROOT
ATOM      1  C   LIG d   1       3.103  88.870 116.313  0.00  0.00     0.161 C 
ATOM      2  C   LIG d   1       3.729  89.593 117.342  0.00  0.00     0.016 C 
ATOM      3  C   LIG d   1       4.697  90.598 117.110  0.00  0.00     0.038 C 
ATOM      4  C   LIG d   1       4.995  91.056 115.818  0.00  0.00     0.028 C 
ATOM      5  C   LIG d   1       4.760  90.008 114.735  0.00  0.00    -0.047 C 
ATOM      6  C   LIG d   1       3.334  89.433 114.894  0.00  0.00     0.091 C 
ENDROOT
BRANCH   1   7
ATOM      7  O   LIG d   1       1.692  88.758 116.583  0.00  0.00    -0.368 OA
BRANCH   7   8
ATOM      8  C   LIG d   1       1.186  89.564 117.676  0.00  0.00     0.119 C 
BRANCH   8   9
ATOM      9  C   LIG d   1       0.205  88.690 118.481  0.00  0.00     0.028 C 
ATOM     10  C   LIG d   1      -1.229  88.757 117.929  0.00  0.00     0.006 C 
ENDBRANCH   8   9
BRANCH   8  11
ATOM     11  C   LIG d   1       0.352  90.740 117.160  0.00  0.00     0.028 C 
ATOM     12  C   LIG d   1       1.086  92.086 117.272  0.00  0.00     0.006 C 
ENDBRANCH   8  11
ENDBRANCH   7   8
ENDBRANCH   1   7
BRANCH   6  13
ATOM     13  N   LIG d   1       3.052  88.341 113.926  0.00  0.00    -0.311 N 
ATOM     14  C   LIG d   1       2.399  88.528 112.781  0.00  0.00     0.210 C 
ATOM     15  C   LIG d   1       2.197  87.264 111.938  0.00  0.00     0.109 C 
ATOM     16  O   LIG d   1       1.995  89.625 112.368  0.00  0.00    -0.276 OA
ATOM     17  H   LIG d   1       3.372  87.423 114.168  0.00  0.00     0.149 HD
ENDBRANCH   6  13
BRANCH   5  18
ATOM     18  N   LIG d   1       4.978  90.660 113.430  0.00  0.00     0.381 N 
ATOM     19  H   LIG d   1       5.463  91.525 113.560  0.00  0.00    -0.090 HD
ATOM     20  H   LIG d   1       4.085  90.858 113.013  0.00  0.00    -0.090 HD
ATOM     21  H   LIG d   1       5.506  90.062 112.833  0.00  0.00    -0.090 HD
ENDBRANCH   5  18
BRANCH   3  22
ATOM     22  C   LIG d   1       5.407  91.128 118.177  0.00  0.00     0.382 C 
ATOM     23  O   LIG d   1       4.867  91.974 118.930  0.00  0.00    -0.241 OA
ATOM     24  O   LIG d   1       6.594  90.803 118.369  0.00  0.00    -0.241 OA
ENDBRANCH   3  22
TORSDOF 7
ENDMDL
MODEL 2
REMARK VINA RESULT:      -4.4      2.438      5.302
REMARK  7 active torsions:
REMARK  status: ('A' for Active; 'I' for Inactive)
REMARK    1  A    between atoms: C_2  and  C_3 
REMARK    2  A    between atoms: C_3  and  O_6 
REMARK    3  A    between atoms: C_3  and  C_4 
REMARK    4  A    between atoms: C_7  and  O_6 
REMARK    5  A    between atoms: C_9  and  C_10 
REMARK    6  A    between atoms: N_15  and  C_14 
REMARK    7  A    between atoms: N_20  and  C_19 
REMARK       I    between atoms: C_22  and  N_20 
ROOT
ATOM      1  C   LIG d   1       2.885  88.247 115.373  0.00  0.00     0.161 C 
ATOM      2  C   LIG d   1       2.859  87.228 114.406  0.00  0.00     0.016 C 
ATOM      3  C   LIG d   1       3.499  87.332 113.150  0.00  0.00     0.038 C 
ATOM      4  C   LIG d   1       4.341  88.408 112.833  0.00  0.00     0.028 C 
ATOM      5  C   LIG d   1       3.991  89.691 113.579  0.00  0.00    -0.047 C 
ATOM      6  C   LIG d   1       3.891  89.382 115.090  0.00  0.00     0.091 C 
ENDROOT
BRANCH   1   7
ATOM      7  O   LIG d   1       3.125  87.677 116.676  0.00  0.00    -0.368 OA
BRANCH   7   8
ATOM      8  C   LIG d   1       4.074  86.584 116.728  0.00  0.00     0.119 C 
BRANCH   8   9
ATOM      9  C   LIG d   1       3.468  85.488 117.626  0.00  0.00     0.028 C 
ATOM     10  C   LIG d   1       1.987  85.746 117.950  0.00  0.00     0.006 C 
ENDBRANCH   8   9
BRANCH   8  11
ATOM     11  C   LIG d   1       5.372  87.006 117.423  0.00  0.00     0.028 C 
ATOM     12  C   LIG d   1       5.173  88.182 118.393  0.00  0.00     0.006 C 
ENDBRANCH   8  11
ENDBRANCH   7   8
ENDBRANCH   1   7
BRANCH   6  13
ATOM     13  N   LIG d   1       3.469  90.565 115.885  0.00  0.00    -0.311 N 
ATOM     14  C   LIG d   1       4.327  91.400 116.469  0.00  0.00     0.210 C 
ATOM     15  C   LIG d   1       3.681  92.544 117.256  0.00  0.00     0.109 C 
ATOM     16  O   LIG d   1       5.561  91.319 116.383  0.00  0.00    -0.276 OA
ATOM     17  H   LIG d   1       2.485  90.723 115.980  0.00  0.00     0.149 HD
ENDBRANCH   6  13
BRANCH   5  18
ATOM     18  N   LIG d   1       5.029  90.689 113.261  0.00  0.00     0.381 N 
ATOM     19  H   LIG d   1       4.750  91.588 113.601  0.00  0.00    -0.090 HD
ATOM     20  H   LIG d   1       5.130  90.747 112.263  0.00  0.00    -0.090 HD
ATOM     21  H   LIG d   1       5.896  90.424 113.675  0.00  0.00    -0.090 HD
ENDBRANCH   5  18
BRANCH   3  22
ATOM     22  C   LIG d   1       3.267  86.370 112.179  0.00  0.00     0.382 C 
ATOM     23  O   LIG d   1       4.083  85.430 112.019  0.00  0.00    -0.241 OA
ATOM     24  O   LIG d   1       2.275  86.454 111.431  0.00  0.00    -0.241 OA
ENDBRANCH   3  22
TORSDOF 7
ENDMDL
MODEL 3
REMARK VINA RESULT:      -4.1      2.811      5.144
REMARK  7 active torsions:
REMARK  status: ('A' for Active; 'I' for Inactive)
REMARK    1  A    between atoms: C_2  and  C_3 
REMARK    2  A    between atoms: C_3  and  O_6 
REMARK    3  A    between atoms: C_3  and  C_4 
REMARK    4  A    between atoms: C_7  and  O_6 
REMARK    5  A    between atoms: C_9  and  C_10 
REMARK    6  A    between atoms: N_15  and  C_14 
REMARK    7  A    between atoms: N_20  and  C_19 
REMARK       I    between atoms: C_22  and  N_20 
ROOT
ATOM      1  C   LIG d   1       4.013  88.064 116.341  0.00  0.00     0.161 C 
ATOM      2  C   LIG d   1       2.959  88.988 116.238  0.00  0.00     0.016 C 
ATOM      3  C   LIG d   1       3.034  90.311 116.729  0.00  0.00     0.038 C 
ATOM      4  C   LIG d   1       4.230  90.852 117.224  0.00  0.00     0.028 C 
ATOM      5  C   LIG d   1       5.171  89.805 117.809  0.00  0.00    -0.047 C 
ATOM      6  C   LIG d   1       5.363  88.669 116.778  0.00  0.00     0.091 C 
ENDROOT
BRANCH   1   7
ATOM      7  O   LIG d   1       4.162  87.353 115.096  0.00  0.00    -0.368 OA
BRANCH   7   8
ATOM      8  C   LIG d   1       3.652  88.020 113.916  0.00  0.00     0.119 C 
BRANCH   8   9
ATOM      9  C   LIG d   1       3.111  86.933 112.967  0.00  0.00     0.028 C 
ATOM     10  C   LIG d   1       3.880  86.879 111.636  0.00  0.00     0.006 C 
ENDBRANCH   8   9
BRANCH   8  11
ATOM     11  C   LIG d   1       4.776  88.713 113.139  0.00  0.00     0.028 C 
ATOM     12  C   LIG d   1       4.799  90.234 113.356  0.00  0.00     0.006 C 
ENDBRANCH   8  11
ENDBRANCH   7   8
ENDBRANCH   1   7
BRANCH   6  13
ATOM     13  N   LIG d   1       6.203  87.562 117.303  0.00  0.00    -0.311 N 
ATOM     14  C   LIG d   1       7.522  87.497 117.129  0.00  0.00     0.210 C 
ATOM     15  C   LIG d   1       8.194  86.260 117.735  0.00  0.00     0.109 C 
ATOM     16  O   LIG d   1       8.204  88.361 116.559  0.00  0.00    -0.276 OA
ATOM     17  H   LIG d   1       5.736  86.833 117.806  0.00  0.00     0.149 HD
ENDBRANCH   6  13
BRANCH   5  18
ATOM     18  N   LIG d   1       6.432  90.485 118.161  0.00  0.00     0.381 N 
ATOM     19  H   LIG d   1       6.298  91.477 118.144  0.00  0.00    -0.090 HD
ATOM     20  H   LIG d   1       7.130  90.250 117.478  0.00  0.00    -0.090 HD
ATOM     21  H   LIG d   1       6.733  90.199 119.066  0.00  0.00    -0.090 HD
ENDBRANCH   5  18
BRANCH   3  22
ATOM     22  C   LIG d   1       1.892  91.097 116.763  0.00  0.00     0.382 C 
ATOM     23  O   LIG d   1       0.817  90.662 116.285  0.00  0.00    -0.241 OA
ATOM     24  O   LIG d   1       1.934  92.253 117.227  0.00  0.00    -0.241 OA
ENDBRANCH   3  22
TORSDOF 7
ENDMDL
MODEL 4
REMARK VINA RESULT:      -4.1      3.058      5.338
REMARK  7 active torsions:
REMARK  status: ('A' for Active; 'I' for Inactive)
REMARK    1  A    between atoms: C_2  and  C_3 
REMARK    2  A    between atoms: C_3  and  O_6 
REMARK    3  A    between atoms: C_3  and  C_4 
REMARK    4  A    between atoms: C_7  and  O_6 
REMARK    5  A    between atoms: C_9  and  C_10 
REMARK    6  A    between atoms: N_15  and  C_14 
REMARK    7  A    between atoms: N_20  and  C_19 
REMARK       I    between atoms: C_22  and  N_20 
ROOT
ATOM      1  C   LIG d   1       2.041  87.517 114.901  0.00  0.00     0.161 C 
ATOM      2  C   LIG d   1       2.821  88.287 114.022  0.00  0.00     0.016 C 
ATOM      3  C   LIG d   1       4.073  88.842 114.376  0.00  0.00     0.038 C 
ATOM      4  C   LIG d   1       4.703  88.535 115.591  0.00  0.00     0.028 C 
ATOM      5  C   LIG d   1       3.727  88.174 116.705  0.00  0.00    -0.047 C 
ATOM      6  C   LIG d   1       2.763  87.080 116.193  0.00  0.00     0.091 C 
ENDROOT
BRANCH   1   7
ATOM      7  O   LIG d   1       1.514  86.368 114.208  0.00  0.00    -0.368 OA
BRANCH   7   8
ATOM      8  C   LIG d   1       1.705  86.347 112.772  0.00  0.00     0.119 C 
BRANCH   8   9
ATOM      9  C   LIG d   1       0.451  85.705 112.147  0.00  0.00     0.028 C 
ATOM     10  C   LIG d   1      -0.492  86.748 111.524  0.00  0.00     0.006 C 
ENDBRANCH   8   9
BRANCH   8  11
ATOM     11  C   LIG d   1       2.868  85.431 112.378  0.00  0.00     0.028 C 
ATOM     12  C   LIG d   1       3.955  86.161 111.573  0.00  0.00     0.006 C 
ENDBRANCH   8  11
ENDBRANCH   7   8
ENDBRANCH   1   7
BRANCH   6  13
ATOM     13  N   LIG d   1       1.722  86.728 117.193  0.00  0.00    -0.311 N 
ATOM     14  C   LIG d   1       0.782  87.578 117.604  0.00  0.00     0.210 C 
ATOM     15  C   LIG d   1      -0.181  87.019 118.655  0.00  0.00     0.109 C 
ATOM     16  O   LIG d   1       0.636  88.732 117.173  0.00  0.00    -0.276 OA
ATOM     17  H   LIG d   1       1.747  85.801 117.572  0.00  0.00     0.149 HD
ENDBRANCH   6  13
BRANCH   5  18
ATOM     18  N   LIG d   1       4.521  87.745 117.872  0.00  0.00     0.381 N 
ATOM     19  H   LIG d   1       5.444  88.127 117.812  0.00  0.00    -0.090 HD
ATOM     20  H   LIG d   1       4.594  86.742 117.864  0.00  0.00    -0.090 HD
ATOM     21  H   LIG d   1       4.082  88.047 118.713  0.00  0.00    -0.090 HD
ENDBRANCH   5  18
BRANCH   3  22
ATOM     22  C   LIG d   1       4.689  89.746 113.524  0.00  0.00     0.382 C 
ATOM     23  O   LIG d   1       5.335  89.331 112.531  0.00  0.00    -0.241 OA
ATOM     24  O   LIG d   1       4.643  90.968 113.759  0.00  0.00    -0.241 OA
ENDBRANCH   3  22
TORSDOF 7
ENDMDL
MODEL 5
REMARK VINA RESULT:      -4.1      2.664      5.719
REMARK  7 active torsions:
REMARK  status: ('A' for Active; 'I' for Inactive)
REMARK    1  A    between atoms: C_2  and  C_3 
REMARK    2  A    between atoms: C_3  and  O_6 
REMARK    3  A    between atoms: C_3  and  C_4 
REMARK    4  A    between atoms: C_7  and  O_6 
REMARK    5  A    between atoms: C_9  and  C_10 
REMARK    6  A    between atoms: N_15  and  C_14 
REMARK    7  A    between atoms: N_20  and  C_19 
REMARK       I    between atoms: C_22  and  N_20 
ROOT
ATOM      1  C   LIG d   1       2.658  90.145 117.753  0.00  0.00     0.161 C 
ATOM      2  C   LIG d   1       1.344  89.681 117.573  0.00  0.00     0.016 C 
ATOM      3  C   LIG d   1       0.212  90.528 117.578  0.00  0.00     0.038 C 
ATOM      4  C   LIG d   1       0.332  91.926 117.612  0.00  0.00     0.028 C 
ATOM      5  C   LIG d   1       1.604  92.408 118.300  0.00  0.00    -0.047 C 
ATOM      6  C   LIG d   1       2.818  91.678 117.680  0.00  0.00     0.091 C 
ENDROOT
BRANCH   1   7
ATOM      7  O   LIG d   1       3.535  89.504 116.806  0.00  0.00    -0.368 OA
BRANCH   7   8
ATOM      8  C   LIG d   1       3.257  89.757 115.407  0.00  0.00     0.119 C 
BRANCH   8   9
ATOM      9  C   LIG d   1       3.097  88.390 114.713  0.00  0.00     0.028 C 
ATOM     10  C   LIG d   1       3.504  87.219 115.622  0.00  0.00     0.006 C 
ENDBRANCH   8   9
BRANCH   8  11
ATOM     11  C   LIG d   1       4.448  90.426 114.714  0.00  0.00     0.028 C 
ATOM     12  C   LIG d   1       4.695  89.884 113.297  0.00  0.00     0.006 C 
ENDBRANCH   8  11
ENDBRANCH   7   8
ENDBRANCH   1   7
BRANCH   6  13
ATOM     13  N   LIG d   1       4.095  92.029 118.353  0.00  0.00    -0.311 N 
ATOM     14  C   LIG d   1       4.899  93.007 117.936  0.00  0.00     0.210 C 
ATOM     15  C   LIG d   1       6.176  93.189 118.762  0.00  0.00     0.109 C 
ATOM     16  O   LIG d   1       4.659  93.761 116.981  0.00  0.00    -0.276 OA
ATOM     17  H   LIG d   1       4.352  91.488 119.155  0.00  0.00     0.149 HD
ENDBRANCH   6  13
BRANCH   5  18
ATOM     18  N   LIG d   1       1.668  93.873 118.142  0.00  0.00     0.381 N 
ATOM     19  H   LIG d   1       0.763  94.270 118.298  0.00  0.00    -0.090 HD
ATOM     20  H   LIG d   1       1.949  94.087 117.201  0.00  0.00    -0.090 HD
ATOM     21  H   LIG d   1       2.323  94.257 118.787  0.00  0.00    -0.090 HD
ENDBRANCH   5  18
BRANCH   3  22
ATOM     22  C   LIG d   1      -1.060  89.976 117.589  0.00  0.00     0.382 C 
ATOM     23  O   LIG d   1      -2.065  90.718 117.709  0.00  0.00    -0.241 OA
ATOM     24  O   LIG d   1      -1.213  88.742 117.525  0.00  0.00    -0.241 OA
ENDBRANCH   3  22
TORSDOF 7
ENDMDL
MODEL 6
REMARK VINA RESULT:      -4.0      3.099      4.864
REMARK  7 active torsions:
REMARK  status: ('A' for Active; 'I' for Inactive)
REMARK    1  A    between atoms: C_2  and  C_3 
REMARK    2  A    between atoms: C_3  and  O_6 
REMARK    3  A    between atoms: C_3  and  C_4 
REMARK    4  A    between atoms: C_7  and  O_6 
REMARK    5  A    between atoms: C_9  and  C_10 
REMARK    6  A    between atoms: N_15  and  C_14 
REMARK    7  A    between atoms: N_20  and  C_19 
REMARK       I    between atoms: C_22  and  N_20 
ROOT
ATOM      1  C   LIG d   1       4.712  88.711 116.951  0.00  0.00     0.161 C 
ATOM      2  C   LIG d   1       3.888  89.843 116.839  0.00  0.00     0.016 C 
ATOM      3  C   LIG d   1       4.362  91.168 116.978  0.00  0.00     0.038 C 
ATOM      4  C   LIG d   1       5.730  91.458 117.088  0.00  0.00     0.028 C 
ATOM      5  C   LIG d   1       6.541  90.326 117.710  0.00  0.00    -0.047 C 
ATOM      6  C   LIG d   1       6.225  89.012 116.960  0.00  0.00     0.091 C 
ENDROOT
BRANCH   1   7
ATOM      7  O   LIG d   1       4.394  87.771 115.905  0.00  0.00    -0.368 OA
BRANCH   7   8
ATOM      8  C   LIG d   1       3.597  88.282 114.809  0.00  0.00     0.119 C 
BRANCH   8   9
ATOM      9  C   LIG d   1       2.586  87.186 114.422  0.00  0.00     0.028 C 
ATOM     10  C   LIG d   1       2.489  86.987 112.900  0.00  0.00     0.006 C 
ENDBRANCH   8   9
BRANCH   8  11
ATOM     11  C   LIG d   1       4.451  88.506 113.557  0.00  0.00     0.028 C 
ATOM     12  C   LIG d   1       4.751  89.991 113.299  0.00  0.00     0.006 C 
ENDBRANCH   8  11
ENDBRANCH   7   8
ENDBRANCH   1   7
BRANCH   6  13
ATOM     13  N   LIG d   1       6.914  87.839 117.558  0.00  0.00    -0.311 N 
ATOM     14  C   LIG d   1       8.102  87.398 117.149  0.00  0.00     0.210 C 
ATOM     15  C   LIG d   1       8.623  86.161 117.888  0.00  0.00     0.109 C 
ATOM     16  O   LIG d   1       8.788  87.933 116.265  0.00  0.00    -0.276 OA
ATOM     17  H   LIG d   1       6.441  87.364 118.303  0.00  0.00     0.149 HD
ENDBRANCH   6  13
BRANCH   5  18
ATOM     18  N   LIG d   1       7.964  90.706 117.637  0.00  0.00     0.381 N 
ATOM     19  H   LIG d   1       8.068  91.676 117.862  0.00  0.00    -0.090 HD
ATOM     20  H   LIG d   1       8.292  90.563 116.698  0.00  0.00    -0.090 HD
ATOM     21  H   LIG d   1       8.498  90.153 118.271  0.00  0.00    -0.090 HD
ENDBRANCH   5  18
BRANCH   3  22
ATOM     22  C   LIG d   1       3.458  92.218 117.047  0.00  0.00     0.382 C 
ATOM     23  O   LIG d   1       2.225  91.987 117.010  0.00  0.00    -0.241 OA
ATOM     24  O   LIG d   1       3.861  93.395 117.103  0.00  0.00    -0.241 OA
ENDBRANCH   3  22
TORSDOF 7
ENDMDL
MODEL 7
REMARK VINA RESULT:      -3.9      2.748      4.823
REMARK  7 active torsions:
REMARK  status: ('A' for Active; 'I' for Inactive)
REMARK    1  A    between atoms: C_2  and  C_3 
REMARK    2  A    between atoms: C_3  and  O_6 
REMARK    3  A    between atoms: C_3  and  C_4 
REMARK    4  A    between atoms: C_7  and  O_6 
REMARK    5  A    between atoms: C_9  and  C_10 
REMARK    6  A    between atoms: N_15  and  C_14 
REMARK    7  A    between atoms: N_20  and  C_19 
REMARK       I    between atoms: C_22  and  N_20 
ROOT
ATOM      1  C   LIG d   1       4.058  90.871 116.214  0.00  0.00     0.161 C 
ATOM      2  C   LIG d   1       2.947  91.598 116.675  0.00  0.00     0.016 C 
ATOM      3  C   LIG d   1       3.047  92.689 117.568  0.00  0.00     0.038 C 
ATOM      4  C   LIG d   1       4.287  93.228 117.945  0.00  0.00     0.028 C 
ATOM      5  C   LIG d   1       5.425  92.213 117.905  0.00  0.00    -0.047 C 
ATOM      6  C   LIG d   1       5.425  91.513 116.527  0.00  0.00     0.091 C 
ENDROOT
BRANCH   1   7
ATOM      7  O   LIG d   1       3.930  90.629 114.799  0.00  0.00    -0.368 OA
BRANCH   7   8
ATOM      8  C   LIG d   1       3.146  89.471 114.419  0.00  0.00     0.119 C 
BRANCH   8   9
ATOM      9  C   LIG d   1       3.497  88.333 115.396  0.00  0.00     0.028 C 
ATOM     10  C   LIG d   1       2.679  87.058 115.131  0.00  0.00     0.006 C 
ENDBRANCH   8   9
BRANCH   8  11
ATOM     11  C   LIG d   1       3.549  88.955 113.034  0.00  0.00     0.028 C 
ATOM     12  C   LIG d   1       5.073  88.905 112.838  0.00  0.00     0.006 C 
ENDBRANCH   8  11
ENDBRANCH   7   8
ENDBRANCH   1   7
BRANCH   6  13
ATOM     13  N   LIG d   1       6.455  90.446 116.434  0.00  0.00    -0.311 N 
ATOM     14  C   LIG d   1       6.495  89.393 117.248  0.00  0.00     0.210 C 
ATOM     15  C   LIG d   1       7.652  88.421 116.993  0.00  0.00     0.109 C 
ATOM     16  O   LIG d   1       5.665  89.155 118.138  0.00  0.00    -0.276 OA
ATOM     17  H   LIG d   1       7.150  90.543 115.719  0.00  0.00     0.149 HD
ENDBRANCH   6  13
BRANCH   5  18
ATOM     18  N   LIG d   1       6.678  92.938 118.186  0.00  0.00     0.381 N 
ATOM     19  H   LIG d   1       7.454  92.309 118.130  0.00  0.00    -0.090 HD
ATOM     20  H   LIG d   1       6.638  93.307 119.120  0.00  0.00    -0.090 HD
ATOM     21  H   LIG d   1       6.796  93.681 117.533  0.00  0.00    -0.090 HD
ENDBRANCH   5  18
BRANCH   3  22
ATOM     22  C   LIG d   1       1.898  93.229 118.125  0.00  0.00     0.382 C 
ATOM     23  O   LIG d   1       0.772  92.793 117.784  0.00  0.00    -0.241 OA
ATOM     24  O   LIG d   1       1.971  94.177 118.930  0.00  0.00    -0.241 OA
ENDBRANCH   3  22
TORSDOF 7
ENDMDL
MODEL 8
REMARK VINA RESULT:      -3.8      2.453      5.006
REMARK  7 active torsions:
REMARK  status: ('A' for Active; 'I' for Inactive)
REMARK    1  A    between atoms: C_2  and  C_3 
REMARK    2  A    between atoms: C_3  and  O_6 
REMARK    3  A    between atoms: C_3  and  C_4 
REMARK    4  A    between atoms: C_7  and  O_6 
REMARK    5  A    between atoms: C_9  and  C_10 
REMARK    6  A    between atoms: N_15  and  C_14 
REMARK    7  A    between atoms: N_20  and  C_19 
REMARK       I    between atoms: C_22  and  N_20 
ROOT
ATOM      1  C   LIG d   1       3.676  89.719 115.573  0.00  0.00     0.161 C 
ATOM      2  C   LIG d   1       2.380  90.165 115.881  0.00  0.00     0.016 C 
ATOM      3  C   LIG d   1       2.117  91.298 116.684  0.00  0.00     0.038 C 
ATOM      4  C   LIG d   1       3.141  92.157 117.111  0.00  0.00     0.028 C 
ATOM      5  C   LIG d   1       4.493  91.466 117.248  0.00  0.00    -0.047 C 
ATOM      6  C   LIG d   1       4.803  90.706 115.938  0.00  0.00     0.091 C 
ENDROOT
BRANCH   1   7
ATOM      7  O   LIG d   1       3.752  89.365 114.178  0.00  0.00    -0.368 OA
BRANCH   7   8
ATOM      8  C   LIG d   1       4.087  87.985 113.888  0.00  0.00     0.119 C 
BRANCH   8   9
ATOM      9  C   LIG d   1       3.851  87.758 112.382  0.00  0.00     0.028 C 
ATOM     10  C   LIG d   1       2.360  87.814 112.007  0.00  0.00     0.006 C 
ENDBRANCH   8   9
BRANCH   8  11
ATOM     11  C   LIG d   1       3.135  87.019 114.598  0.00  0.00     0.028 C 
ATOM     12  C   LIG d   1       3.870  85.998 115.480  0.00  0.00     0.006 C 
ENDBRANCH   8  11
ENDBRANCH   7   8
ENDBRANCH   1   7
BRANCH   6  13
ATOM     13  N   LIG d   1       6.070  89.933 116.018  0.00  0.00    -0.311 N 
ATOM     14  C   LIG d   1       6.255  88.913 116.853  0.00  0.00     0.210 C 
ATOM     15  C   LIG d   1       7.643  88.267 116.788  0.00  0.00     0.109 C 
ATOM     16  O   LIG d   1       5.391  88.461 117.620  0.00  0.00    -0.276 OA
ATOM     17  H   LIG d   1       6.814  90.213 115.408  0.00  0.00     0.149 HD
ENDBRANCH   6  13
BRANCH   5  18
ATOM     18  N   LIG d   1       5.493  92.503 117.565  0.00  0.00     0.381 N 
ATOM     19  H   LIG d   1       5.149  93.093 118.296  0.00  0.00    -0.090 HD
ATOM     20  H   LIG d   1       5.646  93.069 116.749  0.00  0.00    -0.090 HD
ATOM     21  H   LIG d   1       6.349  92.077 117.848  0.00  0.00    -0.090 HD
ENDBRANCH   5  18
BRANCH   3  22
ATOM     22  C   LIG d   1       0.821  91.560 117.101  0.00  0.00     0.382 C 
ATOM     23  O   LIG d   1      -0.073  90.692 116.952  0.00  0.00    -0.241 OA
ATOM     24  O   LIG d   1       0.524  92.670 117.582  0.00  0.00    -0.241 OA
ENDBRANCH   3  22
TORSDOF 7
ENDMDL
MODEL 9
REMARK VINA RESULT:      -3.8      3.370      6.312
REMARK  7 active torsions:
REMARK  status: ('A' for Active; 'I' for Inactive)
REMARK    1  A    between atoms: C_2  and  C_3 
REMARK    2  A    between atoms: C_3  and  O_6 
REMARK    3  A    between atoms: C_3  and  C_4 
REMARK    4  A    between atoms: C_7  and  O_6 
REMARK    5  A    between atoms: C_9  and  C_10 
REMARK    6  A    between atoms: N_15  and  C_14 
REMARK    7  A    between atoms: N_20  and  C_19 
REMARK       I    between atoms: C_22  and  N_20 
ROOT
ATOM      1  C   LIG d   1       0.448  90.365 117.762  0.00  0.00     0.161 C 
ATOM      2  C   LIG d   1      -0.946  90.291 117.612  0.00  0.00     0.016 C 
ATOM      3  C   LIG d   1      -1.802  91.410 117.731  0.00  0.00     0.038 C 
ATOM      4  C   LIG d   1      -1.304  92.715 117.859  0.00  0.00     0.028 C 
ATOM      5  C   LIG d   1       0.070  92.776 118.519  0.00  0.00    -0.047 C 
ATOM      6  C   LIG d   1       1.020  91.798 117.791  0.00  0.00     0.091 C 
ENDROOT
BRANCH   1   7
ATOM      7  O   LIG d   1       1.093  89.590 116.732  0.00  0.00    -0.368 OA
BRANCH   7   8
ATOM      8  C   LIG d   1       1.929  88.497 117.185  0.00  0.00     0.119 C 
BRANCH   8   9
ATOM      9  C   LIG d   1       3.200  88.494 116.314  0.00  0.00     0.028 C 
ATOM     10  C   LIG d   1       3.322  89.761 115.451  0.00  0.00     0.006 C 
ENDBRANCH   8   9
BRANCH   8  11
ATOM     11  C   LIG d   1       1.261  87.142 116.932  0.00  0.00     0.028 C 
ATOM     12  C   LIG d   1       1.929  86.352 115.796  0.00  0.00     0.006 C 
ENDBRANCH   8  11
ENDBRANCH   7   8
ENDBRANCH   1   7
BRANCH   6  13
ATOM     13  N   LIG d   1       2.362  91.734 118.427  0.00  0.00    -0.311 N 
ATOM     14  C   LIG d   1       3.394  92.481 118.038  0.00  0.00     0.210 C 
ATOM     15  C   LIG d   1       4.693  92.243 118.815  0.00  0.00     0.109 C 
ATOM     16  O   LIG d   1       3.349  93.340 117.144  0.00  0.00    -0.276 OA
ATOM     17  H   LIG d   1       2.479  91.086 119.181  0.00  0.00     0.149 HD
ENDBRANCH   6  13
BRANCH   5  18
ATOM     18  N   LIG d   1       0.528  94.177 118.463  0.00  0.00     0.381 N 
ATOM     19  H   LIG d   1       0.980  94.351 117.588  0.00  0.00    -0.090 HD
ATOM     20  H   LIG d   1       1.196  94.330 119.199  0.00  0.00    -0.090 HD
ATOM     21  H   LIG d   1      -0.246  94.794 118.575  0.00  0.00    -0.090 HD
ENDBRANCH   5  18
BRANCH   3  22
ATOM     22  C   LIG d   1      -3.176  91.224 117.762  0.00  0.00     0.382 C 
ATOM     23  O   LIG d   1      -3.654  90.066 117.698  0.00  0.00    -0.241 OA
ATOM     24  O   LIG d   1      -3.945  92.203 117.808  0.00  0.00    -0.241 OA
ENDBRANCH   3  22
TORSDOF 7
ENDMDL
