MODEL 1
REMARK VINA RESULT:      -5.0      0.000      0.000
REMARK  7 active torsions:
REMARK  status: ('A' for Active; 'I' for Inactive)
REMARK    1  A    between atoms: C_2  and  C_3 
REMARK    2  A    between atoms: C_3  and  O_6 
REMARK    3  A    between atoms: C_3  and  C_4 
REMARK    4  A    between atoms: C_7  and  O_6 
REMARK    5  A    between atoms: C_9  and  C_10 
REMARK    6  A    between atoms: N_15  and  C_14 
REMARK    7  A    between atoms: N_20  and  C_19 
REMARK       I    between atoms: C_22  and  N_20 
ROOT
ATOM      1  C   LIG d   1       3.447  88.558 115.298  0.00  0.00     0.161 C 
ATOM      2  C   LIG d   1       4.055  89.447 116.200  0.00  0.00     0.016 C 
ATOM      3  C   LIG d   1       5.301  90.070 115.959  0.00  0.00     0.038 C 
ATOM      4  C   LIG d   1       5.957  89.962 114.724  0.00  0.00     0.028 C 
ATOM      5  C   LIG d   1       5.631  88.674 113.976  0.00  0.00    -0.047 C 
ATOM      6  C   LIG d   1       4.095  88.514 113.898  0.00  0.00     0.091 C 
ENDROOT
BRANCH   1   7
ATOM      7  O   LIG d   1       2.041  88.855 115.191  0.00  0.00    -0.368 OA
BRANCH   7   8
ATOM      8  C   LIG d   1       1.174  88.186 116.139  0.00  0.00     0.119 C 
BRANCH   8   9
ATOM      9  C   LIG d   1       0.486  87.024 115.397  0.00  0.00     0.028 C 
ATOM     10  C   LIG d   1       1.211  85.684 115.604  0.00  0.00     0.006 C 
ENDBRANCH   8   9
BRANCH   8  11
ATOM     11  C   LIG d   1       0.037  89.104 116.598  0.00  0.00     0.028 C 
ATOM     12  C   LIG d   1       0.469  90.574 116.719  0.00  0.00     0.006 C 
ENDBRANCH   8  11
ENDBRANCH   7   8
ENDBRANCH   1   7
BRANCH   6  13
ATOM     13  N   LIG d   1       3.690  87.237 113.255  0.00  0.00    -0.311 N 
ATOM     14  C   LIG d   1       2.893  87.173 112.189  0.00  0.00     0.210 C 
ATOM     15  C   LIG d   1       2.584  85.756 111.697  0.00  0.00     0.109 C 
ATOM     16  O   LIG d   1       2.440  88.157 111.586  0.00  0.00    -0.276 OA
ATOM     17  H   LIG d   1       4.038  86.391 113.661  0.00  0.00     0.149 HD
ENDBRANCH   6  13
BRANCH   5  18
ATOM     18  N   LIG d   1       6.271  88.755 112.649  0.00  0.00     0.381 N 
ATOM     19  H   LIG d   1       7.061  89.367 112.691  0.00  0.00    -0.090 HD
ATOM     20  H   LIG d   1       5.612  89.135 111.993  0.00  0.00    -0.090 HD
ATOM     21  H   LIG d   1       6.560  87.848 112.354  0.00  0.00    -0.090 HD
ENDBRANCH   5  18
BRANCH   3  22
ATOM     22  C   LIG d   1       5.922  90.779 116.976  0.00  0.00     0.382 C 
ATOM     23  O   LIG d   1       7.165  90.949 116.953  0.00  0.00    -0.241 OA
ATOM     24  O   LIG d   1       5.262  91.214 117.938  0.00  0.00    -0.241 OA
ENDBRANCH   3  22
TORSDOF 7
ENDMDL
MODEL 2
REMARK VINA RESULT:      -4.7      2.731      5.250
REMARK  7 active torsions:
REMARK  status: ('A' for Active; 'I' for Inactive)
REMARK    1  A    between atoms: C_2  and  C_3 
REMARK    2  A    between atoms: C_3  and  O_6 
REMARK    3  A    between atoms: C_3  and  C_4 
REMARK    4  A    between atoms: C_7  and  O_6 
REMARK    5  A    between atoms: C_9  and  C_10 
REMARK    6  A    between atoms: N_15  and  C_14 
REMARK    7  A    between atoms: N_20  and  C_19 
REMARK       I    between atoms: C_22  and  N_20 
ROOT
ATOM      1  C   LIG d   1       1.394  88.633 116.095  0.00  0.00     0.161 C 
ATOM      2  C   LIG d   1       0.068  88.780 116.536  0.00  0.00     0.016 C 
ATOM      3  C   LIG d   1      -0.418  89.951 117.162  0.00  0.00     0.038 C 
ATOM      4  C   LIG d   1       0.354  91.119 117.253  0.00  0.00     0.028 C 
ATOM      5  C   LIG d   1       1.855  90.851 117.277  0.00  0.00    -0.047 C 
ATOM      6  C   LIG d   1       2.221  89.935 116.086  0.00  0.00     0.091 C 
ENDROOT
BRANCH   1   7
ATOM      7  O   LIG d   1       1.410  88.020 114.791  0.00  0.00    -0.368 OA
BRANCH   7   8
ATOM      8  C   LIG d   1       1.841  86.638 114.741  0.00  0.00     0.119 C 
BRANCH   8   9
ATOM      9  C   LIG d   1       3.164  86.594 113.952  0.00  0.00     0.028 C 
ATOM     10  C   LIG d   1       3.072  87.341 112.611  0.00  0.00     0.006 C 
ENDBRANCH   8   9
BRANCH   8  11
ATOM     11  C   LIG d   1       0.861  85.777 113.938  0.00  0.00     0.028 C 
ATOM     12  C   LIG d   1      -0.535  85.710 114.577  0.00  0.00     0.006 C 
ENDBRANCH   8  11
ENDBRANCH   7   8
ENDBRANCH   1   7
BRANCH   6  13
ATOM     13  N   LIG d   1       3.658  89.556 116.083  0.00  0.00    -0.311 N 
ATOM     14  C   LIG d   1       4.477  89.794 115.061  0.00  0.00     0.210 C 
ATOM     15  C   LIG d   1       5.915  89.303 115.256  0.00  0.00     0.109 C 
ATOM     16  O   LIG d   1       4.157  90.395 114.024  0.00  0.00    -0.276 OA
ATOM     17  H   LIG d   1       4.009  89.092 116.898  0.00  0.00     0.149 HD
ENDBRANCH   6  13
BRANCH   5  18
ATOM     18  N   LIG d   1       2.542  92.156 117.235  0.00  0.00     0.381 N 
ATOM     19  H   LIG d   1       3.165  92.236 118.013  0.00  0.00    -0.090 HD
ATOM     20  H   LIG d   1       1.855  92.887 117.304  0.00  0.00    -0.090 HD
ATOM     21  H   LIG d   1       3.049  92.247 116.383  0.00  0.00    -0.090 HD
ENDBRANCH   5  18
BRANCH   3  22
ATOM     22  C   LIG d   1      -1.679  89.949 117.740  0.00  0.00     0.382 C 
ATOM     23  O   LIG d   1      -2.684  89.650 117.051  0.00  0.00    -0.241 OA
ATOM     24  O   LIG d   1      -1.829  90.284 118.930  0.00  0.00    -0.241 OA
ENDBRANCH   3  22
TORSDOF 7
ENDMDL
MODEL 3
REMARK VINA RESULT:      -4.6      1.494      2.470
REMARK  7 active torsions:
REMARK  status: ('A' for Active; 'I' for Inactive)
REMARK    1  A    between atoms: C_2  and  C_3 
REMARK    2  A    between atoms: C_3  and  O_6 
REMARK    3  A    between atoms: C_3  and  C_4 
REMARK    4  A    between atoms: C_7  and  O_6 
REMARK    5  A    between atoms: C_9  and  C_10 
REMARK    6  A    between atoms: N_15  and  C_14 
REMARK    7  A    between atoms: N_20  and  C_19 
REMARK       I    between atoms: C_22  and  N_20 
ROOT
ATOM      1  C   LIG d   1       4.315  88.482 116.564  0.00  0.00     0.161 C 
ATOM      2  C   LIG d   1       5.162  89.162 117.455  0.00  0.00     0.016 C 
ATOM      3  C   LIG d   1       6.231  89.987 117.036  0.00  0.00     0.038 C 
ATOM      4  C   LIG d   1       6.432  90.312 115.687  0.00  0.00     0.028 C 
ATOM      5  C   LIG d   1       5.915  89.248 114.724  0.00  0.00    -0.047 C 
ATOM      6  C   LIG d   1       4.450  88.912 115.088  0.00  0.00     0.091 C 
ENDROOT
BRANCH   1   7
ATOM      7  O   LIG d   1       2.947  88.607 116.999  0.00  0.00    -0.368 OA
BRANCH   7   8
ATOM      8  C   LIG d   1       2.230  89.771 116.520  0.00  0.00     0.119 C 
BRANCH   8   9
ATOM      9  C   LIG d   1       2.092  90.750 117.702  0.00  0.00     0.028 C 
ATOM     10  C   LIG d   1       2.897  92.043 117.491  0.00  0.00     0.006 C 
ENDBRANCH   8   9
BRANCH   8  11
ATOM     11  C   LIG d   1       0.795  89.416 116.118  0.00  0.00     0.028 C 
ATOM     12  C   LIG d   1       0.536  87.901 116.113  0.00  0.00     0.006 C 
ENDBRANCH   8  11
ENDBRANCH   7   8
ENDBRANCH   1   7
BRANCH   6  13
ATOM     13  N   LIG d   1       3.894  87.820 114.248  0.00  0.00    -0.311 N 
ATOM     14  C   LIG d   1       3.234  88.032 113.111  0.00  0.00     0.210 C 
ATOM     15  C   LIG d   1       2.727  86.767 112.411  0.00  0.00     0.109 C 
ATOM     16  O   LIG d   1       3.049  89.146 112.599  0.00  0.00    -0.276 OA
ATOM     17  H   LIG d   1       4.026  86.882 114.574  0.00  0.00     0.149 HD
ENDBRANCH   6  13
BRANCH   5  18
ATOM     18  N   LIG d   1       6.063  89.776 113.355  0.00  0.00     0.381 N 
ATOM     19  H   LIG d   1       5.830  90.748 113.339  0.00  0.00    -0.090 HD
ATOM     20  H   LIG d   1       5.428  89.289 112.748  0.00  0.00    -0.090 HD
ATOM     21  H   LIG d   1       7.000  89.647 113.040  0.00  0.00    -0.090 HD
ENDBRANCH   5  18
BRANCH   3  22
ATOM     22  C   LIG d   1       7.137  90.466 117.971  0.00  0.00     0.382 C 
ATOM     23  O   LIG d   1       6.736  91.169 118.930  0.00  0.00    -0.241 OA
ATOM     24  O   LIG d   1       8.355  90.240 117.843  0.00  0.00    -0.241 OA
ENDBRANCH   3  22
TORSDOF 7
ENDMDL
MODEL 4
REMARK VINA RESULT:      -4.6      1.298      2.246
REMARK  7 active torsions:
REMARK  status: ('A' for Active; 'I' for Inactive)
REMARK    1  A    between atoms: C_2  and  C_3 
REMARK    2  A    between atoms: C_3  and  O_6 
REMARK    3  A    between atoms: C_3  and  C_4 
REMARK    4  A    between atoms: C_7  and  O_6 
REMARK    5  A    between atoms: C_9  and  C_10 
REMARK    6  A    between atoms: N_15  and  C_14 
REMARK    7  A    between atoms: N_20  and  C_19 
REMARK       I    between atoms: C_22  and  N_20 
ROOT
ATOM      1  C   LIG d   1       3.571  87.570 115.946  0.00  0.00     0.161 C 
ATOM      2  C   LIG d   1       3.821  88.439 117.021  0.00  0.00     0.016 C 
ATOM      3  C   LIG d   1       4.285  89.765 116.858  0.00  0.00     0.038 C 
ATOM      4  C   LIG d   1       4.389  90.364 115.594  0.00  0.00     0.028 C 
ATOM      5  C   LIG d   1       4.631  89.364 114.468  0.00  0.00    -0.047 C 
ATOM      6  C   LIG d   1       3.572  88.242 114.557  0.00  0.00     0.091 C 
ENDROOT
BRANCH   1   7
ATOM      7  O   LIG d   1       2.330  86.869 116.163  0.00  0.00    -0.368 OA
BRANCH   7   8
ATOM      8  C   LIG d   1       1.146  87.478 115.594  0.00  0.00     0.119 C 
BRANCH   8   9
ATOM      9  C   LIG d   1       0.494  88.339 116.693  0.00  0.00     0.028 C 
ATOM     10  C   LIG d   1       0.434  89.828 116.314  0.00  0.00     0.006 C 
ENDBRANCH   8   9
BRANCH   8  11
ATOM     11  C   LIG d   1       0.097  86.424 115.229  0.00  0.00     0.028 C 
ATOM     12  C   LIG d   1       0.387  85.734 113.887  0.00  0.00     0.006 C 
ENDBRANCH   8  11
ENDBRANCH   7   8
ENDBRANCH   1   7
BRANCH   6  13
ATOM     13  N   LIG d   1       3.787  87.177 113.543  0.00  0.00    -0.311 N 
ATOM     14  C   LIG d   1       3.285  87.226 112.310  0.00  0.00     0.210 C 
ATOM     15  C   LIG d   1       3.611  86.015 111.431  0.00  0.00     0.109 C 
ATOM     16  O   LIG d   1       2.628  88.173 111.852  0.00  0.00    -0.276 OA
ATOM     17  H   LIG d   1       4.335  86.387 113.821  0.00  0.00     0.149 HD
ENDBRANCH   6  13
BRANCH   5  18
ATOM     18  N   LIG d   1       4.580  90.107 113.194  0.00  0.00     0.381 N 
ATOM     19  H   LIG d   1       5.422  90.633 113.075  0.00  0.00    -0.090 HD
ATOM     20  H   LIG d   1       3.808  90.749 113.223  0.00  0.00    -0.090 HD
ATOM     21  H   LIG d   1       4.465  89.473 112.434  0.00  0.00    -0.090 HD
ENDBRANCH   5  18
BRANCH   3  22
ATOM     22  C   LIG d   1       4.691  90.492 117.967  0.00  0.00     0.382 C 
ATOM     23  O   LIG d   1       4.203  91.628 118.184  0.00  0.00    -0.241 OA
ATOM     24  O   LIG d   1       5.570  90.046 118.728  0.00  0.00    -0.241 OA
ENDBRANCH   3  22
TORSDOF 7
ENDMDL
MODEL 5
REMARK VINA RESULT:      -4.4      2.837      5.230
REMARK  7 active torsions:
REMARK  status: ('A' for Active; 'I' for Inactive)
REMARK    1  A    between atoms: C_2  and  C_3 
REMARK    2  A    between atoms: C_3  and  O_6 
REMARK    3  A    between atoms: C_3  and  C_4 
REMARK    4  A    between atoms: C_7  and  O_6 
REMARK    5  A    between atoms: C_9  and  C_10 
REMARK    6  A    between atoms: N_15  and  C_14 
REMARK    7  A    between atoms: N_20  and  C_19 
REMARK       I    between atoms: C_22  and  N_20 
ROOT
ATOM      1  C   LIG d   1       1.398  88.731 116.146  0.00  0.00     0.161 C 
ATOM      2  C   LIG d   1       0.060  88.845 116.559  0.00  0.00     0.016 C 
ATOM      3  C   LIG d   1      -0.466  89.998 117.185  0.00  0.00     0.038 C 
ATOM      4  C   LIG d   1       0.278  91.182 117.304  0.00  0.00     0.028 C 
ATOM      5  C   LIG d   1       1.784  90.947 117.358  0.00  0.00    -0.047 C 
ATOM      6  C   LIG d   1       2.195  90.052 116.167  0.00  0.00     0.091 C 
ENDROOT
BRANCH   1   7
ATOM      7  O   LIG d   1       1.456  88.131 114.837  0.00  0.00    -0.368 OA
BRANCH   7   8
ATOM      8  C   LIG d   1       2.276  86.943 114.716  0.00  0.00     0.119 C 
BRANCH   8   9
ATOM      9  C   LIG d   1       1.504  85.935 113.843  0.00  0.00     0.028 C 
ATOM     10  C   LIG d   1       0.007  85.883 114.191  0.00  0.00     0.006 C 
ENDBRANCH   8   9
BRANCH   8  11
ATOM     11  C   LIG d   1       2.459  86.251 116.070  0.00  0.00     0.028 C 
ATOM     12  C   LIG d   1       3.935  86.011 116.422  0.00  0.00     0.006 C 
ENDBRANCH   8  11
ENDBRANCH   7   8
ENDBRANCH   1   7
BRANCH   6  13
ATOM     13  N   LIG d   1       3.640  89.704 116.192  0.00  0.00    -0.311 N 
ATOM     14  C   LIG d   1       4.451  89.867 115.148  0.00  0.00     0.210 C 
ATOM     15  C   LIG d   1       5.900  89.426 115.380  0.00  0.00     0.109 C 
ATOM     16  O   LIG d   1       4.116  90.364 114.063  0.00  0.00    -0.276 OA
ATOM     17  H   LIG d   1       4.003  89.324 117.044  0.00  0.00     0.149 HD
ENDBRANCH   6  13
BRANCH   5  18
ATOM     18  N   LIG d   1       2.441  92.268 117.342  0.00  0.00     0.381 N 
ATOM     19  H   LIG d   1       3.166  92.294 118.031  0.00  0.00    -0.090 HD
ATOM     20  H   LIG d   1       1.762  92.972 117.573  0.00  0.00    -0.090 HD
ATOM     21  H   LIG d   1       2.824  92.448 116.440  0.00  0.00    -0.090 HD
ENDBRANCH   5  18
BRANCH   3  22
ATOM     22  C   LIG d   1      -1.738  89.962 117.735  0.00  0.00     0.382 C 
ATOM     23  O   LIG d   1      -2.723  89.658 117.019  0.00  0.00    -0.241 OA
ATOM     24  O   LIG d   1      -1.920  90.273 118.928  0.00  0.00    -0.241 OA
ENDBRANCH   3  22
TORSDOF 7
ENDMDL
MODEL 6
REMARK VINA RESULT:      -4.4      2.635      4.635
REMARK  7 active torsions:
REMARK  status: ('A' for Active; 'I' for Inactive)
REMARK    1  A    between atoms: C_2  and  C_3 
REMARK    2  A    between atoms: C_3  and  O_6 
REMARK    3  A    between atoms: C_3  and  C_4 
REMARK    4  A    between atoms: C_7  and  O_6 
REMARK    5  A    between atoms: C_9  and  C_10 
REMARK    6  A    between atoms: N_15  and  C_14 
REMARK    7  A    between atoms: N_20  and  C_19 
REMARK       I    between atoms: C_22  and  N_20 
ROOT
ATOM      1  C   LIG d   1       2.721  88.959 115.883  0.00  0.00     0.161 C 
ATOM      2  C   LIG d   1       3.183  90.138 116.491  0.00  0.00     0.016 C 
ATOM      3  C   LIG d   1       2.332  91.072 117.125  0.00  0.00     0.038 C 
ATOM      4  C   LIG d   1       0.968  90.813 117.328  0.00  0.00     0.028 C 
ATOM      5  C   LIG d   1       0.369  89.871 116.289  0.00  0.00    -0.047 C 
ATOM      6  C   LIG d   1       1.251  88.605 116.191  0.00  0.00     0.091 C 
ENDROOT
BRANCH   1   7
ATOM      7  O   LIG d   1       3.584  87.859 116.231  0.00  0.00    -0.368 OA
BRANCH   7   8
ATOM      8  C   LIG d   1       4.396  87.321 115.158  0.00  0.00     0.119 C 
BRANCH   8   9
ATOM      9  C   LIG d   1       5.868  87.628 115.492  0.00  0.00     0.028 C 
ATOM     10  C   LIG d   1       6.106  87.786 117.004  0.00  0.00     0.006 C 
ENDBRANCH   8   9
BRANCH   8  11
ATOM     11  C   LIG d   1       4.121  88.044 113.836  0.00  0.00     0.028 C 
ATOM     12  C   LIG d   1       5.404  88.346 113.045  0.00  0.00     0.006 C 
ENDBRANCH   8  11
ENDBRANCH   7   8
ENDBRANCH   1   7
BRANCH   6  13
ATOM     13  N   LIG d   1       0.783  87.668 115.137  0.00  0.00    -0.311 N 
ATOM     14  C   LIG d   1       0.525  86.381 115.362  0.00  0.00     0.210 C 
ATOM     15  C   LIG d   1       0.072  85.588 114.132  0.00  0.00     0.109 C 
ATOM     16  O   LIG d   1       0.597  85.829 116.470  0.00  0.00    -0.276 OA
ATOM     17  H   LIG d   1       0.667  88.041 114.215  0.00  0.00     0.149 HD
ENDBRANCH   6  13
BRANCH   5  18
ATOM     18  N   LIG d   1      -1.018  89.579 116.699  0.00  0.00     0.381 N 
ATOM     19  H   LIG d   1      -1.221  88.612 116.542  0.00  0.00    -0.090 HD
ATOM     20  H   LIG d   1      -1.645  90.129 116.138  0.00  0.00    -0.090 HD
ATOM     21  H   LIG d   1      -1.142  89.800 117.663  0.00  0.00    -0.090 HD
ENDBRANCH   5  18
BRANCH   3  22
ATOM     22  C   LIG d   1       2.837  92.298 117.529  0.00  0.00     0.382 C 
ATOM     23  O   LIG d   1       2.221  92.978 118.386  0.00  0.00    -0.241 OA
ATOM     24  O   LIG d   1       3.876  92.754 117.016  0.00  0.00    -0.241 OA
ENDBRANCH   3  22
TORSDOF 7
ENDMDL
MODEL 7
REMARK VINA RESULT:      -4.4      1.833      4.802
REMARK  7 active torsions:
REMARK  status: ('A' for Active; 'I' for Inactive)
REMARK    1  A    between atoms: C_2  and  C_3 
REMARK    2  A    between atoms: C_3  and  O_6 
REMARK    3  A    between atoms: C_3  and  C_4 
REMARK    4  A    between atoms: C_7  and  O_6 
REMARK    5  A    between atoms: C_9  and  C_10 
REMARK    6  A    between atoms: N_15  and  C_14 
REMARK    7  A    between atoms: N_20  and  C_19 
REMARK       I    between atoms: C_22  and  N_20 
ROOT
ATOM      1  C   LIG d   1       3.661  88.250 115.383  0.00  0.00     0.161 C 
ATOM      2  C   LIG d   1       3.146  87.516 114.301  0.00  0.00     0.016 C 
ATOM      3  C   LIG d   1       3.677  87.583 112.992  0.00  0.00     0.038 C 
ATOM      4  C   LIG d   1       4.862  88.278 112.707  0.00  0.00     0.028 C 
ATOM      5  C   LIG d   1       5.128  89.438 113.660  0.00  0.00    -0.047 C 
ATOM      6  C   LIG d   1       5.022  88.927 115.115  0.00  0.00     0.091 C 
ENDROOT
BRANCH   1   7
ATOM      7  O   LIG d   1       3.741  87.408 116.550  0.00  0.00    -0.368 OA
BRANCH   7   8
ATOM      8  C   LIG d   1       2.995  87.853 117.709  0.00  0.00     0.119 C 
BRANCH   8   9
ATOM      9  C   LIG d   1       2.297  86.619 118.312  0.00  0.00     0.028 C 
ATOM     10  C   LIG d   1       1.607  85.754 117.244  0.00  0.00     0.006 C 
ENDBRANCH   8   9
BRANCH   8  11
ATOM     11  C   LIG d   1       1.864  88.805 117.312  0.00  0.00     0.028 C 
ATOM     12  C   LIG d   1       1.153  89.425 118.525  0.00  0.00     0.006 C 
ENDBRANCH   8  11
ENDBRANCH   7   8
ENDBRANCH   1   7
BRANCH   6  13
ATOM     13  N   LIG d   1       5.185  90.017 116.112  0.00  0.00    -0.311 N 
ATOM     14  C   LIG d   1       6.282  90.176 116.851  0.00  0.00     0.210 C 
ATOM     15  C   LIG d   1       6.236  91.352 117.832  0.00  0.00     0.109 C 
ATOM     16  O   LIG d   1       7.301  89.475 116.764  0.00  0.00    -0.276 OA
ATOM     17  H   LIG d   1       4.418  90.650 116.226  0.00  0.00     0.149 HD
ENDBRANCH   6  13
BRANCH   5  18
ATOM     18  N   LIG d   1       6.458  89.986 113.335  0.00  0.00     0.381 N 
ATOM     19  H   LIG d   1       6.707  90.688 114.003  0.00  0.00    -0.090 HD
ATOM     20  H   LIG d   1       6.421  90.412 112.427  0.00  0.00    -0.090 HD
ATOM     21  H   LIG d   1       7.137  89.257 113.341  0.00  0.00    -0.090 HD
ENDBRANCH   5  18
BRANCH   3  22
ATOM     22  C   LIG d   1       2.997  86.982 111.943  0.00  0.00     0.382 C 
ATOM     23  O   LIG d   1       2.004  87.553 111.431  0.00  0.00    -0.241 OA
ATOM     24  O   LIG d   1       3.337  85.856 111.533  0.00  0.00    -0.241 OA
ENDBRANCH   3  22
TORSDOF 7
ENDMDL
MODEL 8
REMARK VINA RESULT:      -4.4      3.592      6.572
REMARK  7 active torsions:
REMARK  status: ('A' for Active; 'I' for Inactive)
REMARK    1  A    between atoms: C_2  and  C_3 
REMARK    2  A    between atoms: C_3  and  O_6 
REMARK    3  A    between atoms: C_3  and  C_4 
REMARK    4  A    between atoms: C_7  and  O_6 
REMARK    5  A    between atoms: C_9  and  C_10 
REMARK    6  A    between atoms: N_15  and  C_14 
REMARK    7  A    between atoms: N_20  and  C_19 
REMARK       I    between atoms: C_22  and  N_20 
ROOT
ATOM      1  C   LIG d   1       0.337  89.650 117.229  0.00  0.00     0.161 C 
ATOM      2  C   LIG d   1      -1.059  89.731 117.365  0.00  0.00     0.016 C 
ATOM      3  C   LIG d   1      -1.726  90.864 117.887  0.00  0.00     0.038 C 
ATOM      4  C   LIG d   1      -1.048  92.059 118.169  0.00  0.00     0.028 C 
ATOM      5  C   LIG d   1       0.421  91.852 118.523  0.00  0.00    -0.047 C 
ATOM      6  C   LIG d   1       1.084  90.986 117.428  0.00  0.00     0.091 C 
ENDROOT
BRANCH   1   7
ATOM      7  O   LIG d   1       0.670  89.075 115.950  0.00  0.00    -0.368 OA
BRANCH   7   8
ATOM      8  C   LIG d   1       1.244  87.745 115.980  0.00  0.00     0.119 C 
BRANCH   8   9
ATOM      9  C   LIG d   1       2.421  87.726 114.986  0.00  0.00     0.028 C 
ATOM     10  C   LIG d   1       3.779  87.924 115.680  0.00  0.00     0.006 C 
ENDBRANCH   8   9
BRANCH   8  11
ATOM     11  C   LIG d   1       0.255  86.699 115.457  0.00  0.00     0.028 C 
ATOM     12  C   LIG d   1       0.656  86.132 114.087  0.00  0.00     0.006 C 
ENDBRANCH   8  11
ENDBRANCH   7   8
ENDBRANCH   1   7
BRANCH   6  13
ATOM     13  N   LIG d   1       2.502  90.666 117.739  0.00  0.00    -0.311 N 
ATOM     14  C   LIG d   1       3.524  91.438 117.377  0.00  0.00     0.210 C 
ATOM     15  C   LIG d   1       4.906  90.914 117.781  0.00  0.00     0.109 C 
ATOM     16  O   LIG d   1       3.416  92.524 116.788  0.00  0.00    -0.276 OA
ATOM     17  H   LIG d   1       2.678  89.818 118.242  0.00  0.00     0.149 HD
ENDBRANCH   6  13
BRANCH   5  18
ATOM     18  N   LIG d   1       1.039  93.185 118.658  0.00  0.00     0.381 N 
ATOM     19  H   LIG d   1       0.474  93.762 119.250  0.00  0.00    -0.090 HD
ATOM     20  H   LIG d   1       1.086  93.615 117.751  0.00  0.00    -0.090 HD
ATOM     21  H   LIG d   1       1.955  93.100 119.040  0.00  0.00    -0.090 HD
ENDBRANCH   5  18
BRANCH   3  22
ATOM     22  C   LIG d   1      -3.082  90.793 118.169  0.00  0.00     0.382 C 
ATOM     23  O   LIG d   1      -3.636  91.715 118.814  0.00  0.00    -0.241 OA
ATOM     24  O   LIG d   1      -3.748  89.799 117.824  0.00  0.00    -0.241 OA
ENDBRANCH   3  22
TORSDOF 7
ENDMDL
MODEL 9
REMARK VINA RESULT:      -4.1      2.589      5.364
REMARK  7 active torsions:
REMARK  status: ('A' for Active; 'I' for Inactive)
REMARK    1  A    between atoms: C_2  and  C_3 
REMARK    2  A    between atoms: C_3  and  O_6 
REMARK    3  A    between atoms: C_3  and  C_4 
REMARK    4  A    between atoms: C_7  and  O_6 
REMARK    5  A    between atoms: C_9  and  C_10 
REMARK    6  A    between atoms: N_15  and  C_14 
REMARK    7  A    between atoms: N_20  and  C_19 
REMARK       I    between atoms: C_22  and  N_20 
ROOT
ATOM      1  C   LIG d   1       4.263  87.077 115.786  0.00  0.00     0.161 C 
ATOM      2  C   LIG d   1       2.923  87.438 115.568  0.00  0.00     0.016 C 
ATOM      3  C   LIG d   1       2.293  88.523 116.221  0.00  0.00     0.038 C 
ATOM      4  C   LIG d   1       3.009  89.419 117.028  0.00  0.00     0.028 C 
ATOM      5  C   LIG d   1       4.244  88.799 117.674  0.00  0.00    -0.047 C 
ATOM      6  C   LIG d   1       5.090  88.111 116.579  0.00  0.00     0.091 C 
ENDROOT
BRANCH   1   7
ATOM      7  O   LIG d   1       4.901  86.784 114.528  0.00  0.00    -0.368 OA
BRANCH   7   8
ATOM      8  C   LIG d   1       4.578  87.670 113.428  0.00  0.00     0.119 C 
BRANCH   8   9
ATOM      9  C   LIG d   1       4.284  86.791 112.197  0.00  0.00     0.028 C 
ATOM     10  C   LIG d   1       2.829  86.923 111.716  0.00  0.00     0.006 C 
ENDBRANCH   8   9
BRANCH   8  11
ATOM     11  C   LIG d   1       5.782  88.531 113.033  0.00  0.00     0.028 C 
ATOM     12  C   LIG d   1       5.817  89.880 113.768  0.00  0.00     0.006 C 
ENDBRANCH   8  11
ENDBRANCH   7   8
ENDBRANCH   1   7
BRANCH   6  13
ATOM     13  N   LIG d   1       6.274  87.406 117.137  0.00  0.00    -0.311 N 
ATOM     14  C   LIG d   1       7.473  87.973 117.263  0.00  0.00     0.210 C 
ATOM     15  C   LIG d   1       8.561  87.064 117.843  0.00  0.00     0.109 C 
ATOM     16  O   LIG d   1       7.731  89.152 116.978  0.00  0.00    -0.276 OA
ATOM     17  H   LIG d   1       6.146  86.455 117.423  0.00  0.00     0.149 HD
ENDBRANCH   6  13
BRANCH   5  18
ATOM     18  N   LIG d   1       4.969  89.877 118.374  0.00  0.00     0.381 N 
ATOM     19  H   LIG d   1       4.889  89.751 119.363  0.00  0.00    -0.090 HD
ATOM     20  H   LIG d   1       4.553  90.759 118.133  0.00  0.00    -0.090 HD
ATOM     21  H   LIG d   1       5.929  89.870 118.107  0.00  0.00    -0.090 HD
ENDBRANCH   5  18
BRANCH   3  22
ATOM     22  C   LIG d   1       0.923  88.696 116.100  0.00  0.00     0.382 C 
ATOM     23  O   LIG d   1       0.447  89.847 115.952  0.00  0.00    -0.241 OA
ATOM     24  O   LIG d   1       0.153  87.720 116.180  0.00  0.00    -0.241 OA
ENDBRANCH   3  22
TORSDOF 7
ENDMDL
