MODEL 1
REMARK VINA RESULT:      -5.1      0.000      0.000
REMARK  7 active torsions:
REMARK  status: ('A' for Active; 'I' for Inactive)
REMARK    1  A    between atoms: C_2  and  C_3 
REMARK    2  A    between atoms: C_3  and  O_6 
REMARK    3  A    between atoms: C_3  and  C_4 
REMARK    4  A    between atoms: C_7  and  O_6 
REMARK    5  A    between atoms: C_9  and  C_10 
REMARK    6  A    between atoms: N_15  and  C_14 
REMARK    7  A    between atoms: N_20  and  C_19 
REMARK       I    between atoms: C_22  and  N_20 
ROOT
ATOM      1  C   LIG d   1      -6.020  90.885 118.172  0.00  0.00     0.161 C 
ATOM      2  C   LIG d   1      -6.788  92.060 118.122  0.00  0.00     0.016 C 
ATOM      3  C   LIG d   1      -6.230  93.358 118.192  0.00  0.00     0.038 C 
ATOM      4  C   LIG d   1      -4.844  93.572 118.165  0.00  0.00     0.028 C 
ATOM      5  C   LIG d   1      -4.040  92.403 118.725  0.00  0.00    -0.047 C 
ATOM      6  C   LIG d   1      -4.499  91.100 118.031  0.00  0.00     0.091 C 
ENDROOT
BRANCH   1   7
ATOM      7  O   LIG d   1      -6.489  89.952 117.178  0.00  0.00    -0.368 OA
BRANCH   7   8
ATOM      8  C   LIG d   1      -7.340  90.500 116.141  0.00  0.00     0.119 C 
BRANCH   8   9
ATOM      9  C   LIG d   1      -8.415  89.444 115.819  0.00  0.00     0.028 C 
ATOM     10  C   LIG d   1      -8.967  88.764 117.083  0.00  0.00     0.006 C 
ENDBRANCH   8   9
BRANCH   8  11
ATOM     11  C   LIG d   1      -6.566  90.703 114.835  0.00  0.00     0.028 C 
ATOM     12  C   LIG d   1      -6.230  92.178 114.565  0.00  0.00     0.006 C 
ENDBRANCH   8  11
ENDBRANCH   7   8
ENDBRANCH   1   7
BRANCH   6  13
ATOM     13  N   LIG d   1      -3.821  89.897 118.580  0.00  0.00    -0.311 N 
ATOM     14  C   LIG d   1      -2.673  89.420 118.102  0.00  0.00     0.210 C 
ATOM     15  C   LIG d   1      -2.157  88.157 118.800  0.00  0.00     0.109 C 
ATOM     16  O   LIG d   1      -2.017  89.940 117.188  0.00  0.00    -0.276 OA
ATOM     17  H   LIG d   1      -4.269  89.430 119.344  0.00  0.00     0.149 HD
ENDBRANCH   6  13
BRANCH   5  18
ATOM     18  N   LIG d   1      -2.612  92.701 118.509  0.00  0.00     0.381 N 
ATOM     19  H   LIG d   1      -2.490  93.681 118.350  0.00  0.00    -0.090 HD
ATOM     20  H   LIG d   1      -2.296  92.208 117.693  0.00  0.00    -0.090 HD
ATOM     21  H   LIG d   1      -2.081  92.418 119.303  0.00  0.00    -0.090 HD
ENDBRANCH   5  18
BRANCH   3  22
ATOM     22  C   LIG d   1      -7.064  94.457 118.330  0.00  0.00     0.382 C 
ATOM     23  O   LIG d   1      -8.306  94.321 118.218  0.00  0.00    -0.241 OA
ATOM     24  O   LIG d   1      -6.586  95.592 118.523  0.00  0.00    -0.241 OA
ENDBRANCH   3  22
TORSDOF 7
ENDMDL
MODEL 2
REMARK VINA RESULT:      -4.8      7.551      9.940
REMARK  7 active torsions:
REMARK  status: ('A' for Active; 'I' for Inactive)
REMARK    1  A    between atoms: C_2  and  C_3 
REMARK    2  A    between atoms: C_3  and  O_6 
REMARK    3  A    between atoms: C_3  and  C_4 
REMARK    4  A    between atoms: C_7  and  O_6 
REMARK    5  A    between atoms: C_9  and  C_10 
REMARK    6  A    between atoms: N_15  and  C_14 
REMARK    7  A    between atoms: N_20  and  C_19 
REMARK       I    between atoms: C_22  and  N_20 
ROOT
ATOM      1  C   LIG d   1       2.778  88.382 115.336  0.00  0.00     0.161 C 
ATOM      2  C   LIG d   1       2.923  89.440 116.248  0.00  0.00     0.016 C 
ATOM      3  C   LIG d   1       3.882  90.469 116.100  0.00  0.00     0.038 C 
ATOM      4  C   LIG d   1       4.665  90.591 114.942  0.00  0.00     0.028 C 
ATOM      5  C   LIG d   1       4.906  89.264 114.231  0.00  0.00    -0.047 C 
ATOM      6  C   LIG d   1       3.548  88.559 114.011  0.00  0.00     0.091 C 
ENDROOT
BRANCH   1   7
ATOM      7  O   LIG d   1       1.379  88.150 115.075  0.00  0.00    -0.368 OA
BRANCH   7   8
ATOM      8  C   LIG d   1       0.774  87.041 115.785  0.00  0.00     0.119 C 
BRANCH   8   9
ATOM      9  C   LIG d   1       0.431  87.532 117.205  0.00  0.00     0.028 C 
ATOM     10  C   LIG d   1      -1.064  87.852 117.370  0.00  0.00     0.006 C 
ENDBRANCH   8   9
BRANCH   8  11
ATOM     11  C   LIG d   1       1.770  85.895 115.982  0.00  0.00     0.028 C 
ATOM     12  C   LIG d   1       1.863  85.430 117.444  0.00  0.00     0.006 C 
ENDBRANCH   8  11
ENDBRANCH   7   8
ENDBRANCH   1   7
BRANCH   6  13
ATOM     13  N   LIG d   1       3.700  87.215 113.395  0.00  0.00    -0.311 N 
ATOM     14  C   LIG d   1       3.141  86.872 112.236  0.00  0.00     0.210 C 
ATOM     15  C   LIG d   1       3.408  85.430 111.791  0.00  0.00     0.109 C 
ATOM     16  O   LIG d   1       2.477  87.634 111.518  0.00  0.00    -0.276 OA
ATOM     17  H   LIG d   1       4.249  86.543 113.896  0.00  0.00     0.149 HD
ENDBRANCH   6  13
BRANCH   5  18
ATOM     18  N   LIG d   1       5.617  89.556 112.972  0.00  0.00     0.381 N 
ATOM     19  H   LIG d   1       4.986  89.473 112.199  0.00  0.00    -0.090 HD
ATOM     20  H   LIG d   1       6.353  88.883 112.851  0.00  0.00    -0.090 HD
ATOM     21  H   LIG d   1       5.998  90.476 113.001  0.00  0.00    -0.090 HD
ENDBRANCH   5  18
BRANCH   3  22
ATOM     22  C   LIG d   1       4.093  91.366 117.135  0.00  0.00     0.382 C 
ATOM     23  O   LIG d   1       4.486  90.953 118.253  0.00  0.00    -0.241 OA
ATOM     24  O   LIG d   1       3.853  92.578 116.980  0.00  0.00    -0.241 OA
ENDBRANCH   3  22
TORSDOF 7
ENDMDL
MODEL 3
REMARK VINA RESULT:      -4.6      7.257      9.390
REMARK  7 active torsions:
REMARK  status: ('A' for Active; 'I' for Inactive)
REMARK    1  A    between atoms: C_2  and  C_3 
REMARK    2  A    between atoms: C_3  and  O_6 
REMARK    3  A    between atoms: C_3  and  C_4 
REMARK    4  A    between atoms: C_7  and  O_6 
REMARK    5  A    between atoms: C_9  and  C_10 
REMARK    6  A    between atoms: N_15  and  C_14 
REMARK    7  A    between atoms: N_20  and  C_19 
REMARK       I    between atoms: C_22  and  N_20 
ROOT
ATOM      1  C   LIG d   1       2.256  86.513 115.664  0.00  0.00     0.161 C 
ATOM      2  C   LIG d   1       1.209  86.244 116.561  0.00  0.00     0.016 C 
ATOM      3  C   LIG d   1       0.423  87.253 117.164  0.00  0.00     0.038 C 
ATOM      4  C   LIG d   1       0.533  88.601 116.792  0.00  0.00     0.028 C 
ATOM      5  C   LIG d   1       1.915  88.973 116.266  0.00  0.00    -0.047 C 
ATOM      6  C   LIG d   1       2.318  87.971 115.161  0.00  0.00     0.091 C 
ENDROOT
BRANCH   1   7
ATOM      7  O   LIG d   1       2.191  85.601 114.550  0.00  0.00    -0.368 OA
BRANCH   7   8
ATOM      8  C   LIG d   1       1.609  86.124 113.330  0.00  0.00     0.119 C 
BRANCH   8   9
ATOM      9  C   LIG d   1       0.197  85.523 113.196  0.00  0.00     0.028 C 
ATOM     10  C   LIG d   1      -0.393  85.718 111.789  0.00  0.00     0.006 C 
ENDBRANCH   8   9
BRANCH   8  11
ATOM     11  C   LIG d   1       2.375  85.641 112.095  0.00  0.00     0.028 C 
ATOM     12  C   LIG d   1       3.873  85.430 112.368  0.00  0.00     0.006 C 
ENDBRANCH   8  11
ENDBRANCH   7   8
ENDBRANCH   1   7
BRANCH   6  13
ATOM     13  N   LIG d   1       3.693  88.212 114.650  0.00  0.00    -0.311 N 
ATOM     14  C   LIG d   1       3.955  88.948 113.571  0.00  0.00     0.210 C 
ATOM     15  C   LIG d   1       5.439  89.053 113.206  0.00  0.00     0.109 C 
ATOM     16  O   LIG d   1       3.103  89.550 112.901  0.00  0.00    -0.276 OA
ATOM     17  H   LIG d   1       4.447  87.787 115.153  0.00  0.00     0.149 HD
ENDBRANCH   6  13
BRANCH   5  18
ATOM     18  N   LIG d   1       1.849  90.367 115.787  0.00  0.00     0.381 N 
ATOM     19  H   LIG d   1       1.596  90.973 116.542  0.00  0.00    -0.090 HD
ATOM     20  H   LIG d   1       1.140  90.433 115.078  0.00  0.00    -0.090 HD
ATOM     21  H   LIG d   1       2.731  90.641 115.413  0.00  0.00    -0.090 HD
ENDBRANCH   5  18
BRANCH   3  22
ATOM     22  C   LIG d   1      -0.459  86.920 118.182  0.00  0.00     0.382 C 
ATOM     23  O   LIG d   1      -1.460  87.643 118.405  0.00  0.00    -0.241 OA
ATOM     24  O   LIG d   1      -0.242  85.931 118.907  0.00  0.00    -0.241 OA
ENDBRANCH   3  22
TORSDOF 7
ENDMDL
MODEL 4
REMARK VINA RESULT:      -4.6      8.079     10.570
REMARK  7 active torsions:
REMARK  status: ('A' for Active; 'I' for Inactive)
REMARK    1  A    between atoms: C_2  and  C_3 
REMARK    2  A    between atoms: C_3  and  O_6 
REMARK    3  A    between atoms: C_3  and  C_4 
REMARK    4  A    between atoms: C_7  and  O_6 
REMARK    5  A    between atoms: C_9  and  C_10 
REMARK    6  A    between atoms: N_15  and  C_14 
REMARK    7  A    between atoms: N_20  and  C_19 
REMARK       I    between atoms: C_22  and  N_20 
ROOT
ATOM      1  C   LIG d   1       2.905  88.304 115.073  0.00  0.00     0.161 C 
ATOM      2  C   LIG d   1       2.570  87.351 114.097  0.00  0.00     0.016 C 
ATOM      3  C   LIG d   1       3.253  87.224 112.866  0.00  0.00     0.038 C 
ATOM      4  C   LIG d   1       4.423  87.947 112.589  0.00  0.00     0.028 C 
ATOM      5  C   LIG d   1       4.503  89.276 113.331  0.00  0.00    -0.047 C 
ATOM      6  C   LIG d   1       4.248  89.027 114.835  0.00  0.00     0.091 C 
ENDROOT
BRANCH   1   7
ATOM      7  O   LIG d   1       2.889  87.694 116.378  0.00  0.00    -0.368 OA
BRANCH   7   8
ATOM      8  C   LIG d   1       1.780  88.056 117.237  0.00  0.00     0.119 C 
BRANCH   8   9
ATOM      9  C   LIG d   1       0.795  86.871 117.247  0.00  0.00     0.028 C 
ATOM     10  C   LIG d   1      -0.438  87.139 118.126  0.00  0.00     0.006 C 
ENDBRANCH   8   9
BRANCH   8  11
ATOM     11  C   LIG d   1       0.990  89.234 116.660  0.00  0.00     0.028 C 
ATOM     12  C   LIG d   1       1.099  90.504 117.520  0.00  0.00     0.006 C 
ENDBRANCH   8  11
ENDBRANCH   7   8
ENDBRANCH   1   7
BRANCH   6  13
ATOM     13  N   LIG d   1       4.225  90.287 115.623  0.00  0.00    -0.311 N 
ATOM     14  C   LIG d   1       4.890  90.450 116.765  0.00  0.00     0.210 C 
ATOM     15  C   LIG d   1       4.714  91.821 117.426  0.00  0.00     0.109 C 
ATOM     16  O   LIG d   1       5.634  89.600 117.278  0.00  0.00    -0.276 OA
ATOM     17  H   LIG d   1       3.671  91.040 115.263  0.00  0.00     0.149 HD
ENDBRANCH   6  13
BRANCH   5  18
ATOM     18  N   LIG d   1       5.830  89.860 113.059  0.00  0.00     0.381 N 
ATOM     19  H   LIG d   1       5.870  90.793 113.417  0.00  0.00    -0.090 HD
ATOM     20  H   LIG d   1       5.971  89.896 112.065  0.00  0.00    -0.090 HD
ATOM     21  H   LIG d   1       6.540  89.303 113.482  0.00  0.00    -0.090 HD
ENDBRANCH   5  18
BRANCH   3  22
ATOM     22  C   LIG d   1       2.743  86.393 111.879  0.00  0.00     0.382 C 
ATOM     23  O   LIG d   1       1.584  86.583 111.438  0.00  0.00    -0.241 OA
ATOM     24  O   LIG d   1       3.410  85.430 111.457  0.00  0.00    -0.241 OA
ENDBRANCH   3  22
TORSDOF 7
ENDMDL
MODEL 5
REMARK VINA RESULT:      -4.4      8.896     10.823
REMARK  7 active torsions:
REMARK  status: ('A' for Active; 'I' for Inactive)
REMARK    1  A    between atoms: C_2  and  C_3 
REMARK    2  A    between atoms: C_3  and  O_6 
REMARK    3  A    between atoms: C_3  and  C_4 
REMARK    4  A    between atoms: C_7  and  O_6 
REMARK    5  A    between atoms: C_9  and  C_10 
REMARK    6  A    between atoms: N_15  and  C_14 
REMARK    7  A    between atoms: N_20  and  C_19 
REMARK       I    between atoms: C_22  and  N_20 
ROOT
ATOM      1  C   LIG d   1       4.120  87.626 116.356  0.00  0.00     0.161 C 
ATOM      2  C   LIG d   1       3.241  88.691 116.096  0.00  0.00     0.016 C 
ATOM      3  C   LIG d   1       3.586  90.048 116.287  0.00  0.00     0.038 C 
ATOM      4  C   LIG d   1       4.894  90.443 116.608  0.00  0.00     0.028 C 
ATOM      5  C   LIG d   1       5.677  89.379 117.370  0.00  0.00    -0.047 C 
ATOM      6  C   LIG d   1       5.585  88.042 116.601  0.00  0.00     0.091 C 
ENDROOT
BRANCH   1   7
ATOM      7  O   LIG d   1       4.045  86.659 115.289  0.00  0.00    -0.368 OA
BRANCH   7   8
ATOM      8  C   LIG d   1       3.408  87.107 114.067  0.00  0.00     0.119 C 
BRANCH   8   9
ATOM      9  C   LIG d   1       2.365  86.043 113.673  0.00  0.00     0.028 C 
ATOM     10  C   LIG d   1       1.030  86.226 114.415  0.00  0.00     0.006 C 
ENDBRANCH   8   9
BRANCH   8  11
ATOM     11  C   LIG d   1       4.403  87.151 112.904  0.00  0.00     0.028 C 
ATOM     12  C   LIG d   1       5.336  88.371 112.964  0.00  0.00     0.006 C 
ENDBRANCH   8  11
ENDBRANCH   7   8
ENDBRANCH   1   7
BRANCH   6  13
ATOM     13  N   LIG d   1       6.255  86.927 117.321  0.00  0.00    -0.311 N 
ATOM     14  C   LIG d   1       7.546  86.632 117.178  0.00  0.00     0.210 C 
ATOM     15  C   LIG d   1       8.030  85.432 117.997  0.00  0.00     0.109 C 
ATOM     16  O   LIG d   1       8.343  87.271 116.475  0.00  0.00    -0.276 OA
ATOM     17  H   LIG d   1       5.689  86.376 117.936  0.00  0.00     0.149 HD
ENDBRANCH   6  13
BRANCH   5  18
ATOM     18  N   LIG d   1       7.061  89.867 117.519  0.00  0.00     0.381 N 
ATOM     19  H   LIG d   1       7.656  89.405 116.860  0.00  0.00    -0.090 HD
ATOM     20  H   LIG d   1       7.385  89.648 118.444  0.00  0.00    -0.090 HD
ATOM     21  H   LIG d   1       7.094  90.852 117.372  0.00  0.00    -0.090 HD
ENDBRANCH   5  18
BRANCH   3  22
ATOM     22  C   LIG d   1       2.607  91.026 116.194  0.00  0.00     0.382 C 
ATOM     23  O   LIG d   1       1.493  90.751 115.688  0.00  0.00    -0.241 OA
ATOM     24  O   LIG d   1       2.840  92.191 116.570  0.00  0.00    -0.241 OA
ENDBRANCH   3  22
TORSDOF 7
ENDMDL
MODEL 6
REMARK VINA RESULT:      -4.3      6.993     10.208
REMARK  7 active torsions:
REMARK  status: ('A' for Active; 'I' for Inactive)
REMARK    1  A    between atoms: C_2  and  C_3 
REMARK    2  A    between atoms: C_3  and  O_6 
REMARK    3  A    between atoms: C_3  and  C_4 
REMARK    4  A    between atoms: C_7  and  O_6 
REMARK    5  A    between atoms: C_9  and  C_10 
REMARK    6  A    between atoms: N_15  and  C_14 
REMARK    7  A    between atoms: N_20  and  C_19 
REMARK       I    between atoms: C_22  and  N_20 
ROOT
ATOM      1  C   LIG d   1       3.115  88.235 116.269  0.00  0.00     0.161 C 
ATOM      2  C   LIG d   1       3.945  88.640 115.210  0.00  0.00     0.016 C 
ATOM      3  C   LIG d   1       3.830  88.135 113.894  0.00  0.00     0.038 C 
ATOM      4  C   LIG d   1       2.771  87.297 113.512  0.00  0.00     0.028 C 
ATOM      5  C   LIG d   1       2.210  86.467 114.662  0.00  0.00    -0.047 C 
ATOM      6  C   LIG d   1       1.885  87.406 115.846  0.00  0.00     0.091 C 
ENDROOT
BRANCH   1   7
ATOM      7  O   LIG d   1       2.705  89.386 117.035  0.00  0.00    -0.368 OA
BRANCH   7   8
ATOM      8  C   LIG d   1       2.230  90.523 116.272  0.00  0.00     0.119 C 
BRANCH   8   9
ATOM      9  C   LIG d   1       2.762  91.795 116.959  0.00  0.00     0.028 C 
ATOM     10  C   LIG d   1       4.294  91.790 117.100  0.00  0.00     0.006 C 
ENDBRANCH   8   9
BRANCH   8  11
ATOM     11  C   LIG d   1       0.704  90.636 116.334  0.00  0.00     0.028 C 
ATOM     12  C   LIG d   1       0.190  91.011 117.733  0.00  0.00     0.006 C 
ENDBRANCH   8  11
ENDBRANCH   7   8
ENDBRANCH   1   7
BRANCH   6  13
ATOM     13  N   LIG d   1       1.409  86.665 117.043  0.00  0.00    -0.311 N 
ATOM     14  C   LIG d   1       0.193  86.817 117.564  0.00  0.00     0.210 C 
ATOM     15  C   LIG d   1      -0.087  85.972 118.811  0.00  0.00     0.109 C 
ATOM     16  O   LIG d   1      -0.692  87.548 117.093  0.00  0.00    -0.276 OA
ATOM     17  H   LIG d   1       2.052  86.027 117.470  0.00  0.00     0.149 HD
ENDBRANCH   6  13
BRANCH   5  18
ATOM     18  N   LIG d   1       1.027  85.745 114.155  0.00  0.00     0.381 N 
ATOM     19  H   LIG d   1       0.421  85.513 114.915  0.00  0.00    -0.090 HD
ATOM     20  H   LIG d   1       1.330  84.892 113.720  0.00  0.00    -0.090 HD
ATOM     21  H   LIG d   1       0.541  86.310 113.493  0.00  0.00    -0.090 HD
ENDBRANCH   5  18
BRANCH   3  22
ATOM     22  C   LIG d   1       4.804  88.436 112.954  0.00  0.00     0.382 C 
ATOM     23  O   LIG d   1       5.388  89.546 112.991  0.00  0.00    -0.241 OA
ATOM     24  O   LIG d   1       5.074  87.630 112.044  0.00  0.00    -0.241 OA
ENDBRANCH   3  22
TORSDOF 7
ENDMDL
MODEL 7
REMARK VINA RESULT:      -4.0      7.142     10.378
REMARK  7 active torsions:
REMARK  status: ('A' for Active; 'I' for Inactive)
REMARK    1  A    between atoms: C_2  and  C_3 
REMARK    2  A    between atoms: C_3  and  O_6 
REMARK    3  A    between atoms: C_3  and  C_4 
REMARK    4  A    between atoms: C_7  and  O_6 
REMARK    5  A    between atoms: C_9  and  C_10 
REMARK    6  A    between atoms: N_15  and  C_14 
REMARK    7  A    between atoms: N_20  and  C_19 
REMARK       I    between atoms: C_22  and  N_20 
ROOT
ATOM      1  C   LIG d   1       3.801  90.067 115.619  0.00  0.00     0.161 C 
ATOM      2  C   LIG d   1       3.011  91.010 116.299  0.00  0.00     0.016 C 
ATOM      3  C   LIG d   1       1.699  90.743 116.752  0.00  0.00     0.038 C 
ATOM      4  C   LIG d   1       1.140  89.458 116.690  0.00  0.00     0.028 C 
ATOM      5  C   LIG d   1       1.707  88.605 115.560  0.00  0.00    -0.047 C 
ATOM      6  C   LIG d   1       3.250  88.626 115.641  0.00  0.00     0.091 C 
ENDROOT
BRANCH   1   7
ATOM      7  O   LIG d   1       5.147  90.097 116.134  0.00  0.00    -0.368 OA
BRANCH   7   8
ATOM      8  C   LIG d   1       5.418  89.228 117.261  0.00  0.00     0.119 C 
BRANCH   8   9
ATOM      9  C   LIG d   1       5.776  90.125 118.462  0.00  0.00     0.028 C 
ATOM     10  C   LIG d   1       6.572  91.373 118.045  0.00  0.00     0.006 C 
ENDBRANCH   8   9
BRANCH   8  11
ATOM     11  C   LIG d   1       6.660  88.366 117.014  0.00  0.00     0.028 C 
ATOM     12  C   LIG d   1       6.351  86.860 117.018  0.00  0.00     0.006 C 
ENDBRANCH   8  11
ENDBRANCH   7   8
ENDBRANCH   1   7
BRANCH   6  13
ATOM     13  N   LIG d   1       3.887  87.885 114.521  0.00  0.00    -0.311 N 
ATOM     14  C   LIG d   1       3.704  88.195 113.239  0.00  0.00     0.210 C 
ATOM     15  C   LIG d   1       4.437  87.290 112.244  0.00  0.00     0.109 C 
ATOM     16  O   LIG d   1       3.031  89.154 112.832  0.00  0.00    -0.276 OA
ATOM     17  H   LIG d   1       4.475  87.111 114.762  0.00  0.00     0.149 HD
ENDBRANCH   6  13
BRANCH   5  18
ATOM     18  N   LIG d   1       1.139  87.250 115.696  0.00  0.00     0.381 N 
ATOM     19  H   LIG d   1       0.140  87.301 115.704  0.00  0.00    -0.090 HD
ATOM     20  H   LIG d   1       1.442  86.857 116.570  0.00  0.00    -0.090 HD
ATOM     21  H   LIG d   1       1.444  86.675 114.942  0.00  0.00    -0.090 HD
ENDBRANCH   5  18
BRANCH   3  22
ATOM     22  C   LIG d   1       0.916  91.779 117.239  0.00  0.00     0.382 C 
ATOM     23  O   LIG d   1       1.422  92.911 117.428  0.00  0.00    -0.241 OA
ATOM     24  O   LIG d   1      -0.278  91.583 117.534  0.00  0.00    -0.241 OA
ENDBRANCH   3  22
TORSDOF 7
ENDMDL
MODEL 8
REMARK VINA RESULT:      -4.0      4.125      7.497
REMARK  7 active torsions:
REMARK  status: ('A' for Active; 'I' for Inactive)
REMARK    1  A    between atoms: C_2  and  C_3 
REMARK    2  A    between atoms: C_3  and  O_6 
REMARK    3  A    between atoms: C_3  and  C_4 
REMARK    4  A    between atoms: C_7  and  O_6 
REMARK    5  A    between atoms: C_9  and  C_10 
REMARK    6  A    between atoms: N_15  and  C_14 
REMARK    7  A    between atoms: N_20  and  C_19 
REMARK       I    between atoms: C_22  and  N_20 
ROOT
ATOM      1  C   LIG d   1       0.493  89.862 117.166  0.00  0.00     0.161 C 
ATOM      2  C   LIG d   1       1.770  90.391 117.415  0.00  0.00     0.016 C 
ATOM      3  C   LIG d   1       1.999  91.743 117.761  0.00  0.00     0.038 C 
ATOM      4  C   LIG d   1       0.944  92.627 118.031  0.00  0.00     0.028 C 
ATOM      5  C   LIG d   1      -0.347  92.271 117.301  0.00  0.00    -0.047 C 
ATOM      6  C   LIG d   1      -0.678  90.785 117.564  0.00  0.00     0.091 C 
ENDROOT
BRANCH   1   7
ATOM      7  O   LIG d   1       0.361  88.579 117.810  0.00  0.00    -0.368 OA
BRANCH   7   8
ATOM      8  C   LIG d   1       0.186  87.440 116.933  0.00  0.00     0.119 C 
BRANCH   8   9
ATOM      9  C   LIG d   1       0.599  86.181 117.719  0.00  0.00     0.028 C 
ATOM     10  C   LIG d   1      -0.313  85.919 118.929  0.00  0.00     0.006 C 
ENDBRANCH   8   9
BRANCH   8  11
ATOM     11  C   LIG d   1       1.142  87.504 115.738  0.00  0.00     0.028 C 
ATOM     12  C   LIG d   1       0.915  86.365 114.731  0.00  0.00     0.006 C 
ENDBRANCH   8  11
ENDBRANCH   7   8
ENDBRANCH   1   7
BRANCH   6  13
ATOM     13  N   LIG d   1      -1.881  90.332 116.819  0.00  0.00    -0.311 N 
ATOM     14  C   LIG d   1      -3.108  90.332 117.337  0.00  0.00     0.210 C 
ATOM     15  C   LIG d   1      -4.204  89.806 116.405  0.00  0.00     0.109 C 
ATOM     16  O   LIG d   1      -3.398  90.749 118.469  0.00  0.00    -0.276 OA
ATOM     17  H   LIG d   1      -1.742  90.006 115.882  0.00  0.00     0.149 HD
ENDBRANCH   6  13
BRANCH   5  18
ATOM     18  N   LIG d   1      -1.397  93.191 117.779  0.00  0.00     0.381 N 
ATOM     19  H   LIG d   1      -1.874  92.785 118.559  0.00  0.00    -0.090 HD
ATOM     20  H   LIG d   1      -2.063  93.334 117.041  0.00  0.00    -0.090 HD
ATOM     21  H   LIG d   1      -0.992  94.062 118.045  0.00  0.00    -0.090 HD
ENDBRANCH   5  18
BRANCH   3  22
ATOM     22  C   LIG d   1       3.296  92.232 117.801  0.00  0.00     0.382 C 
ATOM     23  O   LIG d   1       3.893  92.336 118.899  0.00  0.00    -0.241 OA
ATOM     24  O   LIG d   1       3.860  92.612 116.757  0.00  0.00    -0.241 OA
ENDBRANCH   3  22
TORSDOF 7
ENDMDL
MODEL 9
REMARK VINA RESULT:      -4.0      5.163      7.868
REMARK  7 active torsions:
REMARK  status: ('A' for Active; 'I' for Inactive)
REMARK    1  A    between atoms: C_2  and  C_3 
REMARK    2  A    between atoms: C_3  and  O_6 
REMARK    3  A    between atoms: C_3  and  C_4 
REMARK    4  A    between atoms: C_7  and  O_6 
REMARK    5  A    between atoms: C_9  and  C_10 
REMARK    6  A    between atoms: N_15  and  C_14 
REMARK    7  A    between atoms: N_20  and  C_19 
REMARK       I    between atoms: C_22  and  N_20 
ROOT
ATOM      1  C   LIG d   1       1.310  89.054 118.256  0.00  0.00     0.161 C 
ATOM      2  C   LIG d   1       0.031  88.479 118.170  0.00  0.00     0.016 C 
ATOM      3  C   LIG d   1      -1.129  89.209 117.825  0.00  0.00     0.038 C 
ATOM      4  C   LIG d   1      -1.065  90.542 117.392  0.00  0.00     0.028 C 
ATOM      5  C   LIG d   1       0.135  91.302 117.947  0.00  0.00    -0.047 C 
ATOM      6  C   LIG d   1       1.417  90.481 117.679  0.00  0.00     0.091 C 
ENDROOT
BRANCH   1   7
ATOM      7  O   LIG d   1       2.278  88.188 117.632  0.00  0.00    -0.368 OA
BRANCH   7   8
ATOM      8  C   LIG d   1       2.316  88.213 116.184  0.00  0.00     0.119 C 
BRANCH   8   9
ATOM      9  C   LIG d   1       2.132  86.765 115.691  0.00  0.00     0.028 C 
ATOM     10  C   LIG d   1       0.802  86.563 114.945  0.00  0.00     0.006 C 
ENDBRANCH   8   9
BRANCH   8  11
ATOM     11  C   LIG d   1       3.693  88.644 115.670  0.00  0.00     0.028 C 
ATOM     12  C   LIG d   1       3.618  89.437 114.356  0.00  0.00     0.006 C 
ENDBRANCH   8  11
ENDBRANCH   7   8
ENDBRANCH   1   7
BRANCH   6  13
ATOM     13  N   LIG d   1       2.627  91.113 118.265  0.00  0.00    -0.311 N 
ATOM     14  C   LIG d   1       3.443  91.911 117.577  0.00  0.00     0.210 C 
ATOM     15  C   LIG d   1       4.645  92.441 118.366  0.00  0.00     0.109 C 
ATOM     16  O   LIG d   1       3.269  92.255 116.399  0.00  0.00    -0.276 OA
ATOM     17  H   LIG d   1       2.828  90.913 119.225  0.00  0.00     0.149 HD
ENDBRANCH   6  13
BRANCH   5  18
ATOM     18  N   LIG d   1       0.155  92.631 117.308  0.00  0.00     0.381 N 
ATOM     19  H   LIG d   1      -0.458  92.636 116.518  0.00  0.00    -0.090 HD
ATOM     20  H   LIG d   1       1.087  92.823 116.985  0.00  0.00    -0.090 HD
ATOM     21  H   LIG d   1      -0.128  93.328 117.962  0.00  0.00    -0.090 HD
ENDBRANCH   5  18
BRANCH   3  22
ATOM     22  C   LIG d   1      -2.377  88.617 117.950  0.00  0.00     0.382 C 
ATOM     23  O   LIG d   1      -3.312  88.957 117.186  0.00  0.00    -0.241 OA
ATOM     24  O   LIG d   1      -2.591  87.779 118.846  0.00  0.00    -0.241 OA
ENDBRANCH   3  22
TORSDOF 7
ENDMDL
