MODEL 1
REMARK VINA RESULT:      -4.9      0.000      0.000
REMARK  7 active torsions:
REMARK  status: ('A' for Active; 'I' for Inactive)
REMARK    1  A    between atoms: C_2  and  C_3 
REMARK    2  A    between atoms: C_3  and  O_6 
REMARK    3  A    between atoms: C_3  and  C_4 
REMARK    4  A    between atoms: C_7  and  O_6 
REMARK    5  A    between atoms: C_9  and  C_10 
REMARK    6  A    between atoms: N_15  and  C_14 
REMARK    7  A    between atoms: N_20  and  C_19 
REMARK       I    between atoms: C_22  and  N_20 
ROOT
ATOM      1  C   LIG d   1       3.219  89.356 115.537  0.00  0.00     0.161 C 
ATOM      2  C   LIG d   1       2.432  88.591 114.659  0.00  0.00     0.016 C 
ATOM      3  C   LIG d   1       2.926  88.031 113.459  0.00  0.00     0.038 C 
ATOM      4  C   LIG d   1       4.288  88.071 113.127  0.00  0.00     0.028 C 
ATOM      5  C   LIG d   1       5.024  89.263 113.730  0.00  0.00    -0.047 C 
ATOM      6  C   LIG d   1       4.734  89.316 115.247  0.00  0.00     0.091 C 
ENDROOT
BRANCH   1   7
ATOM      7  O   LIG d   1       2.959  88.960 116.898  0.00  0.00    -0.368 OA
BRANCH   7   8
ATOM      8  C   LIG d   1       2.244  89.919 117.715  0.00  0.00     0.119 C 
BRANCH   8   9
ATOM      9  C   LIG d   1       0.786  89.434 117.830  0.00  0.00     0.028 C 
ATOM     10  C   LIG d   1       0.680  87.900 117.877  0.00  0.00     0.006 C 
ENDBRANCH   8   9
BRANCH   8  11
ATOM     11  C   LIG d   1       2.163  91.286 117.028  0.00  0.00     0.028 C 
ATOM     12  C   LIG d   1       2.760  92.417 117.880  0.00  0.00     0.006 C 
ENDBRANCH   8  11
ENDBRANCH   7   8
ENDBRANCH   1   7
BRANCH   6  13
ATOM     13  N   LIG d   1       5.348  90.502 115.900  0.00  0.00    -0.311 N 
ATOM     14  C   LIG d   1       5.973  90.450 117.075  0.00  0.00     0.210 C 
ATOM     15  C   LIG d   1       6.516  91.792 117.578  0.00  0.00     0.109 C 
ATOM     16  O   LIG d   1       6.158  89.416 117.733  0.00  0.00    -0.276 OA
ATOM     17  H   LIG d   1       5.272  91.377 115.420  0.00  0.00     0.149 HD
ENDBRANCH   6  13
BRANCH   5  18
ATOM     18  N   LIG d   1       6.457  89.105 113.419  0.00  0.00     0.381 N 
ATOM     19  H   LIG d   1       6.588  89.080 112.428  0.00  0.00    -0.090 HD
ATOM     20  H   LIG d   1       6.779  88.234 113.803  0.00  0.00    -0.090 HD
ATOM     21  H   LIG d   1       6.976  89.861 113.811  0.00  0.00    -0.090 HD
ENDBRANCH   5  18
BRANCH   3  22
ATOM     22  C   LIG d   1       2.044  87.456 112.555  0.00  0.00     0.382 C 
ATOM     23  O   LIG d   1       2.456  87.078 111.432  0.00  0.00    -0.241 OA
ATOM     24  O   LIG d   1       0.834  87.352 112.832  0.00  0.00    -0.241 OA
ENDBRANCH   3  22
TORSDOF 7
ENDMDL
MODEL 2
REMARK VINA RESULT:      -4.7      0.808      1.901
REMARK  7 active torsions:
REMARK  status: ('A' for Active; 'I' for Inactive)
REMARK    1  A    between atoms: C_2  and  C_3 
REMARK    2  A    between atoms: C_3  and  O_6 
REMARK    3  A    between atoms: C_3  and  C_4 
REMARK    4  A    between atoms: C_7  and  O_6 
REMARK    5  A    between atoms: C_9  and  C_10 
REMARK    6  A    between atoms: N_15  and  C_14 
REMARK    7  A    between atoms: N_20  and  C_19 
REMARK       I    between atoms: C_22  and  N_20 
ROOT
ATOM      1  C   LIG d   1       3.205  89.441 115.541  0.00  0.00     0.161 C 
ATOM      2  C   LIG d   1       2.413  88.671 114.673  0.00  0.00     0.016 C 
ATOM      3  C   LIG d   1       2.907  88.080 113.488  0.00  0.00     0.038 C 
ATOM      4  C   LIG d   1       4.272  88.092 113.166  0.00  0.00     0.028 C 
ATOM      5  C   LIG d   1       5.021  89.285 113.751  0.00  0.00    -0.047 C 
ATOM      6  C   LIG d   1       4.721  89.372 115.265  0.00  0.00     0.091 C 
ENDROOT
BRANCH   1   7
ATOM      7  O   LIG d   1       2.927  89.076 116.908  0.00  0.00    -0.368 OA
BRANCH   7   8
ATOM      8  C   LIG d   1       1.528  88.981 117.271  0.00  0.00     0.119 C 
BRANCH   8   9
ATOM      9  C   LIG d   1       1.141  90.297 117.972  0.00  0.00     0.028 C 
ATOM     10  C   LIG d   1       0.306  91.220 117.069  0.00  0.00     0.006 C 
ENDBRANCH   8   9
BRANCH   8  11
ATOM     11  C   LIG d   1       1.296  87.883 118.313  0.00  0.00     0.028 C 
ATOM     12  C   LIG d   1      -0.127  87.304 118.263  0.00  0.00     0.006 C 
ENDBRANCH   8  11
ENDBRANCH   7   8
ENDBRANCH   1   7
BRANCH   6  13
ATOM     13  N   LIG d   1       5.348  90.561 115.899  0.00  0.00    -0.311 N 
ATOM     14  C   LIG d   1       6.002  90.514 117.059  0.00  0.00     0.210 C 
ATOM     15  C   LIG d   1       6.554  91.858 117.545  0.00  0.00     0.109 C 
ATOM     16  O   LIG d   1       6.206  89.481 117.715  0.00  0.00    -0.276 OA
ATOM     17  H   LIG d   1       5.258  91.435 115.419  0.00  0.00     0.149 HD
ENDBRANCH   6  13
BRANCH   5  18
ATOM     18  N   LIG d   1       6.454  89.099 113.456  0.00  0.00     0.381 N 
ATOM     19  H   LIG d   1       6.969  89.023 114.310  0.00  0.00    -0.090 HD
ATOM     20  H   LIG d   1       6.790  89.904 112.956  0.00  0.00    -0.090 HD
ATOM     21  H   LIG d   1       6.586  88.279 112.905  0.00  0.00    -0.090 HD
ENDBRANCH   5  18
BRANCH   3  22
ATOM     22  C   LIG d   1       2.024  87.501 112.589  0.00  0.00     0.382 C 
ATOM     23  O   LIG d   1       0.858  87.213 112.952  0.00  0.00    -0.241 OA
ATOM     24  O   LIG d   1       2.392  87.224 111.432  0.00  0.00    -0.241 OA
ENDBRANCH   3  22
TORSDOF 7
ENDMDL
MODEL 3
REMARK VINA RESULT:      -4.6      2.493      5.485
REMARK  7 active torsions:
REMARK  status: ('A' for Active; 'I' for Inactive)
REMARK    1  A    between atoms: C_2  and  C_3 
REMARK    2  A    between atoms: C_3  and  O_6 
REMARK    3  A    between atoms: C_3  and  C_4 
REMARK    4  A    between atoms: C_7  and  O_6 
REMARK    5  A    between atoms: C_9  and  C_10 
REMARK    6  A    between atoms: N_15  and  C_14 
REMARK    7  A    between atoms: N_20  and  C_19 
REMARK       I    between atoms: C_22  and  N_20 
ROOT
ATOM      1  C   LIG d   1       1.983  87.036 115.218  0.00  0.00     0.161 C 
ATOM      2  C   LIG d   1       0.992  86.730 116.165  0.00  0.00     0.016 C 
ATOM      3  C   LIG d   1       0.914  87.344 117.436  0.00  0.00     0.038 C 
ATOM      4  C   LIG d   1       1.738  88.422 117.790  0.00  0.00     0.028 C 
ATOM      5  C   LIG d   1       3.078  88.425 117.062  0.00  0.00    -0.047 C 
ATOM      6  C   LIG d   1       2.824  88.288 115.544  0.00  0.00     0.091 C 
ENDROOT
BRANCH   1   7
ATOM      7  O   LIG d   1       1.389  87.158 113.910  0.00  0.00    -0.368 OA
BRANCH   7   8
ATOM      8  C   LIG d   1       1.753  86.138 112.948  0.00  0.00     0.119 C 
BRANCH   8   9
ATOM      9  C   LIG d   1       2.566  86.822 111.832  0.00  0.00     0.028 C 
ATOM     10  C   LIG d   1       3.969  86.212 111.670  0.00  0.00     0.006 C 
ENDBRANCH   8   9
BRANCH   8  11
ATOM     11  C   LIG d   1       0.515  85.562 112.252  0.00  0.00     0.028 C 
ATOM     12  C   LIG d   1      -0.457  86.650 111.770  0.00  0.00     0.006 C 
ENDBRANCH   8  11
ENDBRANCH   7   8
ENDBRANCH   1   7
BRANCH   6  13
ATOM     13  N   LIG d   1       4.086  88.198 114.764  0.00  0.00    -0.311 N 
ATOM     14  C   LIG d   1       4.682  89.252 114.209  0.00  0.00     0.210 C 
ATOM     15  C   LIG d   1       5.963  88.935 113.431  0.00  0.00     0.109 C 
ATOM     16  O   LIG d   1       4.289  90.423 114.315  0.00  0.00    -0.276 OA
ATOM     17  H   LIG d   1       4.491  87.289 114.655  0.00  0.00     0.149 HD
ENDBRANCH   6  13
BRANCH   5  18
ATOM     18  N   LIG d   1       3.778  89.672 117.422  0.00  0.00     0.381 N 
ATOM     19  H   LIG d   1       4.263  90.031 116.623  0.00  0.00    -0.090 HD
ATOM     20  H   LIG d   1       4.454  89.471 118.137  0.00  0.00    -0.090 HD
ATOM     21  H   LIG d   1       3.124  90.347 117.753  0.00  0.00    -0.090 HD
ENDBRANCH   5  18
BRANCH   3  22
ATOM     22  C   LIG d   1       0.028  86.852 118.383  0.00  0.00     0.382 C 
ATOM     23  O   LIG d   1      -0.862  87.599 118.856  0.00  0.00    -0.241 OA
ATOM     24  O   LIG d   1       0.136  85.685 118.803  0.00  0.00    -0.241 OA
ENDBRANCH   3  22
TORSDOF 7
ENDMDL
MODEL 4
REMARK VINA RESULT:      -4.3      2.079      4.821
REMARK  7 active torsions:
REMARK  status: ('A' for Active; 'I' for Inactive)
REMARK    1  A    between atoms: C_2  and  C_3 
REMARK    2  A    between atoms: C_3  and  O_6 
REMARK    3  A    between atoms: C_3  and  C_4 
REMARK    4  A    between atoms: C_7  and  O_6 
REMARK    5  A    between atoms: C_9  and  C_10 
REMARK    6  A    between atoms: N_15  and  C_14 
REMARK    7  A    between atoms: N_20  and  C_19 
REMARK       I    between atoms: C_22  and  N_20 
ROOT
ATOM      1  C   LIG d   1       2.368  89.527 116.367  0.00  0.00     0.161 C 
ATOM      2  C   LIG d   1       3.093  90.559 116.984  0.00  0.00     0.016 C 
ATOM      3  C   LIG d   1       4.369  90.982 116.547  0.00  0.00     0.038 C 
ATOM      4  C   LIG d   1       4.945  90.500 115.363  0.00  0.00     0.028 C 
ATOM      5  C   LIG d   1       4.476  89.098 114.988  0.00  0.00    -0.047 C 
ATOM      6  C   LIG d   1       2.931  89.064 115.007  0.00  0.00     0.091 C 
ENDROOT
BRANCH   1   7
ATOM      7  O   LIG d   1       0.986  89.913 116.231  0.00  0.00    -0.368 OA
BRANCH   7   8
ATOM      8  C   LIG d   1       0.318  90.330 117.448  0.00  0.00     0.119 C 
BRANCH   8   9
ATOM      9  C   LIG d   1      -0.475  89.120 117.978  0.00  0.00     0.028 C 
ATOM     10  C   LIG d   1      -1.996  89.329 117.887  0.00  0.00     0.006 C 
ENDBRANCH   8   9
BRANCH   8  11
ATOM     11  C   LIG d   1      -0.730  91.410 117.167  0.00  0.00     0.028 C 
ATOM     12  C   LIG d   1      -0.112  92.803 116.970  0.00  0.00     0.006 C 
ENDBRANCH   8  11
ENDBRANCH   7   8
ENDBRANCH   1   7
BRANCH   6  13
ATOM     13  N   LIG d   1       2.390  87.707 114.734  0.00  0.00    -0.311 N 
ATOM     14  C   LIG d   1       2.092  87.269 113.512  0.00  0.00     0.210 C 
ATOM     15  C   LIG d   1       1.528  85.846 113.455  0.00  0.00     0.109 C 
ATOM     16  O   LIG d   1       2.272  87.912 112.466  0.00  0.00    -0.276 OA
ATOM     17  H   LIG d   1       2.243  87.108 115.522  0.00  0.00     0.149 HD
ENDBRANCH   6  13
BRANCH   5  18
ATOM     18  N   LIG d   1       5.046  88.775 113.667  0.00  0.00     0.381 N 
ATOM     19  H   LIG d   1       5.977  88.425 113.776  0.00  0.00    -0.090 HD
ATOM     20  H   LIG d   1       5.088  89.615 113.117  0.00  0.00    -0.090 HD
ATOM     21  H   LIG d   1       4.479  88.096 113.207  0.00  0.00    -0.090 HD
ENDBRANCH   5  18
BRANCH   3  22
ATOM     22  C   LIG d   1       5.101  91.870 117.321  0.00  0.00     0.382 C 
ATOM     23  O   LIG d   1       4.842  93.097 117.282  0.00  0.00    -0.241 OA
ATOM     24  O   LIG d   1       6.046  91.464 118.025  0.00  0.00    -0.241 OA
ENDBRANCH   3  22
TORSDOF 7
ENDMDL
MODEL 5
REMARK VINA RESULT:      -4.3      2.689      4.922
REMARK  7 active torsions:
REMARK  status: ('A' for Active; 'I' for Inactive)
REMARK    1  A    between atoms: C_2  and  C_3 
REMARK    2  A    between atoms: C_3  and  O_6 
REMARK    3  A    between atoms: C_3  and  C_4 
REMARK    4  A    between atoms: C_7  and  O_6 
REMARK    5  A    between atoms: C_9  and  C_10 
REMARK    6  A    between atoms: N_15  and  C_14 
REMARK    7  A    between atoms: N_20  and  C_19 
REMARK       I    between atoms: C_22  and  N_20 
ROOT
ATOM      1  C   LIG d   1       4.704  88.145 116.747  0.00  0.00     0.161 C 
ATOM      2  C   LIG d   1       3.894  89.289 116.661  0.00  0.00     0.016 C 
ATOM      3  C   LIG d   1       4.376  90.602 116.875  0.00  0.00     0.038 C 
ATOM      4  C   LIG d   1       5.742  90.872 117.042  0.00  0.00     0.028 C 
ATOM      5  C   LIG d   1       6.522  89.705 117.638  0.00  0.00    -0.047 C 
ATOM      6  C   LIG d   1       6.219  88.429 116.819  0.00  0.00     0.091 C 
ENDROOT
BRANCH   1   7
ATOM      7  O   LIG d   1       4.413  87.256 115.651  0.00  0.00    -0.368 OA
BRANCH   7   8
ATOM      8  C   LIG d   1       3.592  87.802 114.589  0.00  0.00     0.119 C 
BRANCH   8   9
ATOM      9  C   LIG d   1       2.479  86.778 114.292  0.00  0.00     0.028 C 
ATOM     10  C   LIG d   1       1.519  86.594 115.480  0.00  0.00     0.006 C 
ENDBRANCH   8   9
BRANCH   8  11
ATOM     11  C   LIG d   1       4.382  87.931 113.284  0.00  0.00     0.028 C 
ATOM     12  C   LIG d   1       4.054  86.819 112.276  0.00  0.00     0.006 C 
ENDBRANCH   8  11
ENDBRANCH   7   8
ENDBRANCH   1   7
BRANCH   6  13
ATOM     13  N   LIG d   1       6.877  87.223 117.386  0.00  0.00    -0.311 N 
ATOM     14  C   LIG d   1       8.085  86.803 117.014  0.00  0.00     0.210 C 
ATOM     15  C   LIG d   1       8.569  85.526 117.708  0.00  0.00     0.109 C 
ATOM     16  O   LIG d   1       8.816  87.386 116.198  0.00  0.00    -0.276 OA
ATOM     17  H   LIG d   1       6.367  86.708 118.077  0.00  0.00     0.149 HD
ENDBRANCH   6  13
BRANCH   5  18
ATOM     18  N   LIG d   1       7.951  90.072 117.628  0.00  0.00     0.381 N 
ATOM     19  H   LIG d   1       8.055  91.032 117.892  0.00  0.00    -0.090 HD
ATOM     20  H   LIG d   1       8.309  89.960 116.696  0.00  0.00    -0.090 HD
ATOM     21  H   LIG d   1       8.457  89.490 118.259  0.00  0.00    -0.090 HD
ENDBRANCH   5  18
BRANCH   3  22
ATOM     22  C   LIG d   1       3.480  91.656 116.963  0.00  0.00     0.382 C 
ATOM     23  O   LIG d   1       2.249  91.444 116.851  0.00  0.00    -0.241 OA
ATOM     24  O   LIG d   1       3.891  92.823 117.108  0.00  0.00    -0.241 OA
ENDBRANCH   3  22
TORSDOF 7
ENDMDL
MODEL 6
REMARK VINA RESULT:      -4.3      3.935      6.126
REMARK  7 active torsions:
REMARK  status: ('A' for Active; 'I' for Inactive)
REMARK    1  A    between atoms: C_2  and  C_3 
REMARK    2  A    between atoms: C_3  and  O_6 
REMARK    3  A    between atoms: C_3  and  C_4 
REMARK    4  A    between atoms: C_7  and  O_6 
REMARK    5  A    between atoms: C_9  and  C_10 
REMARK    6  A    between atoms: N_15  and  C_14 
REMARK    7  A    between atoms: N_20  and  C_19 
REMARK       I    between atoms: C_22  and  N_20 
ROOT
ATOM      1  C   LIG d   1      -0.231  90.747 117.839  0.00  0.00     0.161 C 
ATOM      2  C   LIG d   1      -1.584  90.536 117.526  0.00  0.00     0.016 C 
ATOM      3  C   LIG d   1      -2.484  91.581 117.214  0.00  0.00     0.038 C 
ATOM      4  C   LIG d   1      -2.052  92.905 117.046  0.00  0.00     0.028 C 
ATOM      5  C   LIG d   1      -0.797  93.239 117.845  0.00  0.00    -0.047 C 
ATOM      6  C   LIG d   1       0.284  92.173 117.552  0.00  0.00     0.091 C 
ENDROOT
BRANCH   1   7
ATOM      7  O   LIG d   1       0.585  89.773 117.160  0.00  0.00    -0.368 OA
BRANCH   7   8
ATOM      8  C   LIG d   1       1.250  88.800 118.003  0.00  0.00     0.119 C 
BRANCH   8   9
ATOM      9  C   LIG d   1       2.676  88.608 117.453  0.00  0.00     0.028 C 
ATOM     10  C   LIG d   1       2.724  88.657 115.916  0.00  0.00     0.006 C 
ENDBRANCH   8   9
BRANCH   8  11
ATOM     11  C   LIG d   1       0.585  87.424 117.895  0.00  0.00     0.028 C 
ATOM     12  C   LIG d   1      -0.532  87.219 118.930  0.00  0.00     0.006 C 
ENDBRANCH   8  11
ENDBRANCH   7   8
ENDBRANCH   1   7
BRANCH   6  13
ATOM     13  N   LIG d   1       1.515  92.378 118.359  0.00  0.00    -0.311 N 
ATOM     14  C   LIG d   1       2.744  92.309 117.850  0.00  0.00     0.210 C 
ATOM     15  C   LIG d   1       3.875  92.531 118.859  0.00  0.00     0.109 C 
ATOM     16  O   LIG d   1       3.004  92.116 116.653  0.00  0.00    -0.276 OA
ATOM     17  H   LIG d   1       1.395  92.570 119.334  0.00  0.00     0.149 HD
ENDBRANCH   6  13
BRANCH   5  18
ATOM     18  N   LIG d   1      -0.380  94.604 117.471  0.00  0.00     0.381 N 
ATOM     19  H   LIG d   1       0.114  95.028 118.231  0.00  0.00    -0.090 HD
ATOM     20  H   LIG d   1      -1.199  95.154 117.281  0.00  0.00    -0.090 HD
ATOM     21  H   LIG d   1       0.203  94.572 116.663  0.00  0.00    -0.090 HD
ENDBRANCH   5  18
BRANCH   3  22
ATOM     22  C   LIG d   1      -3.840  91.312 117.107  0.00  0.00     0.382 C 
ATOM     23  O   LIG d   1      -4.340  90.351 117.739  0.00  0.00    -0.241 OA
ATOM     24  O   LIG d   1      -4.561  91.991 116.351  0.00  0.00    -0.241 OA
ENDBRANCH   3  22
TORSDOF 7
ENDMDL
MODEL 7
REMARK VINA RESULT:      -4.1      2.300      5.269
REMARK  7 active torsions:
REMARK  status: ('A' for Active; 'I' for Inactive)
REMARK    1  A    between atoms: C_2  and  C_3 
REMARK    2  A    between atoms: C_3  and  O_6 
REMARK    3  A    between atoms: C_3  and  C_4 
REMARK    4  A    between atoms: C_7  and  O_6 
REMARK    5  A    between atoms: C_9  and  C_10 
REMARK    6  A    between atoms: N_15  and  C_14 
REMARK    7  A    between atoms: N_20  and  C_19 
REMARK       I    between atoms: C_22  and  N_20 
ROOT
ATOM      1  C   LIG d   1       4.627  87.009 115.762  0.00  0.00     0.161 C 
ATOM      2  C   LIG d   1       5.462  87.509 116.775  0.00  0.00     0.016 C 
ATOM      3  C   LIG d   1       5.997  88.818 116.768  0.00  0.00     0.038 C 
ATOM      4  C   LIG d   1       5.607  89.772 115.816  0.00  0.00     0.028 C 
ATOM      5  C   LIG d   1       5.161  89.161 114.492  0.00  0.00    -0.047 C 
ATOM      6  C   LIG d   1       4.101  88.071 114.774  0.00  0.00     0.091 C 
ENDROOT
BRANCH   1   7
ATOM      7  O   LIG d   1       3.528  86.284 116.349  0.00  0.00    -0.368 OA
BRANCH   7   8
ATOM      8  C   LIG d   1       2.410  87.083 116.809  0.00  0.00     0.119 C 
BRANCH   8   9
ATOM      9  C   LIG d   1       2.247  86.825 118.319  0.00  0.00     0.028 C 
ATOM     10  C   LIG d   1       2.936  85.527 118.771  0.00  0.00     0.006 C 
ENDBRANCH   8   9
BRANCH   8  11
ATOM     11  C   LIG d   1       1.095  86.619 116.174  0.00  0.00     0.028 C 
ATOM     12  C   LIG d   1       1.282  85.431 115.217  0.00  0.00     0.006 C 
ENDBRANCH   8  11
ENDBRANCH   7   8
ENDBRANCH   1   7
BRANCH   6  13
ATOM     13  N   LIG d   1       3.673  87.364 113.539  0.00  0.00    -0.311 N 
ATOM     14  C   LIG d   1       2.642  87.754 112.791  0.00  0.00     0.210 C 
ATOM     15  C   LIG d   1       2.358  86.872 111.571  0.00  0.00     0.109 C 
ATOM     16  O   LIG d   1       1.956  88.765 113.004  0.00  0.00    -0.276 OA
ATOM     17  H   LIG d   1       4.194  86.551 113.275  0.00  0.00     0.149 HD
ENDBRANCH   6  13
BRANCH   5  18
ATOM     18  N   LIG d   1       4.654  90.256 113.644  0.00  0.00     0.381 N 
ATOM     19  H   LIG d   1       5.417  90.710 113.184  0.00  0.00    -0.090 HD
ATOM     20  H   LIG d   1       4.191  90.931 114.227  0.00  0.00    -0.090 HD
ATOM     21  H   LIG d   1       4.016  89.896 112.969  0.00  0.00    -0.090 HD
ENDBRANCH   5  18
BRANCH   3  22
ATOM     22  C   LIG d   1       6.963  89.171 117.697  0.00  0.00     0.382 C 
ATOM     23  O   LIG d   1       8.178  89.110 117.392  0.00  0.00    -0.241 OA
ATOM     24  O   LIG d   1       6.636  89.507 118.851  0.00  0.00    -0.241 OA
ENDBRANCH   3  22
TORSDOF 7
ENDMDL
MODEL 8
REMARK VINA RESULT:      -4.1      5.420      8.077
REMARK  7 active torsions:
REMARK  status: ('A' for Active; 'I' for Inactive)
REMARK    1  A    between atoms: C_2  and  C_3 
REMARK    2  A    between atoms: C_3  and  O_6 
REMARK    3  A    between atoms: C_3  and  C_4 
REMARK    4  A    between atoms: C_7  and  O_6 
REMARK    5  A    between atoms: C_9  and  C_10 
REMARK    6  A    between atoms: N_15  and  C_14 
REMARK    7  A    between atoms: N_20  and  C_19 
REMARK       I    between atoms: C_22  and  N_20 
ROOT
ATOM      1  C   LIG d   1      -1.786  92.951 118.120  0.00  0.00     0.161 C 
ATOM      2  C   LIG d   1      -1.975  94.342 118.179  0.00  0.00     0.016 C 
ATOM      3  C   LIG d   1      -0.912  95.267 118.301  0.00  0.00     0.038 C 
ATOM      4  C   LIG d   1       0.431  94.868 118.220  0.00  0.00     0.028 C 
ATOM      5  C   LIG d   1       0.663  93.430 118.668  0.00  0.00    -0.047 C 
ATOM      6  C   LIG d   1      -0.323  92.505 117.919  0.00  0.00     0.091 C 
ENDROOT
BRANCH   1   7
ATOM      7  O   LIG d   1      -2.628  92.387 117.096  0.00  0.00    -0.368 OA
BRANCH   7   8
ATOM      8  C   LIG d   1      -3.984  92.064 117.491  0.00  0.00     0.119 C 
BRANCH   8   9
ATOM      9  C   LIG d   1      -3.903  90.961 118.564  0.00  0.00     0.028 C 
ATOM     10  C   LIG d   1      -3.393  89.626 117.996  0.00  0.00     0.006 C 
ENDBRANCH   8   9
BRANCH   8  11
ATOM     11  C   LIG d   1      -4.770  91.445 116.331  0.00  0.00     0.028 C 
ATOM     12  C   LIG d   1      -6.248  91.865 116.322  0.00  0.00     0.006 C 
ENDBRANCH   8  11
ENDBRANCH   7   8
ENDBRANCH   1   7
BRANCH   6  13
ATOM     13  N   LIG d   1      -0.220  91.089 118.360  0.00  0.00    -0.311 N 
ATOM     14  C   LIG d   1       0.276  90.117 117.596  0.00  0.00     0.210 C 
ATOM     15  C   LIG d   1       0.272  88.726 118.237  0.00  0.00     0.109 C 
ATOM     16  O   LIG d   1       0.747  90.281 116.461  0.00  0.00    -0.276 OA
ATOM     17  H   LIG d   1      -0.551  90.873 119.280  0.00  0.00     0.149 HD
ENDBRANCH   6  13
BRANCH   5  18
ATOM     18  N   LIG d   1       2.077  93.103 118.402  0.00  0.00     0.381 N 
ATOM     19  H   LIG d   1       2.200  92.110 118.396  0.00  0.00    -0.090 HD
ATOM     20  H   LIG d   1       2.643  93.487 119.139  0.00  0.00    -0.090 HD
ATOM     21  H   LIG d   1       2.356  93.485 117.526  0.00  0.00    -0.090 HD
ENDBRANCH   5  18
BRANCH   3  22
ATOM     22  C   LIG d   1      -1.189  96.603 118.546  0.00  0.00     0.382 C 
ATOM     23  O   LIG d   1      -2.379  96.995 118.611  0.00  0.00    -0.241 OA
ATOM     24  O   LIG d   1      -0.263  97.430 118.659  0.00  0.00    -0.241 OA
ENDBRANCH   3  22
TORSDOF 7
ENDMDL
MODEL 9
REMARK VINA RESULT:      -3.8      6.298      8.805
REMARK  7 active torsions:
REMARK  status: ('A' for Active; 'I' for Inactive)
REMARK    1  A    between atoms: C_2  and  C_3 
REMARK    2  A    between atoms: C_3  and  O_6 
REMARK    3  A    between atoms: C_3  and  C_4 
REMARK    4  A    between atoms: C_7  and  O_6 
REMARK    5  A    between atoms: C_9  and  C_10 
REMARK    6  A    between atoms: N_15  and  C_14 
REMARK    7  A    between atoms: N_20  and  C_19 
REMARK       I    between atoms: C_22  and  N_20 
ROOT
ATOM      1  C   LIG d   1      -3.270  91.934 118.903  0.00  0.00     0.161 C 
ATOM      2  C   LIG d   1      -3.261  93.336 118.812  0.00  0.00     0.016 C 
ATOM      3  C   LIG d   1      -2.148  94.079 118.357  0.00  0.00     0.038 C 
ATOM      4  C   LIG d   1      -1.013  93.458 117.815  0.00  0.00     0.028 C 
ATOM      5  C   LIG d   1      -0.777  92.051 118.354  0.00  0.00    -0.047 C 
ATOM      6  C   LIG d   1      -2.081  91.234 118.212  0.00  0.00     0.091 C 
ENDROOT
BRANCH   1   7
ATOM      7  O   LIG d   1      -4.517  91.419 118.397  0.00  0.00    -0.368 OA
BRANCH   7   8
ATOM      8  C   LIG d   1      -5.199  92.246 117.422  0.00  0.00     0.119 C 
BRANCH   8   9
ATOM      9  C   LIG d   1      -6.658  92.407 117.890  0.00  0.00     0.028 C 
ATOM     10  C   LIG d   1      -6.925  93.787 118.514  0.00  0.00     0.006 C 
ENDBRANCH   8   9
BRANCH   8  11
ATOM     11  C   LIG d   1      -5.285  91.546 116.062  0.00  0.00     0.028 C 
ATOM     12  C   LIG d   1      -6.597  91.846 115.320  0.00  0.00     0.006 C 
ENDBRANCH   8  11
ENDBRANCH   7   8
ENDBRANCH   1   7
BRANCH   6  13
ATOM     13  N   LIG d   1      -1.962  89.871 118.793  0.00  0.00    -0.311 N 
ATOM     14  C   LIG d   1      -1.383  88.852 118.160  0.00  0.00     0.210 C 
ATOM     15  C   LIG d   1      -1.385  87.528 118.930  0.00  0.00     0.109 C 
ATOM     16  O   LIG d   1      -0.839  88.928 117.048  0.00  0.00    -0.276 OA
ATOM     17  H   LIG d   1      -2.349  89.729 119.705  0.00  0.00     0.149 HD
ENDBRANCH   6  13
BRANCH   5  18
ATOM     18  N   LIG d   1       0.354  91.471 117.606  0.00  0.00     0.381 N 
ATOM     19  H   LIG d   1       1.103  91.259 118.235  0.00  0.00    -0.090 HD
ATOM     20  H   LIG d   1       0.684  92.146 116.939  0.00  0.00    -0.090 HD
ATOM     21  H   LIG d   1       0.062  90.643 117.135  0.00  0.00    -0.090 HD
ENDBRANCH   5  18
BRANCH   3  22
ATOM     22  C   LIG d   1      -2.148  95.461 118.478  0.00  0.00     0.382 C 
ATOM     23  O   LIG d   1      -1.123  96.117 118.174  0.00  0.00    -0.241 OA
ATOM     24  O   LIG d   1      -3.145  96.055 118.930  0.00  0.00    -0.241 OA
ENDBRANCH   3  22
TORSDOF 7
ENDMDL
