MODEL 1
REMARK VINA RESULT:      -4.6      0.000      0.000
REMARK  7 active torsions:
REMARK  status: ('A' for Active; 'I' for Inactive)
REMARK    1  A    between atoms: C_2  and  C_3 
REMARK    2  A    between atoms: C_3  and  O_6 
REMARK    3  A    between atoms: C_3  and  C_4 
REMARK    4  A    between atoms: C_7  and  O_6 
REMARK    5  A    between atoms: C_9  and  C_10 
REMARK    6  A    between atoms: N_15  and  C_14 
REMARK    7  A    between atoms: N_20  and  C_19 
REMARK       I    between atoms: C_22  and  N_20 
ROOT
ATOM      1  C   LIG d   1       4.453  89.104 117.017  0.00  0.00     0.161 C 
ATOM      2  C   LIG d   1       5.469  89.776 117.717  0.00  0.00     0.016 C 
ATOM      3  C   LIG d   1       6.633  90.286 117.099  0.00  0.00     0.038 C 
ATOM      4  C   LIG d   1       6.791  90.292 115.705  0.00  0.00     0.028 C 
ATOM      5  C   LIG d   1       6.025  89.175 115.004  0.00  0.00    -0.047 C 
ATOM      6  C   LIG d   1       4.554  89.200 115.481  0.00  0.00     0.091 C 
ENDROOT
BRANCH   1   7
ATOM      7  O   LIG d   1       3.163  89.568 117.464  0.00  0.00    -0.368 OA
BRANCH   7   8
ATOM      8  C   LIG d   1       2.720  90.838 116.924  0.00  0.00     0.119 C 
BRANCH   8   9
ATOM      9  C   LIG d   1       2.699  91.852 118.083  0.00  0.00     0.028 C 
ATOM     10  C   LIG d   1       3.743  92.967 117.907  0.00  0.00     0.006 C 
ENDBRANCH   8   9
BRANCH   8  11
ATOM     11  C   LIG d   1       1.273  90.758 116.428  0.00  0.00     0.028 C 
ATOM     12  C   LIG d   1       0.322  91.671 117.217  0.00  0.00     0.006 C 
ENDBRANCH   8  11
ENDBRANCH   7   8
ENDBRANCH   1   7
BRANCH   6  13
ATOM     13  N   LIG d   1       3.754  88.086 114.907  0.00  0.00    -0.311 N 
ATOM     14  C   LIG d   1       3.075  88.184 113.766  0.00  0.00     0.210 C 
ATOM     15  C   LIG d   1       2.300  86.925 113.365  0.00  0.00     0.109 C 
ATOM     16  O   LIG d   1       3.066  89.183 113.031  0.00  0.00    -0.276 OA
ATOM     17  H   LIG d   1       3.731  87.228 115.423  0.00  0.00     0.149 HD
ENDBRANCH   6  13
BRANCH   5  18
ATOM     18  N   LIG d   1       6.165  89.383 113.550  0.00  0.00     0.381 N 
ATOM     19  H   LIG d   1       7.075  89.094 113.253  0.00  0.00    -0.090 HD
ATOM     20  H   LIG d   1       6.064  90.363 113.351  0.00  0.00    -0.090 HD
ATOM     21  H   LIG d   1       5.468  88.864 113.063  0.00  0.00    -0.090 HD
ENDBRANCH   5  18
BRANCH   3  22
ATOM     22  C   LIG d   1       7.675  90.762 117.881  0.00  0.00     0.382 C 
ATOM     23  O   LIG d   1       7.428  91.405 118.930  0.00  0.00    -0.241 OA
ATOM     24  O   LIG d   1       8.857  90.596 117.528  0.00  0.00    -0.241 OA
ENDBRANCH   3  22
TORSDOF 7
ENDMDL
MODEL 2
REMARK VINA RESULT:      -4.3      2.502      5.276
REMARK  7 active torsions:
REMARK  status: ('A' for Active; 'I' for Inactive)
REMARK    1  A    between atoms: C_2  and  C_3 
REMARK    2  A    between atoms: C_3  and  O_6 
REMARK    3  A    between atoms: C_3  and  C_4 
REMARK    4  A    between atoms: C_7  and  O_6 
REMARK    5  A    between atoms: C_9  and  C_10 
REMARK    6  A    between atoms: N_15  and  C_14 
REMARK    7  A    between atoms: N_20  and  C_19 
REMARK       I    between atoms: C_22  and  N_20 
ROOT
ATOM      1  C   LIG d   1       3.788  87.740 116.283  0.00  0.00     0.161 C 
ATOM      2  C   LIG d   1       2.860  88.789 116.172  0.00  0.00     0.016 C 
ATOM      3  C   LIG d   1       3.119  90.107 116.614  0.00  0.00     0.038 C 
ATOM      4  C   LIG d   1       4.387  90.503 117.062  0.00  0.00     0.028 C 
ATOM      5  C   LIG d   1       5.201  89.362 117.663  0.00  0.00    -0.047 C 
ATOM      6  C   LIG d   1       5.217  88.179 116.668  0.00  0.00     0.091 C 
ENDROOT
BRANCH   1   7
ATOM      7  O   LIG d   1       3.811  86.976 115.061  0.00  0.00    -0.368 OA
BRANCH   7   8
ATOM      8  C   LIG d   1       3.222  87.612 113.901  0.00  0.00     0.119 C 
BRANCH   8   9
ATOM      9  C   LIG d   1       2.298  86.580 113.225  0.00  0.00     0.028 C 
ATOM     10  C   LIG d   1       2.051  86.896 111.740  0.00  0.00     0.006 C 
ENDBRANCH   8   9
BRANCH   8  11
ATOM     11  C   LIG d   1       4.285  87.952 112.852  0.00  0.00     0.028 C 
ATOM     12  C   LIG d   1       5.179  89.130 113.270  0.00  0.00     0.006 C 
ENDBRANCH   8  11
ENDBRANCH   7   8
ENDBRANCH   1   7
BRANCH   6  13
ATOM     13  N   LIG d   1       5.921  86.989 117.213  0.00  0.00    -0.311 N 
ATOM     14  C   LIG d   1       7.202  86.718 116.966  0.00  0.00     0.210 C 
ATOM     15  C   LIG d   1       7.726  85.430 117.609  0.00  0.00     0.109 C 
ATOM     16  O   LIG d   1       7.962  87.439 116.302  0.00  0.00    -0.276 OA
ATOM     17  H   LIG d   1       5.387  86.366 117.788  0.00  0.00     0.149 HD
ENDBRANCH   6  13
BRANCH   5  18
ATOM     18  N   LIG d   1       6.548  89.883 117.961  0.00  0.00     0.381 N 
ATOM     19  H   LIG d   1       6.709  90.723 117.441  0.00  0.00    -0.090 HD
ATOM     20  H   LIG d   1       7.231  89.202 117.680  0.00  0.00    -0.090 HD
ATOM     21  H   LIG d   1       6.634  90.067 118.937  0.00  0.00    -0.090 HD
ENDBRANCH   5  18
BRANCH   3  22
ATOM     22  C   LIG d   1       2.089  91.035 116.646  0.00  0.00     0.382 C 
ATOM     23  O   LIG d   1       2.307  92.198 117.063  0.00  0.00    -0.241 OA
ATOM     24  O   LIG d   1       0.935  90.711 116.307  0.00  0.00    -0.241 OA
ENDBRANCH   3  22
TORSDOF 7
ENDMDL
MODEL 3
REMARK VINA RESULT:      -4.1      2.286      5.614
REMARK  7 active torsions:
REMARK  status: ('A' for Active; 'I' for Inactive)
REMARK    1  A    between atoms: C_2  and  C_3 
REMARK    2  A    between atoms: C_3  and  O_6 
REMARK    3  A    between atoms: C_3  and  C_4 
REMARK    4  A    between atoms: C_7  and  O_6 
REMARK    5  A    between atoms: C_9  and  C_10 
REMARK    6  A    between atoms: N_15  and  C_14 
REMARK    7  A    between atoms: N_20  and  C_19 
REMARK       I    between atoms: C_22  and  N_20 
ROOT
ATOM      1  C   LIG d   1       4.431  89.191 116.902  0.00  0.00     0.161 C 
ATOM      2  C   LIG d   1       3.129  89.676 116.695  0.00  0.00     0.016 C 
ATOM      3  C   LIG d   1       2.729  90.994 117.016  0.00  0.00     0.038 C 
ATOM      4  C   LIG d   1       3.650  91.969 117.428  0.00  0.00     0.028 C 
ATOM      5  C   LIG d   1       4.873  91.388 118.130  0.00  0.00    -0.047 C 
ATOM      6  C   LIG d   1       5.476  90.272 117.247  0.00  0.00     0.091 C 
ENDROOT
BRANCH   1   7
ATOM      7  O   LIG d   1       4.857  88.430 115.754  0.00  0.00    -0.368 OA
BRANCH   7   8
ATOM      8  C   LIG d   1       3.900  88.320 114.672  0.00  0.00     0.119 C 
BRANCH   8   9
ATOM      9  C   LIG d   1       3.653  86.819 114.424  0.00  0.00     0.028 C 
ATOM     10  C   LIG d   1       3.314  86.515 112.955  0.00  0.00     0.006 C 
ENDBRANCH   8   9
BRANCH   8  11
ATOM     11  C   LIG d   1       4.478  88.858 113.360  0.00  0.00     0.028 C 
ATOM     12  C   LIG d   1       5.945  89.298 113.491  0.00  0.00     0.006 C 
ENDBRANCH   8  11
ENDBRANCH   7   8
ENDBRANCH   1   7
BRANCH   6  13
ATOM     13  N   LIG d   1       6.627  89.593 117.898  0.00  0.00    -0.311 N 
ATOM     14  C   LIG d   1       7.892  89.979 117.739  0.00  0.00     0.210 C 
ATOM     15  C   LIG d   1       8.926  89.129 118.484  0.00  0.00     0.109 C 
ATOM     16  O   LIG d   1       8.253  90.964 117.078  0.00  0.00    -0.276 OA
ATOM     17  H   LIG d   1       6.422  88.803 118.478  0.00  0.00     0.149 HD
ENDBRANCH   6  13
BRANCH   5  18
ATOM     18  N   LIG d   1       5.812  92.497 118.382  0.00  0.00     0.381 N 
ATOM     19  H   LIG d   1       5.769  92.765 119.345  0.00  0.00    -0.090 HD
ATOM     20  H   LIG d   1       5.539  93.286 117.823  0.00  0.00    -0.090 HD
ATOM     21  H   LIG d   1       6.739  92.219 118.148  0.00  0.00    -0.090 HD
ENDBRANCH   5  18
BRANCH   3  22
ATOM     22  C   LIG d   1       1.387  91.337 116.963  0.00  0.00     0.382 C 
ATOM     23  O   LIG d   1       0.938  92.231 117.720  0.00  0.00    -0.241 OA
ATOM     24  O   LIG d   1       0.610  90.734 116.199  0.00  0.00    -0.241 OA
ENDBRANCH   3  22
TORSDOF 7
ENDMDL
MODEL 4
REMARK VINA RESULT:      -4.1      2.270      5.377
REMARK  7 active torsions:
REMARK  status: ('A' for Active; 'I' for Inactive)
REMARK    1  A    between atoms: C_2  and  C_3 
REMARK    2  A    between atoms: C_3  and  O_6 
REMARK    3  A    between atoms: C_3  and  C_4 
REMARK    4  A    between atoms: C_7  and  O_6 
REMARK    5  A    between atoms: C_9  and  C_10 
REMARK    6  A    between atoms: N_15  and  C_14 
REMARK    7  A    between atoms: N_20  and  C_19 
REMARK       I    between atoms: C_22  and  N_20 
ROOT
ATOM      1  C   LIG d   1       3.258  89.680 115.851  0.00  0.00     0.161 C 
ATOM      2  C   LIG d   1       2.042  90.262 116.249  0.00  0.00     0.016 C 
ATOM      3  C   LIG d   1       1.961  91.402 117.081  0.00  0.00     0.038 C 
ATOM      4  C   LIG d   1       3.100  92.132 117.452  0.00  0.00     0.028 C 
ATOM      5  C   LIG d   1       4.372  91.292 117.491  0.00  0.00    -0.047 C 
ATOM      6  C   LIG d   1       4.510  90.528 116.154  0.00  0.00     0.091 C 
ENDROOT
BRANCH   1   7
ATOM      7  O   LIG d   1       3.205  89.348 114.450  0.00  0.00    -0.368 OA
BRANCH   7   8
ATOM      8  C   LIG d   1       3.557  87.985 114.104  0.00  0.00     0.119 C 
BRANCH   8   9
ATOM      9  C   LIG d   1       2.988  87.702 112.700  0.00  0.00     0.028 C 
ATOM     10  C   LIG d   1       3.924  86.823 111.854  0.00  0.00     0.006 C 
ENDBRANCH   8   9
BRANCH   8  11
ATOM     11  C   LIG d   1       2.868  86.979 115.031  0.00  0.00     0.028 C 
ATOM     12  C   LIG d   1       1.554  86.436 114.449  0.00  0.00     0.006 C 
ENDBRANCH   8  11
ENDBRANCH   7   8
ENDBRANCH   1   7
BRANCH   6  13
ATOM     13  N   LIG d   1       5.685  89.617 116.141  0.00  0.00    -0.311 N 
ATOM     14  C   LIG d   1       5.828  88.594 116.982  0.00  0.00     0.210 C 
ATOM     15  C   LIG d   1       7.123  87.793 116.811  0.00  0.00     0.109 C 
ATOM     16  O   LIG d   1       4.991  88.254 117.831  0.00  0.00    -0.276 OA
ATOM     17  H   LIG d   1       6.397  89.802 115.463  0.00  0.00     0.149 HD
ENDBRANCH   6  13
BRANCH   5  18
ATOM     18  N   LIG d   1       5.500  92.205 117.755  0.00  0.00     0.381 N 
ATOM     19  H   LIG d   1       6.351  91.682 117.819  0.00  0.00    -0.090 HD
ATOM     20  H   LIG d   1       5.347  92.665 118.635  0.00  0.00    -0.090 HD
ATOM     21  H   LIG d   1       5.571  92.880 117.027  0.00  0.00    -0.090 HD
ENDBRANCH   5  18
BRANCH   3  22
ATOM     22  C   LIG d   1       0.731  91.799 117.584  0.00  0.00     0.382 C 
ATOM     23  O   LIG d   1      -0.310  91.180 117.256  0.00  0.00    -0.241 OA
ATOM     24  O   LIG d   1       0.645  92.794 118.328  0.00  0.00    -0.241 OA
ENDBRANCH   3  22
TORSDOF 7
ENDMDL
MODEL 5
REMARK VINA RESULT:      -3.8      2.471      4.754
REMARK  7 active torsions:
REMARK  status: ('A' for Active; 'I' for Inactive)
REMARK    1  A    between atoms: C_2  and  C_3 
REMARK    2  A    between atoms: C_3  and  O_6 
REMARK    3  A    between atoms: C_3  and  C_4 
REMARK    4  A    between atoms: C_7  and  O_6 
REMARK    5  A    between atoms: C_9  and  C_10 
REMARK    6  A    between atoms: N_15  and  C_14 
REMARK    7  A    between atoms: N_20  and  C_19 
REMARK       I    between atoms: C_22  and  N_20 
ROOT
ATOM      1  C   LIG d   1       2.899  90.312 115.822  0.00  0.00     0.161 C 
ATOM      2  C   LIG d   1       4.266  89.992 115.771  0.00  0.00     0.016 C 
ATOM      3  C   LIG d   1       5.216  90.492 116.690  0.00  0.00     0.038 C 
ATOM      4  C   LIG d   1       4.837  91.232 117.821  0.00  0.00     0.028 C 
ATOM      5  C   LIG d   1       3.533  91.999 117.633  0.00  0.00    -0.047 C 
ATOM      6  C   LIG d   1       2.449  91.027 117.113  0.00  0.00     0.091 C 
ENDROOT
BRANCH   1   7
ATOM      7  O   LIG d   1       2.111  89.124 115.606  0.00  0.00    -0.368 OA
BRANCH   7   8
ATOM      8  C   LIG d   1       2.851  87.911 115.324  0.00  0.00     0.119 C 
BRANCH   8   9
ATOM      9  C   LIG d   1       2.355  87.371 113.969  0.00  0.00     0.028 C 
ATOM     10  C   LIG d   1       3.361  87.626 112.833  0.00  0.00     0.006 C 
ENDBRANCH   8   9
BRANCH   8  11
ATOM     11  C   LIG d   1       2.527  86.812 116.341  0.00  0.00     0.028 C 
ATOM     12  C   LIG d   1       2.059  85.507 115.678  0.00  0.00     0.006 C 
ENDBRANCH   8  11
ENDBRANCH   7   8
ENDBRANCH   1   7
BRANCH   6  13
ATOM     13  N   LIG d   1       1.164  91.714 116.822  0.00  0.00    -0.311 N 
ATOM     14  C   LIG d   1       0.187  91.852 117.717  0.00  0.00     0.210 C 
ATOM     15  C   LIG d   1      -1.062  92.576 117.204  0.00  0.00     0.109 C 
ATOM     16  O   LIG d   1       0.249  91.472 118.896  0.00  0.00    -0.276 OA
ATOM     17  H   LIG d   1       1.041  92.081 115.898  0.00  0.00     0.149 HD
ENDBRANCH   6  13
BRANCH   5  18
ATOM     18  N   LIG d   1       3.186  92.613 118.928  0.00  0.00     0.381 N 
ATOM     19  H   LIG d   1       3.388  93.592 118.905  0.00  0.00    -0.090 HD
ATOM     20  H   LIG d   1       3.746  92.191 119.648  0.00  0.00    -0.090 HD
ATOM     21  H   LIG d   1       2.219  92.471 119.125  0.00  0.00    -0.090 HD
ENDBRANCH   5  18
BRANCH   3  22
ATOM     22  C   LIG d   1       6.568  90.288 116.461  0.00  0.00     0.382 C 
ATOM     23  O   LIG d   1       7.413  91.078 116.946  0.00  0.00    -0.241 OA
ATOM     24  O   LIG d   1       6.951  89.348 115.738  0.00  0.00    -0.241 OA
ENDBRANCH   3  22
TORSDOF 7
ENDMDL
MODEL 6
REMARK VINA RESULT:      -3.8      2.323      4.216
REMARK  7 active torsions:
REMARK  status: ('A' for Active; 'I' for Inactive)
REMARK    1  A    between atoms: C_2  and  C_3 
REMARK    2  A    between atoms: C_3  and  O_6 
REMARK    3  A    between atoms: C_3  and  C_4 
REMARK    4  A    between atoms: C_7  and  O_6 
REMARK    5  A    between atoms: C_9  and  C_10 
REMARK    6  A    between atoms: N_15  and  C_14 
REMARK    7  A    between atoms: N_20  and  C_19 
REMARK       I    between atoms: C_22  and  N_20 
ROOT
ATOM      1  C   LIG d   1       5.787  90.446 116.864  0.00  0.00     0.161 C 
ATOM      2  C   LIG d   1       7.135  90.683 117.178  0.00  0.00     0.016 C 
ATOM      3  C   LIG d   1       7.565  91.743 118.010  0.00  0.00     0.038 C 
ATOM      4  C   LIG d   1       6.657  92.552 118.709  0.00  0.00     0.028 C 
ATOM      5  C   LIG d   1       5.299  92.669 118.026  0.00  0.00    -0.047 C 
ATOM      6  C   LIG d   1       4.775  91.250 117.706  0.00  0.00     0.091 C 
ENDROOT
BRANCH   1   7
ATOM      7  O   LIG d   1       5.505  89.036 116.954  0.00  0.00    -0.368 OA
BRANCH   7   8
ATOM      8  C   LIG d   1       5.496  88.306 115.702  0.00  0.00     0.119 C 
BRANCH   8   9
ATOM      9  C   LIG d   1       5.404  89.341 114.564  0.00  0.00     0.028 C 
ATOM     10  C   LIG d   1       4.602  88.819 113.360  0.00  0.00     0.006 C 
ENDBRANCH   8   9
BRANCH   8  11
ATOM     11  C   LIG d   1       4.238  87.443 115.568  0.00  0.00     0.028 C 
ATOM     12  C   LIG d   1       3.244  87.657 116.721  0.00  0.00     0.006 C 
ENDBRANCH   8  11
ENDBRANCH   7   8
ENDBRANCH   1   7
BRANCH   6  13
ATOM     13  N   LIG d   1       3.489  91.276 116.962  0.00  0.00    -0.311 N 
ATOM     14  C   LIG d   1       2.297  91.230 117.554  0.00  0.00     0.210 C 
ATOM     15  C   LIG d   1       1.099  91.247 116.600  0.00  0.00     0.109 C 
ATOM     16  O   LIG d   1       2.118  91.208 118.781  0.00  0.00    -0.276 OA
ATOM     17  H   LIG d   1       3.541  91.324 115.963  0.00  0.00     0.149 HD
ENDBRANCH   6  13
BRANCH   5  18
ATOM     18  N   LIG d   1       4.410  93.424 118.929  0.00  0.00     0.381 N 
ATOM     19  H   LIG d   1       3.570  92.905 119.090  0.00  0.00    -0.090 HD
ATOM     20  H   LIG d   1       4.163  94.294 118.490  0.00  0.00    -0.090 HD
ATOM     21  H   LIG d   1       4.871  93.600 119.794  0.00  0.00    -0.090 HD
ENDBRANCH   5  18
BRANCH   3  22
ATOM     22  C   LIG d   1       8.918  92.027 118.116  0.00  0.00     0.382 C 
ATOM     23  O   LIG d   1       9.297  93.206 118.317  0.00  0.00    -0.241 OA
ATOM     24  O   LIG d   1       9.766  91.126 117.970  0.00  0.00    -0.241 OA
ENDBRANCH   3  22
TORSDOF 7
ENDMDL
MODEL 7
REMARK VINA RESULT:      -3.6      2.578      4.647
REMARK  7 active torsions:
REMARK  status: ('A' for Active; 'I' for Inactive)
REMARK    1  A    between atoms: C_2  and  C_3 
REMARK    2  A    between atoms: C_3  and  O_6 
REMARK    3  A    between atoms: C_3  and  C_4 
REMARK    4  A    between atoms: C_7  and  O_6 
REMARK    5  A    between atoms: C_9  and  C_10 
REMARK    6  A    between atoms: N_15  and  C_14 
REMARK    7  A    between atoms: N_20  and  C_19 
REMARK       I    between atoms: C_22  and  N_20 
ROOT
ATOM      1  C   LIG d   1       4.247  88.565 117.538  0.00  0.00     0.161 C 
ATOM      2  C   LIG d   1       3.553  89.784 117.449  0.00  0.00     0.016 C 
ATOM      3  C   LIG d   1       4.191  91.030 117.252  0.00  0.00     0.038 C 
ATOM      4  C   LIG d   1       5.564  91.125 116.978  0.00  0.00     0.028 C 
ATOM      5  C   LIG d   1       6.378  89.974 117.559  0.00  0.00    -0.047 C 
ATOM      6  C   LIG d   1       5.733  88.636 117.131  0.00  0.00     0.091 C 
ENDROOT
BRANCH   1   7
ATOM      7  O   LIG d   1       3.564  87.557 116.767  0.00  0.00    -0.368 OA
BRANCH   7   8
ATOM      8  C   LIG d   1       4.115  87.273 115.458  0.00  0.00     0.119 C 
BRANCH   8   9
ATOM      9  C   LIG d   1       3.292  88.069 114.426  0.00  0.00     0.028 C 
ATOM     10  C   LIG d   1       4.139  89.113 113.679  0.00  0.00     0.006 C 
ENDBRANCH   8   9
BRANCH   8  11
ATOM     11  C   LIG d   1       3.925  85.801 115.080  0.00  0.00     0.028 C 
ATOM     12  C   LIG d   1       2.734  85.578 114.134  0.00  0.00     0.006 C 
ENDBRANCH   8  11
ENDBRANCH   7   8
ENDBRANCH   1   7
BRANCH   6  13
ATOM     13  N   LIG d   1       6.419  87.460 117.726  0.00  0.00    -0.311 N 
ATOM     14  C   LIG d   1       7.463  86.856 117.160  0.00  0.00     0.210 C 
ATOM     15  C   LIG d   1       8.007  85.649 117.931  0.00  0.00     0.109 C 
ATOM     16  O   LIG d   1       8.010  87.226 116.110  0.00  0.00    -0.276 OA
ATOM     17  H   LIG d   1       6.060  87.114 118.594  0.00  0.00     0.149 HD
ENDBRANCH   6  13
BRANCH   5  18
ATOM     18  N   LIG d   1       7.766  90.126 117.083  0.00  0.00     0.381 N 
ATOM     19  H   LIG d   1       7.889  91.034 116.681  0.00  0.00    -0.090 HD
ATOM     20  H   LIG d   1       7.942  89.439 116.370  0.00  0.00    -0.090 HD
ATOM     21  H   LIG d   1       8.402  90.000 117.839  0.00  0.00    -0.090 HD
ENDBRANCH   5  18
BRANCH   3  22
ATOM     22  C   LIG d   1       3.460  92.202 117.368  0.00  0.00     0.382 C 
ATOM     23  O   LIG d   1       2.207  92.158 117.415  0.00  0.00    -0.241 OA
ATOM     24  O   LIG d   1       4.035  93.307 117.381  0.00  0.00    -0.241 OA
ENDBRANCH   3  22
TORSDOF 7
ENDMDL
MODEL 8
REMARK VINA RESULT:      -3.6      2.283      4.587
REMARK  7 active torsions:
REMARK  status: ('A' for Active; 'I' for Inactive)
REMARK    1  A    between atoms: C_2  and  C_3 
REMARK    2  A    between atoms: C_3  and  O_6 
REMARK    3  A    between atoms: C_3  and  C_4 
REMARK    4  A    between atoms: C_7  and  O_6 
REMARK    5  A    between atoms: C_9  and  C_10 
REMARK    6  A    between atoms: N_15  and  C_14 
REMARK    7  A    between atoms: N_20  and  C_19 
REMARK       I    between atoms: C_22  and  N_20 
ROOT
ATOM      1  C   LIG d   1       4.180  90.275 116.827  0.00  0.00     0.161 C 
ATOM      2  C   LIG d   1       4.382  91.465 117.545  0.00  0.00     0.016 C 
ATOM      3  C   LIG d   1       3.338  92.358 117.881  0.00  0.00     0.038 C 
ATOM      4  C   LIG d   1       1.991  92.044 117.650  0.00  0.00     0.028 C 
ATOM      5  C   LIG d   1       1.783  91.090 116.478  0.00  0.00    -0.047 C 
ATOM      6  C   LIG d   1       2.702  89.861 116.663  0.00  0.00     0.091 C 
ENDROOT
BRANCH   1   7
ATOM      7  O   LIG d   1       4.936  89.206 117.430  0.00  0.00    -0.368 OA
BRANCH   7   8
ATOM      8  C   LIG d   1       5.879  88.525 116.565  0.00  0.00     0.119 C 
BRANCH   8   9
ATOM      9  C   LIG d   1       7.083  88.107 117.431  0.00  0.00     0.028 C 
ATOM     10  C   LIG d   1       8.222  87.497 116.598  0.00  0.00     0.006 C 
ENDBRANCH   8   9
BRANCH   8  11
ATOM     11  C   LIG d   1       6.450  89.474 115.508  0.00  0.00     0.028 C 
ATOM     12  C   LIG d   1       5.820  89.270 114.121  0.00  0.00     0.006 C 
ENDBRANCH   8  11
ENDBRANCH   7   8
ENDBRANCH   1   7
BRANCH   6  13
ATOM     13  N   LIG d   1       2.624  88.916 115.518  0.00  0.00    -0.311 N 
ATOM     14  C   LIG d   1       2.646  87.592 115.657  0.00  0.00     0.210 C 
ATOM     15  C   LIG d   1       2.574  86.803 114.346  0.00  0.00     0.109 C 
ATOM     16  O   LIG d   1       2.686  86.995 116.744  0.00  0.00    -0.276 OA
ATOM     17  H   LIG d   1       2.558  89.315 114.602  0.00  0.00     0.149 HD
ENDBRANCH   6  13
BRANCH   5  18
ATOM     18  N   LIG d   1       0.351  90.739 116.437  0.00  0.00     0.381 N 
ATOM     19  H   LIG d   1       0.010  90.599 117.367  0.00  0.00    -0.090 HD
ATOM     20  H   LIG d   1       0.241  89.880 115.928  0.00  0.00    -0.090 HD
ATOM     21  H   LIG d   1      -0.165  91.466 115.992  0.00  0.00    -0.090 HD
ENDBRANCH   5  18
BRANCH   3  22
ATOM     22  C   LIG d   1       3.642  93.599 118.419  0.00  0.00     0.382 C 
ATOM     23  O   LIG d   1       4.835  93.986 118.467  0.00  0.00    -0.241 OA
ATOM     24  O   LIG d   1       2.744  94.318 118.896  0.00  0.00    -0.241 OA
ENDBRANCH   3  22
TORSDOF 7
ENDMDL
MODEL 9
REMARK VINA RESULT:      -3.6      0.815      1.580
REMARK  7 active torsions:
REMARK  status: ('A' for Active; 'I' for Inactive)
REMARK    1  A    between atoms: C_2  and  C_3 
REMARK    2  A    between atoms: C_3  and  O_6 
REMARK    3  A    between atoms: C_3  and  C_4 
REMARK    4  A    between atoms: C_7  and  O_6 
REMARK    5  A    between atoms: C_9  and  C_10 
REMARK    6  A    between atoms: N_15  and  C_14 
REMARK    7  A    between atoms: N_20  and  C_19 
REMARK       I    between atoms: C_22  and  N_20 
ROOT
ATOM      1  C   LIG d   1       4.100  89.520 117.326  0.00  0.00     0.161 C 
ATOM      2  C   LIG d   1       5.066  90.185 118.100  0.00  0.00     0.016 C 
ATOM      3  C   LIG d   1       6.352  90.520 117.618  0.00  0.00     0.038 C 
ATOM      4  C   LIG d   1       6.708  90.348 116.273  0.00  0.00     0.028 C 
ATOM      5  C   LIG d   1       5.944  89.222 115.583  0.00  0.00    -0.047 C 
ATOM      6  C   LIG d   1       4.430  89.424 115.822  0.00  0.00     0.091 C 
ENDROOT
BRANCH   1   7
ATOM      7  O   LIG d   1       2.812  90.138 117.517  0.00  0.00    -0.368 OA
BRANCH   7   8
ATOM      8  C   LIG d   1       2.796  91.343 118.322  0.00  0.00     0.119 C 
BRANCH   8   9
ATOM      9  C   LIG d   1       1.336  91.599 118.744  0.00  0.00     0.028 C 
ATOM     10  C   LIG d   1       0.413  91.851 117.541  0.00  0.00     0.006 C 
ENDBRANCH   8   9
BRANCH   8  11
ATOM     11  C   LIG d   1       3.200  92.569 117.498  0.00  0.00     0.028 C 
ATOM     12  C   LIG d   1       3.899  93.649 118.340  0.00  0.00     0.006 C 
ENDBRANCH   8  11
ENDBRANCH   7   8
ENDBRANCH   1   7
BRANCH   6  13
ATOM     13  N   LIG d   1       3.615  88.320 115.253  0.00  0.00    -0.311 N 
ATOM     14  C   LIG d   1       3.088  88.353 114.030  0.00  0.00     0.210 C 
ATOM     15  C   LIG d   1       2.265  87.119 113.647  0.00  0.00     0.109 C 
ATOM     16  O   LIG d   1       3.251  89.273 113.214  0.00  0.00    -0.276 OA
ATOM     17  H   LIG d   1       3.459  87.520 115.835  0.00  0.00     0.149 HD
ENDBRANCH   6  13
BRANCH   5  18
ATOM     18  N   LIG d   1       6.312  89.243 114.155  0.00  0.00     0.381 N 
ATOM     19  H   LIG d   1       5.530  88.958 113.600  0.00  0.00    -0.090 HD
ATOM     20  H   LIG d   1       7.062  88.592 114.003  0.00  0.00    -0.090 HD
ATOM     21  H   LIG d   1       6.600  90.160 113.891  0.00  0.00    -0.090 HD
ENDBRANCH   5  18
BRANCH   3  22
ATOM     22  C   LIG d   1       7.312  90.999 118.497  0.00  0.00     0.382 C 
ATOM     23  O   LIG d   1       7.237  92.174 118.929  0.00  0.00    -0.241 OA
ATOM     24  O   LIG d   1       8.277  90.284 118.830  0.00  0.00    -0.241 OA
ENDBRANCH   3  22
TORSDOF 7
ENDMDL
