MODEL 1
REMARK VINA RESULT:      -4.2      0.000      0.000
REMARK  7 active torsions:
REMARK  status: ('A' for Active; 'I' for Inactive)
REMARK    1  A    between atoms: C_2  and  C_3 
REMARK    2  A    between atoms: C_3  and  O_6 
REMARK    3  A    between atoms: C_3  and  C_4 
REMARK    4  A    between atoms: C_7  and  O_6 
REMARK    5  A    between atoms: C_9  and  C_10 
REMARK    6  A    between atoms: N_15  and  C_14 
REMARK    7  A    between atoms: N_20  and  C_19 
REMARK       I    between atoms: C_22  and  N_20 
ROOT
ATOM      1  C   LIG d   1       4.739  87.802 116.207  0.00  0.00     0.161 C 
ATOM      2  C   LIG d   1       3.829  88.848 115.979  0.00  0.00     0.016 C 
ATOM      3  C   LIG d   1       4.073  90.188 116.358  0.00  0.00     0.038 C 
ATOM      4  C   LIG d   1       5.316  90.602 116.860  0.00  0.00     0.028 C 
ATOM      5  C   LIG d   1       6.081  89.493 117.574  0.00  0.00    -0.047 C 
ATOM      6  C   LIG d   1       6.145  88.254 116.652  0.00  0.00     0.091 C 
ENDROOT
BRANCH   1   7
ATOM      7  O   LIG d   1       4.828  86.968 115.035  0.00  0.00    -0.368 OA
BRANCH   7   8
ATOM      8  C   LIG d   1       4.319  87.541 113.805  0.00  0.00     0.119 C 
BRANCH   8   9
ATOM      9  C   LIG d   1       3.752  86.386 112.957  0.00  0.00     0.028 C 
ATOM     10  C   LIG d   1       3.989  86.592 111.451  0.00  0.00     0.006 C 
ENDBRANCH   8   9
BRANCH   8  11
ATOM     11  C   LIG d   1       5.447  88.146 112.964  0.00  0.00     0.028 C 
ATOM     12  C   LIG d   1       5.429  89.682 112.961  0.00  0.00     0.006 C 
ENDBRANCH   8  11
ENDBRANCH   7   8
ENDBRANCH   1   7
BRANCH   6  13
ATOM     13  N   LIG d   1       6.804  87.094 117.307  0.00  0.00    -0.311 N 
ATOM     14  C   LIG d   1       8.109  86.844 117.216  0.00  0.00     0.210 C 
ATOM     15  C   LIG d   1       8.579  85.585 117.950  0.00  0.00     0.109 C 
ATOM     16  O   LIG d   1       8.927  87.564 116.623  0.00  0.00    -0.276 OA
ATOM     17  H   LIG d   1       6.219  86.475 117.834  0.00  0.00     0.149 HD
ENDBRANCH   6  13
BRANCH   5  18
ATOM     18  N   LIG d   1       7.412  90.024 117.924  0.00  0.00     0.381 N 
ATOM     19  H   LIG d   1       7.938  89.325 118.410  0.00  0.00    -0.090 HD
ATOM     20  H   LIG d   1       7.297  90.814 118.534  0.00  0.00    -0.090 HD
ATOM     21  H   LIG d   1       7.897  90.300 117.098  0.00  0.00    -0.090 HD
ENDBRANCH   5  18
BRANCH   3  22
ATOM     22  C   LIG d   1       3.052  91.123 116.275  0.00  0.00     0.382 C 
ATOM     23  O   LIG d   1       1.909  90.771 115.896  0.00  0.00    -0.241 OA
ATOM     24  O   LIG d   1       3.271  92.322 116.530  0.00  0.00    -0.241 OA
ENDBRANCH   3  22
TORSDOF 7
ENDMDL
MODEL 2
REMARK VINA RESULT:      -4.1      4.591      6.837
REMARK  7 active torsions:
REMARK  status: ('A' for Active; 'I' for Inactive)
REMARK    1  A    between atoms: C_2  and  C_3 
REMARK    2  A    between atoms: C_3  and  O_6 
REMARK    3  A    between atoms: C_3  and  C_4 
REMARK    4  A    between atoms: C_7  and  O_6 
REMARK    5  A    between atoms: C_9  and  C_10 
REMARK    6  A    between atoms: N_15  and  C_14 
REMARK    7  A    between atoms: N_20  and  C_19 
REMARK       I    between atoms: C_22  and  N_20 
ROOT
ATOM      1  C   LIG d   1       0.134  91.330 117.866  0.00  0.00     0.161 C 
ATOM      2  C   LIG d   1      -1.239  91.506 117.628  0.00  0.00     0.016 C 
ATOM      3  C   LIG d   1      -1.854  92.775 117.524  0.00  0.00     0.038 C 
ATOM      4  C   LIG d   1      -1.106  93.962 117.500  0.00  0.00     0.028 C 
ATOM      5  C   LIG d   1       0.222  93.856 118.242  0.00  0.00    -0.047 C 
ATOM      6  C   LIG d   1       0.984  92.611 117.732  0.00  0.00     0.091 C 
ENDROOT
BRANCH   1   7
ATOM      7  O   LIG d   1       0.650  90.294 117.006  0.00  0.00    -0.368 OA
BRANCH   7   8
ATOM      8  C   LIG d   1       1.024  89.054 117.655  0.00  0.00     0.119 C 
BRANCH   8   9
ATOM      9  C   LIG d   1       2.319  88.554 116.985  0.00  0.00     0.028 C 
ATOM     10  C   LIG d   1       2.899  89.576 115.993  0.00  0.00     0.006 C 
ENDBRANCH   8   9
BRANCH   8  11
ATOM     11  C   LIG d   1      -0.014  87.957 117.401  0.00  0.00     0.028 C 
ATOM     12  C   LIG d   1      -1.026  87.817 118.548  0.00  0.00     0.006 C 
ENDBRANCH   8  11
ENDBRANCH   7   8
ENDBRANCH   1   7
BRANCH   6  13
ATOM     13  N   LIG d   1       2.257  92.385 118.465  0.00  0.00    -0.311 N 
ATOM     14  C   LIG d   1       3.458  92.577 117.923  0.00  0.00     0.210 C 
ATOM     15  C   LIG d   1       4.641  92.267 118.846  0.00  0.00     0.109 C 
ATOM     16  O   LIG d   1       3.657  93.006 116.776  0.00  0.00    -0.276 OA
ATOM     17  H   LIG d   1       2.188  92.067 119.411  0.00  0.00     0.149 HD
ENDBRANCH   6  13
BRANCH   5  18
ATOM     18  N   LIG d   1       0.958  95.115 118.020  0.00  0.00     0.381 N 
ATOM     19  H   LIG d   1       1.124  95.568 118.896  0.00  0.00    -0.090 HD
ATOM     20  H   LIG d   1       0.396  95.723 117.451  0.00  0.00    -0.090 HD
ATOM     21  H   LIG d   1       1.824  94.928 117.565  0.00  0.00    -0.090 HD
ENDBRANCH   5  18
BRANCH   3  22
ATOM     22  C   LIG d   1      -3.237  92.867 117.483  0.00  0.00     0.382 C 
ATOM     23  O   LIG d   1      -3.888  92.164 116.673  0.00  0.00    -0.241 OA
ATOM     24  O   LIG d   1      -3.839  93.676 118.215  0.00  0.00    -0.241 OA
ENDBRANCH   3  22
TORSDOF 7
ENDMDL
MODEL 3
REMARK VINA RESULT:      -4.1     10.110     12.429
REMARK  7 active torsions:
REMARK  status: ('A' for Active; 'I' for Inactive)
REMARK    1  A    between atoms: C_2  and  C_3 
REMARK    2  A    between atoms: C_3  and  O_6 
REMARK    3  A    between atoms: C_3  and  C_4 
REMARK    4  A    between atoms: C_7  and  O_6 
REMARK    5  A    between atoms: C_9  and  C_10 
REMARK    6  A    between atoms: N_15  and  C_14 
REMARK    7  A    between atoms: N_20  and  C_19 
REMARK       I    between atoms: C_22  and  N_20 
ROOT
ATOM      1  C   LIG d   1      -6.512  92.521 118.347  0.00  0.00     0.161 C 
ATOM      2  C   LIG d   1      -7.693  93.279 118.295  0.00  0.00     0.016 C 
ATOM      3  C   LIG d   1      -7.717  94.690 118.379  0.00  0.00     0.038 C 
ATOM      4  C   LIG d   1      -6.540  95.453 118.368  0.00  0.00     0.028 C 
ATOM      5  C   LIG d   1      -5.332  94.711 118.930  0.00  0.00    -0.047 C 
ATOM      6  C   LIG d   1      -5.211  93.341 118.223  0.00  0.00     0.091 C 
ENDROOT
BRANCH   1   7
ATOM      7  O   LIG d   1      -6.550  91.488 117.343  0.00  0.00    -0.368 OA
BRANCH   7   8
ATOM      8  C   LIG d   1      -6.032  91.847 116.038  0.00  0.00     0.119 C 
BRANCH   8   9
ATOM      9  C   LIG d   1      -7.227  91.913 115.068  0.00  0.00     0.028 C 
ATOM     10  C   LIG d   1      -7.727  90.517 114.657  0.00  0.00     0.006 C 
ENDBRANCH   8   9
BRANCH   8  11
ATOM     11  C   LIG d   1      -5.116  90.753 115.481  0.00  0.00     0.028 C 
ATOM     12  C   LIG d   1      -4.633  89.773 116.561  0.00  0.00     0.006 C 
ENDBRANCH   8  11
ENDBRANCH   7   8
ENDBRANCH   1   7
BRANCH   6  13
ATOM     13  N   LIG d   1      -4.104  92.516 118.773  0.00  0.00    -0.311 N 
ATOM     14  C   LIG d   1      -2.912  92.405 118.189  0.00  0.00     0.210 C 
ATOM     15  C   LIG d   1      -1.921  91.487 118.911  0.00  0.00     0.109 C 
ATOM     16  O   LIG d   1      -2.571  93.006 117.159  0.00  0.00    -0.276 OA
ATOM     17  H   LIG d   1      -4.285  92.019 119.623  0.00  0.00     0.149 HD
ENDBRANCH   6  13
BRANCH   5  18
ATOM     18  N   LIG d   1      -4.149  95.570 118.732  0.00  0.00     0.381 N 
ATOM     19  H   LIG d   1      -3.601  95.590 119.569  0.00  0.00    -0.090 HD
ATOM     20  H   LIG d   1      -4.457  96.506 118.534  0.00  0.00    -0.090 HD
ATOM     21  H   LIG d   1      -3.600  95.226 117.975  0.00  0.00    -0.090 HD
ENDBRANCH   5  18
BRANCH   3  22
ATOM     22  C   LIG d   1      -8.928  95.350 118.514  0.00  0.00     0.382 C 
ATOM     23  O   LIG d   1      -8.958  96.604 118.557  0.00  0.00    -0.241 OA
ATOM     24  O   LIG d   1      -9.988  94.707 118.639  0.00  0.00    -0.241 OA
ENDBRANCH   3  22
TORSDOF 7
ENDMDL
MODEL 4
REMARK VINA RESULT:      -4.1      2.294      4.553
REMARK  7 active torsions:
REMARK  status: ('A' for Active; 'I' for Inactive)
REMARK    1  A    between atoms: C_2  and  C_3 
REMARK    2  A    between atoms: C_3  and  O_6 
REMARK    3  A    between atoms: C_3  and  C_4 
REMARK    4  A    between atoms: C_7  and  O_6 
REMARK    5  A    between atoms: C_9  and  C_10 
REMARK    6  A    between atoms: N_15  and  C_14 
REMARK    7  A    between atoms: N_20  and  C_19 
REMARK       I    between atoms: C_22  and  N_20 
ROOT
ATOM      1  C   LIG d   1       5.125  89.331 115.914  0.00  0.00     0.161 C 
ATOM      2  C   LIG d   1       4.351  89.991 114.946  0.00  0.00     0.016 C 
ATOM      3  C   LIG d   1       3.603  89.315 113.955  0.00  0.00     0.038 C 
ATOM      4  C   LIG d   1       3.458  87.920 113.958  0.00  0.00     0.028 C 
ATOM      5  C   LIG d   1       4.628  87.191 114.611  0.00  0.00    -0.047 C 
ATOM      6  C   LIG d   1       4.890  87.809 116.003  0.00  0.00     0.091 C 
ENDROOT
BRANCH   1   7
ATOM      7  O   LIG d   1       4.923  89.945 117.203  0.00  0.00    -0.368 OA
BRANCH   7   8
ATOM      8  C   LIG d   1       5.883  90.962 117.582  0.00  0.00     0.119 C 
BRANCH   8   9
ATOM      9  C   LIG d   1       6.915  90.300 118.515  0.00  0.00     0.028 C 
ATOM     10  C   LIG d   1       8.215  89.926 117.782  0.00  0.00     0.006 C 
ENDBRANCH   8   9
BRANCH   8  11
ATOM     11  C   LIG d   1       5.227  92.063 118.420  0.00  0.00     0.028 C 
ATOM     12  C   LIG d   1       4.121  92.811 117.659  0.00  0.00     0.006 C 
ENDBRANCH   8  11
ENDBRANCH   7   8
ENDBRANCH   1   7
BRANCH   6  13
ATOM     13  N   LIG d   1       6.073  87.210 116.675  0.00  0.00    -0.311 N 
ATOM     14  C   LIG d   1       6.020  86.632 117.874  0.00  0.00     0.210 C 
ATOM     15  C   LIG d   1       7.358  86.096 118.393  0.00  0.00     0.109 C 
ATOM     16  O   LIG d   1       4.987  86.484 118.543  0.00  0.00    -0.276 OA
ATOM     17  H   LIG d   1       6.947  87.258 116.189  0.00  0.00     0.149 HD
ENDBRANCH   6  13
BRANCH   5  18
ATOM     18  N   LIG d   1       4.283  85.758 114.670  0.00  0.00     0.381 N 
ATOM     19  H   LIG d   1       3.458  85.630 115.222  0.00  0.00    -0.090 HD
ATOM     20  H   LIG d   1       5.037  85.260 115.109  0.00  0.00    -0.090 HD
ATOM     21  H   LIG d   1       4.133  85.405 113.750  0.00  0.00    -0.090 HD
ENDBRANCH   5  18
BRANCH   3  22
ATOM     22  C   LIG d   1       3.023  90.035 112.921  0.00  0.00     0.382 C 
ATOM     23  O   LIG d   1       3.210  91.272 112.837  0.00  0.00    -0.241 OA
ATOM     24  O   LIG d   1       2.278  89.470 112.098  0.00  0.00    -0.241 OA
ENDBRANCH   3  22
TORSDOF 7
ENDMDL
MODEL 5
REMARK VINA RESULT:      -4.0      2.754      4.718
REMARK  7 active torsions:
REMARK  status: ('A' for Active; 'I' for Inactive)
REMARK    1  A    between atoms: C_2  and  C_3 
REMARK    2  A    between atoms: C_3  and  O_6 
REMARK    3  A    between atoms: C_3  and  C_4 
REMARK    4  A    between atoms: C_7  and  O_6 
REMARK    5  A    between atoms: C_9  and  C_10 
REMARK    6  A    between atoms: N_15  and  C_14 
REMARK    7  A    between atoms: N_20  and  C_19 
REMARK       I    between atoms: C_22  and  N_20 
ROOT
ATOM      1  C   LIG d   1       3.679  87.842 115.078  0.00  0.00     0.161 C 
ATOM      2  C   LIG d   1       2.797  87.355 114.099  0.00  0.00     0.016 C 
ATOM      3  C   LIG d   1       3.010  87.516 112.711  0.00  0.00     0.038 C 
ATOM      4  C   LIG d   1       4.204  88.045 112.200  0.00  0.00     0.028 C 
ATOM      5  C   LIG d   1       4.899  89.007 113.159  0.00  0.00    -0.047 C 
ATOM      6  C   LIG d   1       5.042  88.324 114.538  0.00  0.00     0.091 C 
ENDROOT
BRANCH   1   7
ATOM      7  O   LIG d   1       3.870  86.846 116.102  0.00  0.00    -0.368 OA
BRANCH   7   8
ATOM      8  C   LIG d   1       3.219  87.103 117.371  0.00  0.00     0.119 C 
BRANCH   8   9
ATOM      9  C   LIG d   1       1.988  86.179 117.455  0.00  0.00     0.028 C 
ATOM     10  C   LIG d   1       0.716  86.934 117.875  0.00  0.00     0.006 C 
ENDBRANCH   8   9
BRANCH   8  11
ATOM     11  C   LIG d   1       2.661  88.528 117.432  0.00  0.00     0.028 C 
ATOM     12  C   LIG d   1       3.387  89.408 118.463  0.00  0.00     0.006 C 
ENDBRANCH   8  11
ENDBRANCH   7   8
ENDBRANCH   1   7
BRANCH   6  13
ATOM     13  N   LIG d   1       5.636  89.226 115.558  0.00  0.00    -0.311 N 
ATOM     14  C   LIG d   1       6.526  88.824 116.464  0.00  0.00     0.210 C 
ATOM     15  C   LIG d   1       6.996  89.911 117.436  0.00  0.00     0.109 C 
ATOM     16  O   LIG d   1       6.995  87.678 116.534  0.00  0.00    -0.276 OA
ATOM     17  H   LIG d   1       5.335  90.181 115.553  0.00  0.00     0.149 HD
ENDBRANCH   6  13
BRANCH   5  18
ATOM     18  N   LIG d   1       6.195  89.375 112.559  0.00  0.00     0.381 N 
ATOM     19  H   LIG d   1       6.051  89.743 111.640  0.00  0.00    -0.090 HD
ATOM     20  H   LIG d   1       6.764  88.550 112.482  0.00  0.00    -0.090 HD
ATOM     21  H   LIG d   1       6.654  90.052 113.127  0.00  0.00    -0.090 HD
ENDBRANCH   5  18
BRANCH   3  22
ATOM     22  C   LIG d   1       2.003  87.181 111.818  0.00  0.00     0.382 C 
ATOM     23  O   LIG d   1       1.192  88.056 111.430  0.00  0.00    -0.241 OA
ATOM     24  O   LIG d   1       1.869  86.005 111.430  0.00  0.00    -0.241 OA
ENDBRANCH   3  22
TORSDOF 7
ENDMDL
MODEL 6
REMARK VINA RESULT:      -3.9      5.972      9.020
REMARK  7 active torsions:
REMARK  status: ('A' for Active; 'I' for Inactive)
REMARK    1  A    between atoms: C_2  and  C_3 
REMARK    2  A    between atoms: C_3  and  O_6 
REMARK    3  A    between atoms: C_3  and  C_4 
REMARK    4  A    between atoms: C_7  and  O_6 
REMARK    5  A    between atoms: C_9  and  C_10 
REMARK    6  A    between atoms: N_15  and  C_14 
REMARK    7  A    between atoms: N_20  and  C_19 
REMARK       I    between atoms: C_22  and  N_20 
ROOT
ATOM      1  C   LIG d   1      -0.796  92.222 117.945  0.00  0.00     0.161 C 
ATOM      2  C   LIG d   1      -1.707  91.165 117.787  0.00  0.00     0.016 C 
ATOM      3  C   LIG d   1      -3.110  91.335 117.828  0.00  0.00     0.038 C 
ATOM      4  C   LIG d   1      -3.702  92.606 117.879  0.00  0.00     0.028 C 
ATOM      5  C   LIG d   1      -2.822  93.657 118.546  0.00  0.00    -0.047 C 
ATOM      6  C   LIG d   1      -1.423  93.631 117.891  0.00  0.00     0.091 C 
ENDROOT
BRANCH   1   7
ATOM      7  O   LIG d   1       0.261  92.106 116.971  0.00  0.00    -0.368 OA
BRANCH   7   8
ATOM      8  C   LIG d   1       1.546  91.667 117.475  0.00  0.00     0.119 C 
BRANCH   8   9
ATOM      9  C   LIG d   1       2.406  92.924 117.709  0.00  0.00     0.028 C 
ATOM     10  C   LIG d   1       3.879  92.709 117.324  0.00  0.00     0.006 C 
ENDBRANCH   8   9
BRANCH   8  11
ATOM     11  C   LIG d   1       2.305  90.847 116.427  0.00  0.00     0.028 C 
ATOM     12  C   LIG d   1       2.366  89.350 116.772  0.00  0.00     0.006 C 
ENDBRANCH   8  11
ENDBRANCH   7   8
ENDBRANCH   1   7
BRANCH   6  13
ATOM     13  N   LIG d   1      -0.474  94.571 118.542  0.00  0.00    -0.311 N 
ATOM     14  C   LIG d   1      -0.259  95.812 118.109  0.00  0.00     0.210 C 
ATOM     15  C   LIG d   1       0.775  96.607 118.913  0.00  0.00     0.109 C 
ATOM     16  O   LIG d   1      -0.850  96.342 117.156  0.00  0.00    -0.276 OA
ATOM     17  H   LIG d   1       0.026  94.234 119.341  0.00  0.00     0.149 HD
ENDBRANCH   6  13
BRANCH   5  18
ATOM     18  N   LIG d   1      -3.501  94.960 118.408  0.00  0.00     0.381 N 
ATOM     19  H   LIG d   1      -4.463  94.817 118.174  0.00  0.00    -0.090 HD
ATOM     20  H   LIG d   1      -3.067  95.475 117.662  0.00  0.00    -0.090 HD
ATOM     21  H   LIG d   1      -3.431  95.473 119.259  0.00  0.00    -0.090 HD
ENDBRANCH   5  18
BRANCH   3  22
ATOM     22  C   LIG d   1      -3.937  90.222 117.857  0.00  0.00     0.382 C 
ATOM     23  O   LIG d   1      -3.659  89.255 118.606  0.00  0.00    -0.241 OA
ATOM     24  O   LIG d   1      -4.933  90.155 117.112  0.00  0.00    -0.241 OA
ENDBRANCH   3  22
TORSDOF 7
ENDMDL
MODEL 7
REMARK VINA RESULT:      -3.5      2.720      5.287
REMARK  7 active torsions:
REMARK  status: ('A' for Active; 'I' for Inactive)
REMARK    1  A    between atoms: C_2  and  C_3 
REMARK    2  A    between atoms: C_3  and  O_6 
REMARK    3  A    between atoms: C_3  and  C_4 
REMARK    4  A    between atoms: C_7  and  O_6 
REMARK    5  A    between atoms: C_9  and  C_10 
REMARK    6  A    between atoms: N_15  and  C_14 
REMARK    7  A    between atoms: N_20  and  C_19 
REMARK       I    between atoms: C_22  and  N_20 
ROOT
ATOM      1  C   LIG d   1       2.942  89.724 116.369  0.00  0.00     0.161 C 
ATOM      2  C   LIG d   1       2.844  89.107 115.111  0.00  0.00     0.016 C 
ATOM      3  C   LIG d   1       3.966  88.786 114.313  0.00  0.00     0.038 C 
ATOM      4  C   LIG d   1       5.278  88.924 114.789  0.00  0.00     0.028 C 
ATOM      5  C   LIG d   1       5.427  90.009 115.850  0.00  0.00    -0.047 C 
ATOM      6  C   LIG d   1       4.369  89.781 116.953  0.00  0.00     0.091 C 
ENDROOT
BRANCH   1   7
ATOM      7  O   LIG d   1       2.045  89.083 117.299  0.00  0.00    -0.368 OA
BRANCH   7   8
ATOM      8  C   LIG d   1       0.993  89.915 117.847  0.00  0.00     0.119 C 
BRANCH   8   9
ATOM      9  C   LIG d   1      -0.312  89.097 117.807  0.00  0.00     0.028 C 
ATOM     10  C   LIG d   1      -0.082  87.648 117.345  0.00  0.00     0.006 C 
ENDBRANCH   8   9
BRANCH   8  11
ATOM     11  C   LIG d   1       0.733  91.138 116.962  0.00  0.00     0.028 C 
ATOM     12  C   LIG d   1       0.270  92.365 117.764  0.00  0.00     0.006 C 
ENDBRANCH   8  11
ENDBRANCH   7   8
ENDBRANCH   1   7
BRANCH   6  13
ATOM     13  N   LIG d   1       4.390  90.847 117.988  0.00  0.00    -0.311 N 
ATOM     14  C   LIG d   1       4.168  92.133 117.720  0.00  0.00     0.210 C 
ATOM     15  C   LIG d   1       4.256  93.070 118.929  0.00  0.00     0.109 C 
ATOM     16  O   LIG d   1       3.875  92.582 116.602  0.00  0.00    -0.276 OA
ATOM     17  H   LIG d   1       4.588  90.567 118.928  0.00  0.00     0.149 HD
ENDBRANCH   6  13
BRANCH   5  18
ATOM     18  N   LIG d   1       6.812  89.951 116.355  0.00  0.00     0.381 N 
ATOM     19  H   LIG d   1       6.851  89.372 117.170  0.00  0.00    -0.090 HD
ATOM     20  H   LIG d   1       7.102  90.878 116.613  0.00  0.00    -0.090 HD
ATOM     21  H   LIG d   1       7.417  89.589 115.652  0.00  0.00    -0.090 HD
ENDBRANCH   5  18
BRANCH   3  22
ATOM     22  C   LIG d   1       3.780  88.358 113.007  0.00  0.00     0.382 C 
ATOM     23  O   LIG d   1       4.772  88.176 112.260  0.00  0.00    -0.241 OA
ATOM     24  O   LIG d   1       2.632  88.193 112.553  0.00  0.00    -0.241 OA
ENDBRANCH   3  22
TORSDOF 7
ENDMDL
MODEL 8
REMARK VINA RESULT:      -3.5      3.540      5.305
REMARK  7 active torsions:
REMARK  status: ('A' for Active; 'I' for Inactive)
REMARK    1  A    between atoms: C_2  and  C_3 
REMARK    2  A    between atoms: C_3  and  O_6 
REMARK    3  A    between atoms: C_3  and  C_4 
REMARK    4  A    between atoms: C_7  and  O_6 
REMARK    5  A    between atoms: C_9  and  C_10 
REMARK    6  A    between atoms: N_15  and  C_14 
REMARK    7  A    between atoms: N_20  and  C_19 
REMARK       I    between atoms: C_22  and  N_20 
ROOT
ATOM      1  C   LIG d   1       3.045  89.157 117.635  0.00  0.00     0.161 C 
ATOM      2  C   LIG d   1       3.258  90.471 118.083  0.00  0.00     0.016 C 
ATOM      3  C   LIG d   1       3.663  91.526 117.233  0.00  0.00     0.038 C 
ATOM      4  C   LIG d   1       3.736  91.371 115.841  0.00  0.00     0.028 C 
ATOM      5  C   LIG d   1       4.020  89.937 115.406  0.00  0.00    -0.047 C 
ATOM      6  C   LIG d   1       3.012  88.993 116.101  0.00  0.00     0.091 C 
ENDROOT
BRANCH   1   7
ATOM      7  O   LIG d   1       1.837  88.631 118.221  0.00  0.00    -0.368 OA
BRANCH   7   8
ATOM      8  C   LIG d   1       0.610  88.898 117.499  0.00  0.00     0.119 C 
BRANCH   8   9
ATOM      9  C   LIG d   1      -0.083  90.089 118.187  0.00  0.00     0.028 C 
ATOM     10  C   LIG d   1      -0.253  91.294 117.246  0.00  0.00     0.006 C 
ENDBRANCH   8   9
BRANCH   8  11
ATOM     11  C   LIG d   1      -0.374  87.730 117.621  0.00  0.00     0.028 C 
ATOM     12  C   LIG d   1      -1.410  87.939 118.737  0.00  0.00     0.006 C 
ENDBRANCH   8  11
ENDBRANCH   7   8
ENDBRANCH   1   7
BRANCH   6  13
ATOM     13  N   LIG d   1       3.272  87.562 115.796  0.00  0.00    -0.311 N 
ATOM     14  C   LIG d   1       2.679  86.906 114.800  0.00  0.00     0.210 C 
ATOM     15  C   LIG d   1       3.074  85.431 114.672  0.00  0.00     0.109 C 
ATOM     16  O   LIG d   1       1.887  87.413 113.991  0.00  0.00    -0.276 OA
ATOM     17  H   LIG d   1       3.925  87.082 116.384  0.00  0.00     0.149 HD
ENDBRANCH   6  13
BRANCH   5  18
ATOM     18  N   LIG d   1       3.932  89.893 113.934  0.00  0.00     0.381 N 
ATOM     19  H   LIG d   1       4.431  90.666 113.542  0.00  0.00    -0.090 HD
ATOM     20  H   LIG d   1       2.968  89.969 113.663  0.00  0.00    -0.090 HD
ATOM     21  H   LIG d   1       4.313  89.036 113.596  0.00  0.00    -0.090 HD
ENDBRANCH   5  18
BRANCH   3  22
ATOM     22  C   LIG d   1       4.039  92.744 117.781  0.00  0.00     0.382 C 
ATOM     23  O   LIG d   1       3.245  93.715 117.754  0.00  0.00    -0.241 OA
ATOM     24  O   LIG d   1       5.177  92.896 118.262  0.00  0.00    -0.241 OA
ENDBRANCH   3  22
TORSDOF 7
ENDMDL
MODEL 9
REMARK VINA RESULT:      -3.5      2.487      4.421
REMARK  7 active torsions:
REMARK  status: ('A' for Active; 'I' for Inactive)
REMARK    1  A    between atoms: C_2  and  C_3 
REMARK    2  A    between atoms: C_3  and  O_6 
REMARK    3  A    between atoms: C_3  and  C_4 
REMARK    4  A    between atoms: C_7  and  O_6 
REMARK    5  A    between atoms: C_9  and  C_10 
REMARK    6  A    between atoms: N_15  and  C_14 
REMARK    7  A    between atoms: N_20  and  C_19 
REMARK       I    between atoms: C_22  and  N_20 
ROOT
ATOM      1  C   LIG d   1       3.847  90.382 116.589  0.00  0.00     0.161 C 
ATOM      2  C   LIG d   1       3.196  90.582 115.360  0.00  0.00     0.016 C 
ATOM      3  C   LIG d   1       3.584  89.941 114.161  0.00  0.00     0.038 C 
ATOM      4  C   LIG d   1       4.560  88.934 114.140  0.00  0.00     0.028 C 
ATOM      5  C   LIG d   1       5.586  89.062 115.261  0.00  0.00    -0.047 C 
ATOM      6  C   LIG d   1       4.842  89.202 116.609  0.00  0.00     0.091 C 
ENDROOT
BRANCH   1   7
ATOM      7  O   LIG d   1       2.871  90.231 117.639  0.00  0.00    -0.368 OA
BRANCH   7   8
ATOM      8  C   LIG d   1       1.549  89.805 117.225  0.00  0.00     0.119 C 
BRANCH   8   9
ATOM      9  C   LIG d   1       0.525  90.631 118.027  0.00  0.00     0.028 C 
ATOM     10  C   LIG d   1      -0.221  91.652 117.150  0.00  0.00     0.006 C 
ENDBRANCH   8   9
BRANCH   8  11
ATOM     11  C   LIG d   1       1.287  88.347 117.613  0.00  0.00     0.028 C 
ATOM     12  C   LIG d   1       1.629  87.360 116.485  0.00  0.00     0.006 C 
ENDBRANCH   8  11
ENDBRANCH   7   8
ENDBRANCH   1   7
BRANCH   6  13
ATOM     13  N   LIG d   1       5.770  89.417 117.749  0.00  0.00    -0.311 N 
ATOM     14  C   LIG d   1       6.942  90.041 117.634  0.00  0.00     0.210 C 
ATOM     15  C   LIG d   1       7.753  90.137 118.929  0.00  0.00     0.109 C 
ATOM     16  O   LIG d   1       7.371  90.551 116.588  0.00  0.00    -0.276 OA
ATOM     17  H   LIG d   1       5.487  89.062 118.642  0.00  0.00     0.149 HD
ENDBRANCH   6  13
BRANCH   5  18
ATOM     18  N   LIG d   1       6.459  87.874 115.204  0.00  0.00     0.381 N 
ATOM     19  H   LIG d   1       5.954  87.068 115.515  0.00  0.00    -0.090 HD
ATOM     20  H   LIG d   1       7.240  88.014 115.821  0.00  0.00    -0.090 HD
ATOM     21  H   LIG d   1       6.783  87.733 114.273  0.00  0.00    -0.090 HD
ENDBRANCH   5  18
BRANCH   3  22
ATOM     22  C   LIG d   1       3.020  90.336 112.957  0.00  0.00     0.382 C 
ATOM     23  O   LIG d   1       2.452  89.491 112.224  0.00  0.00    -0.241 OA
ATOM     24  O   LIG d   1       3.110  91.518 112.575  0.00  0.00    -0.241 OA
ENDBRANCH   3  22
TORSDOF 7
ENDMDL
